REMARK  Name = 
REMARK  19 active torsions:
REMARK  status: ('A' for Active; 'I' for Inactive)
REMARK    1  A    between atoms: O_1  and  C_20
REMARK    2  A    between atoms: O_1  and  C_36
REMARK    3  A    between atoms: O_2  and  C_18
REMARK    4  A    between atoms: O_3  and  C_28
REMARK    5  A    between atoms: O_3  and  C_42
REMARK    6  A    between atoms: O_5  and  C_34
REMARK    7  A    between atoms: O_5  and  C_50
REMARK    8  A    between atoms: O_7  and  C_40
REMARK    9  A    between atoms: O_7  and  C_56
REMARK   10  A    between atoms: O_9  and  C_46
REMARK   11  A    between atoms: N_11  and  C_30
REMARK   12  A    between atoms: C_17  and  C_23
REMARK   13  A    between atoms: C_18  and  C_28
REMARK   14  A    between atoms: C_23  and  C_32
REMARK   15  A    between atoms: C_33  and  C_35
REMARK   16  A    between atoms: C_35  and  C_40
REMARK   17  A    between atoms: C_36  and  C_41
REMARK   18  A    between atoms: C_46  and  C_53
REMARK   19  A    between atoms: C_53  and  C_57
REMARK                            x       y       z     vdW  Elec       q    Type
REMARK                         _______ _______ _______ _____ _____    ______ ____
ROOT
ATOM      1  N   UNL     1      14.687  -0.236  11.583  0.00  0.00    +0.000 NA
ATOM      2  N   UNL     1      14.833   2.317   7.553  0.00  0.00    +0.000 N 
ATOM      3  C   UNL     1      14.797   1.008   9.614  0.00  0.00    +0.000 C 
ATOM      4  C   UNL     1      15.596  -0.013  10.443  0.00  0.00    +0.000 C 
ATOM      5  C   UNL     1      15.715   1.712   8.595  0.00  0.00    +0.000 C 
ATOM      6  C   UNL     1      17.087   0.456  10.777  0.00  0.00    +0.000 C 
ATOM      7  C   UNL     1      16.846   2.568   9.189  0.00  0.00    +0.000 C 
ATOM      8  C   UNL     1      14.011   1.836  10.649  0.00  0.00    +0.000 C 
ATOM      9  C   UNL     1      17.312   2.020  10.578  0.00  0.00    +0.000 C 
ATOM     10  C   UNL     1      13.783   0.495   8.610  0.00  0.00    +0.000 A 
ATOM     11  C   UNL     1      14.097   1.045  11.952  0.00  0.00    +0.000 C 
ATOM     12  C   UNL     1      13.811   1.321   7.478  0.00  0.00    +0.000 A 
ATOM     13  C   UNL     1      17.475   0.112  12.217  0.00  0.00    +0.000 C 
ATOM     14  C   UNL     1      15.273  -0.964  12.698  0.00  0.00    +0.000 C 
ATOM     15  C   UNL     1      16.658  -0.535  13.060  0.00  0.00    +0.000 C 
ATOM     16  C   UNL     1      12.890  -0.565   8.727  0.00  0.00    +0.000 A 
ATOM     17  C   UNL     1      15.442   2.660   6.269  0.00  0.00    +0.000 C 
ATOM     18  C   UNL     1      12.903   1.111   6.458  0.00  0.00    +0.000 A 
ATOM     19  C   UNL     1      11.955  -0.809   7.702  0.00  0.00    +0.000 A 
ATOM     20  C   UNL     1      11.977   0.061   6.572  0.00  0.00    +0.000 A 
ENDROOT
BRANCH  19  23
ATOM     21  N   UNL     1       8.282  -5.299   8.662  0.00  0.00    +0.000 NA
ATOM     22  N   UNL     1       9.225  -0.130   8.235  0.00  0.00    +0.000 N 
ATOM     23  C   UNL     1      10.900  -1.983   7.794  0.00  0.00    +0.000 C 
ATOM     24  C   UNL     1      11.068  -2.810   9.150  0.00  0.00    +0.000 C 
ATOM     25  C   UNL     1       9.438  -1.420   7.779  0.00  0.00    +0.000 A 
ATOM     26  C   UNL     1       9.912  -3.745   9.542  0.00  0.00    +0.000 C 
ATOM     27  C   UNL     1      10.048  -4.393  10.919  0.00  0.00    +0.000 C 
ATOM     28  C   UNL     1       9.669  -4.881   8.559  0.00  0.00    +0.000 C 
ATOM     29  C   UNL     1       8.166  -1.945   7.488  0.00  0.00    +0.000 A 
ATOM     30  C   UNL     1       8.821  -5.293  11.254  0.00  0.00    +0.000 C 
ATOM     31  C   UNL     1       7.977  -5.808  10.017  0.00  0.00    +0.000 C 
ATOM     32  C   UNL     1       7.731  -3.329   7.033  0.00  0.00    +0.000 C 
ATOM     33  C   UNL     1       7.309  -4.277   8.196  0.00  0.00    +0.000 C 
ATOM     34  C   UNL     1       7.209  -0.893   7.742  0.00  0.00    +0.000 A 
ATOM     35  C   UNL     1       7.903   0.216   8.202  0.00  0.00    +0.000 A 
ATOM     36  C   UNL     1       5.803  -0.798   7.635  0.00  0.00    +0.000 A 
ATOM     37  C   UNL     1       7.280   1.420   8.554  0.00  0.00    +0.000 A 
ATOM     38  C   UNL     1       5.159   0.396   7.980  0.00  0.00    +0.000 A 
ATOM     39  C   UNL     1       5.890   1.489   8.433  0.00  0.00    +0.000 A 
ATOM     40  H   UNL     1       9.957   0.499   8.539  0.00  0.00    +0.000 HD
BRANCH  23  42
ATOM     41  O   UNL     1      10.521  -3.017   5.544  0.00  0.00    +0.000 OA
ATOM     42  C   UNL     1      11.197  -2.895   6.558  0.00  0.00    +0.000 C 
BRANCH  42  43
ATOM     43  O   UNL     1      12.388  -3.558   6.741  0.00  0.00    +0.000 OA
ATOM     44  C   UNL     1      12.775  -4.370   5.633  0.00  0.00    +0.000 C 
ENDBRANCH  42  43
ENDBRANCH  23  42
BRANCH  30  45
ATOM     45  O   UNL     1       9.373  -6.461  11.912  0.00  0.00    +0.000 OA
ATOM     46  H   UNL     1       9.893  -6.949  11.249  0.00  0.00    +0.000 HD
ENDBRANCH  30  45
BRANCH  30  47
ATOM     47  C   UNL     1       7.923  -4.649  12.336  0.00  0.00    +0.000 C 
ATOM     48  C   UNL     1       7.224  -3.355  11.956  0.00  0.00    +0.000 C 
ENDBRANCH  30  47
ENDBRANCH  19  23
BRANCH   7  49
ATOM     49  O   UNL     1      17.984   2.393   8.284  0.00  0.00    +0.000 OA
ATOM     50  H   UNL     1      18.504   3.221   8.342  0.00  0.00    +0.000 HD
ENDBRANCH   7  49
BRANCH   7  52
ATOM     51  O   UNL     1      15.534   4.582   9.812  0.00  0.00    +0.000 OA
ATOM     52  C   UNL     1      16.486   4.074   9.236  0.00  0.00    +0.000 C 
BRANCH  52  53
ATOM     53  O   UNL     1      17.456   4.800   8.588  0.00  0.00    +0.000 OA
ATOM     54  C   UNL     1      17.248   6.213   8.630  0.00  0.00    +0.000 C 
ENDBRANCH  52  53
ENDBRANCH   7  52
BRANCH  20  55
ATOM     55  O   UNL     1      11.092  -0.205   5.558  0.00  0.00    +0.000 OA
ATOM     56  C   UNL     1      10.452   0.937   4.996  0.00  0.00    +0.000 C 
ENDBRANCH  20  55
BRANCH   6  57
ATOM     57  C   UNL     1      18.103  -0.315   9.856  0.00  0.00    +0.000 C 
ATOM     58  C   UNL     1      18.232  -1.821  10.093  0.00  0.00    +0.000 C 
ENDBRANCH   6  57
BRANCH   9  59
ATOM     59  O   UNL     1      16.674   2.712  11.678  0.00  0.00    +0.000 OA
BRANCH  59  61
ATOM     60  O   UNL     1      18.364   4.257  11.753  0.00  0.00    +0.000 OA
ATOM     61  C   UNL     1      17.318   3.796  12.188  0.00  0.00    +0.000 C 
ATOM     62  C   UNL     1      16.543   4.364  13.336  0.00  0.00    +0.000 C 
ENDBRANCH  59  61
ENDBRANCH   9  59
TORSDOF 12
