MODEL 1
REMARK VINA RESULT:      -6.1      0.000      0.000
REMARK  Name = 
REMARK  19 active torsions:
REMARK  status: ('A' for Active; 'I' for Inactive)
REMARK    1  A    between atoms: O_1  and  C_20
REMARK    2  A    between atoms: O_1  and  C_36
REMARK    3  A    between atoms: O_2  and  C_18
REMARK    4  A    between atoms: O_3  and  C_28
REMARK    5  A    between atoms: O_3  and  C_42
REMARK    6  A    between atoms: O_5  and  C_34
REMARK    7  A    between atoms: O_5  and  C_50
REMARK    8  A    between atoms: O_7  and  C_40
REMARK    9  A    between atoms: O_7  and  C_56
REMARK   10  A    between atoms: O_9  and  C_46
REMARK   11  A    between atoms: N_11  and  C_30
REMARK   12  A    between atoms: C_17  and  C_23
REMARK   13  A    between atoms: C_18  and  C_28
REMARK   14  A    between atoms: C_23  and  C_32
REMARK   15  A    between atoms: C_33  and  C_35
REMARK   16  A    between atoms: C_35  and  C_40
REMARK   17  A    between atoms: C_36  and  C_41
REMARK   18  A    between atoms: C_46  and  C_53
REMARK   19  A    between atoms: C_53  and  C_57
REMARK                            x       y       z     vdW  Elec       q    Type
REMARK                         _______ _______ _______ _____ _____    ______ ____
ROOT
ATOM      1  N   UNL     1      23.176  14.227  27.346  0.00  0.00    +0.000 NA
ATOM      2  N   UNL     1      25.106  10.169  28.954  0.00  0.00    +0.000 N 
ATOM      3  C   UNL     1      24.151  12.252  28.111  0.00  0.00    +0.000 C 
ATOM      4  C   UNL     1      24.513  13.630  27.528  0.00  0.00    +0.000 C 
ATOM      5  C   UNL     1      25.347  11.286  27.993  0.00  0.00    +0.000 C 
ATOM      6  C   UNL     1      25.463  13.556  26.245  0.00  0.00    +0.000 C 
ATOM      7  C   UNL     1      25.794  10.942  26.563  0.00  0.00    +0.000 C 
ATOM      8  C   UNL     1      22.797  11.889  27.471  0.00  0.00    +0.000 C 
ATOM      9  C   UNL     1      25.494  12.114  25.570  0.00  0.00    +0.000 C 
ATOM     10  C   UNL     1      23.969  12.122  29.611  0.00  0.00    +0.000 A 
ATOM     11  C   UNL     1      22.276  13.188  26.860  0.00  0.00    +0.000 C 
ATOM     12  C   UNL     1      24.483  10.885  30.023  0.00  0.00    +0.000 A 
ATOM     13  C   UNL     1      25.036  14.560  25.172  0.00  0.00    +0.000 C 
ATOM     14  C   UNL     1      23.156  15.448  26.555  0.00  0.00    +0.000 C 
ATOM     15  C   UNL     1      24.011  15.409  25.330  0.00  0.00    +0.000 C 
ATOM     16  C   UNL     1      23.355  12.998  30.500  0.00  0.00    +0.000 A 
ATOM     17  C   UNL     1      26.258   9.363  29.355  0.00  0.00    +0.000 C 
ATOM     18  C   UNL     1      24.345  10.494  31.341  0.00  0.00    +0.000 A 
ATOM     19  C   UNL     1      23.204  12.631  31.852  0.00  0.00    +0.000 A 
ATOM     20  C   UNL     1      23.704  11.355  32.246  0.00  0.00    +0.000 A 
ENDROOT
BRANCH  19  23
ATOM     21  N   UNL     1      20.394  16.542  35.226  0.00  0.00    +0.000 NA
ATOM     22  N   UNL     1      20.639  11.843  32.850  0.00  0.00    +0.000 N 
ATOM     23  C   UNL     1      22.490  13.575  32.900  0.00  0.00    +0.000 C 
ATOM     24  C   UNL     1      21.928  14.898  32.203  0.00  0.00    +0.000 C 
ATOM     25  C   UNL     1      21.268  12.851  33.561  0.00  0.00    +0.000 A 
ATOM     26  C   UNL     1      20.921  15.734  33.009  0.00  0.00    +0.000 C 
ATOM     27  C   UNL     1      20.295  16.899  32.243  0.00  0.00    +0.000 C 
ATOM     28  C   UNL     1      21.486  16.323  34.293  0.00  0.00    +0.000 C 
ATOM     29  C   UNL     1      20.519  13.022  34.739  0.00  0.00    +0.000 A 
ATOM     30  C   UNL     1      19.260  17.670  33.116  0.00  0.00    +0.000 C 
ATOM     31  C   UNL     1      19.415  17.509  34.684  0.00  0.00    +0.000 C 
ATOM     32  C   UNL     1      20.653  14.023  35.876  0.00  0.00    +0.000 C 
ATOM     33  C   UNL     1      19.760  15.291  35.716  0.00  0.00    +0.000 C 
ATOM     34  C   UNL     1      19.461  12.039  34.712  0.00  0.00    +0.000 A 
ATOM     35  C   UNL     1      19.569  11.327  33.527  0.00  0.00    +0.000 A 
ATOM     36  C   UNL     1      18.406  11.708  35.592  0.00  0.00    +0.000 A 
ATOM     37  C   UNL     1      18.692  10.294  33.169  0.00  0.00    +0.000 A 
ATOM     38  C   UNL     1      17.519  10.679  35.256  0.00  0.00    +0.000 A 
ATOM     39  C   UNL     1      17.662   9.983  34.060  0.00  0.00    +0.000 A 
ATOM     40  H   UNL     1      20.940  11.505  31.945  0.00  0.00    +0.000 HD
BRANCH  23  42
ATOM     41  O   UNL     1      23.697  13.533  35.095  0.00  0.00    +0.000 OA
ATOM     42  C   UNL     1      23.599  13.937  33.943  0.00  0.00    +0.000 C 
BRANCH  42  43
ATOM     43  O   UNL     1      24.519  14.786  33.373  0.00  0.00    +0.000 OA
ATOM     44  C   UNL     1      25.876  14.431  33.635  0.00  0.00    +0.000 C 
ENDBRANCH  42  43
ENDBRANCH  23  42
BRANCH  30  45
ATOM     45  O   UNL     1      19.469  19.071  32.807  0.00  0.00    +0.000 OA
ATOM     46  H   UNL     1      18.637  19.413  32.434  0.00  0.00    +0.000 HD
ENDBRANCH  30  45
BRANCH  30  47
ATOM     47  C   UNL     1      17.811  17.401  32.650  0.00  0.00    +0.000 C 
ATOM     48  C   UNL     1      17.570  17.394  31.150  0.00  0.00    +0.000 C 
ENDBRANCH  30  47
ENDBRANCH  19  23
BRANCH   7  49
ATOM     49  O   UNL     1      27.253  10.832  26.627  0.00  0.00    +0.000 OA
ATOM     50  H   UNL     1      27.600  11.459  25.959  0.00  0.00    +0.000 HD
ENDBRANCH   7  49
BRANCH   7  52
ATOM     51  O   UNL     1      24.093   9.159  26.262  0.00  0.00    +0.000 OA
ATOM     52  C   UNL     1      25.223   9.589  26.073  0.00  0.00    +0.000 C 
BRANCH  52  53
ATOM     53  O   UNL     1      26.160   8.944  25.303  0.00  0.00    +0.000 OA
ATOM     54  C   UNL     1      25.620   7.914  24.473  0.00  0.00    +0.000 C 
ENDBRANCH  52  53
ENDBRANCH   7  52
BRANCH  20  55
ATOM     55  O   UNL     1      23.591  11.019  33.572  0.00  0.00    +0.000 OA
ATOM     56  C   UNL     1      23.733   9.631  33.860  0.00  0.00    +0.000 C 
ENDBRANCH  20  55
BRANCH   6  57
ATOM     57  C   UNL     1      26.931  13.949  26.651  0.00  0.00    +0.000 C 
ATOM     58  C   UNL     1      27.109  14.602  28.023  0.00  0.00    +0.000 C 
ENDBRANCH   6  57
BRANCH   9  59
ATOM     59  O   UNL     1      24.247  11.919  24.861  0.00  0.00    +0.000 OA
BRANCH  59  61
ATOM     60  O   UNL     1      23.499  10.541  23.191  0.00  0.00    +0.000 OA
ATOM     61  C   UNL     1      24.315  11.338  23.633  0.00  0.00    +0.000 C 
ATOM     62  C   UNL     1      25.512  11.840  22.889  0.00  0.00    +0.000 C 
ENDBRANCH  59  61
ENDBRANCH   9  59
TORSDOF 12
ENDMDL
MODEL 2
REMARK VINA RESULT:      -6.0     10.627     16.715
REMARK  Name = 
REMARK  19 active torsions:
REMARK  status: ('A' for Active; 'I' for Inactive)
REMARK    1  A    between atoms: O_1  and  C_20
REMARK    2  A    between atoms: O_1  and  C_36
REMARK    3  A    between atoms: O_2  and  C_18
REMARK    4  A    between atoms: O_3  and  C_28
REMARK    5  A    between atoms: O_3  and  C_42
REMARK    6  A    between atoms: O_5  and  C_34
REMARK    7  A    between atoms: O_5  and  C_50
REMARK    8  A    between atoms: O_7  and  C_40
REMARK    9  A    between atoms: O_7  and  C_56
REMARK   10  A    between atoms: O_9  and  C_46
REMARK   11  A    between atoms: N_11  and  C_30
REMARK   12  A    between atoms: C_17  and  C_23
REMARK   13  A    between atoms: C_18  and  C_28
REMARK   14  A    between atoms: C_23  and  C_32
REMARK   15  A    between atoms: C_33  and  C_35
REMARK   16  A    between atoms: C_35  and  C_40
REMARK   17  A    between atoms: C_36  and  C_41
REMARK   18  A    between atoms: C_46  and  C_53
REMARK   19  A    between atoms: C_53  and  C_57
REMARK                            x       y       z     vdW  Elec       q    Type
REMARK                         _______ _______ _______ _____ _____    ______ ____
ROOT
ATOM      1  N   UNL     1      12.844  20.788  30.704  0.00  0.00    +0.000 NA
ATOM      2  N   UNL     1       8.973  17.999  30.833  0.00  0.00    +0.000 N 
ATOM      3  C   UNL     1      10.970  19.404  30.795  0.00  0.00    +0.000 C 
ATOM      4  C   UNL     1      12.182  19.850  31.631  0.00  0.00    +0.000 C 
ATOM      5  C   UNL     1      10.359  18.114  31.376  0.00  0.00    +0.000 C 
ATOM      6  C   UNL     1      13.058  18.636  32.192  0.00  0.00    +0.000 C 
ATOM      7  C   UNL     1      11.264  16.871  31.350  0.00  0.00    +0.000 C 
ATOM      8  C   UNL     1      11.456  19.440  29.333  0.00  0.00    +0.000 C 
ATOM      9  C   UNL     1      12.777  17.260  31.440  0.00  0.00    +0.000 C 
ATOM     10  C   UNL     1       9.703  20.237  30.850  0.00  0.00    +0.000 A 
ATOM     11  C   UNL     1      12.760  20.234  29.359  0.00  0.00    +0.000 C 
ATOM     12  C   UNL     1       8.596  19.378  30.810  0.00  0.00    +0.000 A 
ATOM     13  C   UNL     1      14.557  18.926  32.082  0.00  0.00    +0.000 C 
ATOM     14  C   UNL     1      14.185  21.192  31.099  0.00  0.00    +0.000 C 
ATOM     15  C   UNL     1      15.045  20.079  31.603  0.00  0.00    +0.000 C 
ATOM     16  C   UNL     1       9.562  21.620  30.875  0.00  0.00    +0.000 A 
ATOM     17  C   UNL     1       8.039  17.127  31.543  0.00  0.00    +0.000 C 
ATOM     18  C   UNL     1       7.323  19.909  30.752  0.00  0.00    +0.000 A 
ATOM     19  C   UNL     1       8.276  22.194  30.822  0.00  0.00    +0.000 A 
ATOM     20  C   UNL     1       7.163  21.305  30.749  0.00  0.00    +0.000 A 
ENDROOT
BRANCH  19  23
ATOM     21  N   UNL     1       7.106  27.928  31.386  0.00  0.00    +0.000 NA
ATOM     22  N   UNL     1      10.444  23.858  31.676  0.00  0.00    +0.000 N 
ATOM     23  C   UNL     1       8.058  23.760  30.821  0.00  0.00    +0.000 C 
ATOM     24  C   UNL     1       7.101  24.214  32.016  0.00  0.00    +0.000 C 
ATOM     25  C   UNL     1       9.419  24.511  31.013  0.00  0.00    +0.000 A 
ATOM     26  C   UNL     1       7.076  25.713  32.355  0.00  0.00    +0.000 C 
ATOM     27  C   UNL     1       6.270  26.077  33.601  0.00  0.00    +0.000 C 
ATOM     28  C   UNL     1       6.548  26.596  31.234  0.00  0.00    +0.000 C 
ATOM     29  C   UNL     1       9.891  25.810  30.751  0.00  0.00    +0.000 A 
ATOM     30  C   UNL     1       6.325  27.606  33.895  0.00  0.00    +0.000 C 
ATOM     31  C   UNL     1       6.691  28.538  32.668  0.00  0.00    +0.000 C 
ATOM     32  C   UNL     1       9.211  27.019  30.128  0.00  0.00    +0.000 C 
ATOM     33  C   UNL     1       8.574  27.995  31.163  0.00  0.00    +0.000 C 
ATOM     34  C   UNL     1      11.249  25.871  31.241  0.00  0.00    +0.000 A 
ATOM     35  C   UNL     1      11.556  24.643  31.806  0.00  0.00    +0.000 A 
ATOM     36  C   UNL     1      12.239  26.879  31.266  0.00  0.00    +0.000 A 
ATOM     37  C   UNL     1      12.797  24.354  32.388  0.00  0.00    +0.000 A 
ATOM     38  C   UNL     1      13.487  26.612  31.841  0.00  0.00    +0.000 A 
ATOM     39  C   UNL     1      13.760  25.366  32.394  0.00  0.00    +0.000 A 
ATOM     40  H   UNL     1      10.394  22.905  32.011  0.00  0.00    +0.000 HD
BRANCH  23  42
ATOM     41  O   UNL     1       6.218  24.335  29.222  0.00  0.00    +0.000 OA
ATOM     42  C   UNL     1       7.395  24.077  29.440  0.00  0.00    +0.000 C 
BRANCH  42  43
ATOM     43  O   UNL     1       8.348  24.061  28.448  0.00  0.00    +0.000 OA
ATOM     44  C   UNL     1       8.064  24.938  27.359  0.00  0.00    +0.000 C 
ENDBRANCH  42  43
ENDBRANCH  23  42
BRANCH  30  45
ATOM     45  O   UNL     1       4.986  27.963  34.319  0.00  0.00    +0.000 OA
ATOM     46  H   UNL     1       4.751  27.377  35.061  0.00  0.00    +0.000 HD
ENDBRANCH  30  45
BRANCH  30  47
ATOM     47  C   UNL     1       7.199  27.915  35.133  0.00  0.00    +0.000 C 
ATOM     48  C   UNL     1       8.704  27.896  34.924  0.00  0.00    +0.000 C 
ENDBRANCH  30  47
ENDBRANCH  19  23
BRANCH   7  49
ATOM     49  O   UNL     1      10.961  16.141  32.583  0.00  0.00    +0.000 OA
ATOM     50  H   UNL     1      11.006  16.802  33.305  0.00  0.00    +0.000 HD
ENDBRANCH   7  49
BRANCH   7  52
ATOM     51  O   UNL     1      10.750  16.288  28.992  0.00  0.00    +0.000 OA
ATOM     52  C   UNL     1      10.962  15.944  30.146  0.00  0.00    +0.000 C 
BRANCH  52  53
ATOM     53  O   UNL     1      11.044  14.631  30.544  0.00  0.00    +0.000 OA
ATOM     54  C   UNL     1       9.833  13.894  30.364  0.00  0.00    +0.000 C 
ENDBRANCH  52  53
ENDBRANCH   7  52
BRANCH  20  55
ATOM     55  O   UNL     1       5.912  21.867  30.739  0.00  0.00    +0.000 OA
ATOM     56  C   UNL     1       4.832  20.945  30.865  0.00  0.00    +0.000 C 
ENDBRANCH  20  55
BRANCH   6  57
ATOM     57  C   UNL     1      12.764  18.436  33.724  0.00  0.00    +0.000 C 
ATOM     58  C   UNL     1      11.995  19.558  34.424  0.00  0.00    +0.000 C 
ENDBRANCH   6  57
BRANCH   9  59
ATOM     59  O   UNL     1      13.402  17.322  30.136  0.00  0.00    +0.000 OA
BRANCH  59  61
ATOM     60  O   UNL     1      15.502  16.459  30.444  0.00  0.00    +0.000 OA
ATOM     61  C   UNL     1      14.412  16.446  29.889  0.00  0.00    +0.000 C 
ATOM     62  C   UNL     1      13.985  15.441  28.864  0.00  0.00    +0.000 C 
ENDBRANCH  59  61
ENDBRANCH   9  59
TORSDOF 12
ENDMDL
MODEL 3
REMARK VINA RESULT:      -5.9      2.898      4.553
REMARK  Name = 
REMARK  19 active torsions:
REMARK  status: ('A' for Active; 'I' for Inactive)
REMARK    1  A    between atoms: O_1  and  C_20
REMARK    2  A    between atoms: O_1  and  C_36
REMARK    3  A    between atoms: O_2  and  C_18
REMARK    4  A    between atoms: O_3  and  C_28
REMARK    5  A    between atoms: O_3  and  C_42
REMARK    6  A    between atoms: O_5  and  C_34
REMARK    7  A    between atoms: O_5  and  C_50
REMARK    8  A    between atoms: O_7  and  C_40
REMARK    9  A    between atoms: O_7  and  C_56
REMARK   10  A    between atoms: O_9  and  C_46
REMARK   11  A    between atoms: N_11  and  C_30
REMARK   12  A    between atoms: C_17  and  C_23
REMARK   13  A    between atoms: C_18  and  C_28
REMARK   14  A    between atoms: C_23  and  C_32
REMARK   15  A    between atoms: C_33  and  C_35
REMARK   16  A    between atoms: C_35  and  C_40
REMARK   17  A    between atoms: C_36  and  C_41
REMARK   18  A    between atoms: C_46  and  C_53
REMARK   19  A    between atoms: C_53  and  C_57
REMARK                            x       y       z     vdW  Elec       q    Type
REMARK                         _______ _______ _______ _____ _____    ______ ____
ROOT
ATOM      1  N   UNL     1      24.112  16.251  26.552  0.00  0.00    +0.000 NA
ATOM      2  N   UNL     1      23.275  12.516  29.403  0.00  0.00    +0.000 N 
ATOM      3  C   UNL     1      23.739  14.413  27.937  0.00  0.00    +0.000 C 
ATOM      4  C   UNL     1      24.874  15.242  27.311  0.00  0.00    +0.000 C 
ATOM      5  C   UNL     1      24.272  13.053  28.429  0.00  0.00    +0.000 C 
ATOM      6  C   UNL     1      25.937  14.366  26.500  0.00  0.00    +0.000 C 
ATOM      7  C   UNL     1      24.818  12.112  27.342  0.00  0.00    +0.000 C 
ATOM      8  C   UNL     1      22.590  14.469  26.911  0.00  0.00    +0.000 C 
ATOM      9  C   UNL     1      25.401  12.912  26.131  0.00  0.00    +0.000 C 
ATOM     10  C   UNL     1      23.157  14.862  29.263  0.00  0.00    +0.000 A 
ATOM     11  C   UNL     1      22.961  15.593  25.947  0.00  0.00    +0.000 C 
ATOM     12  C   UNL     1      22.858  13.729  30.032  0.00  0.00    +0.000 A 
ATOM     13  C   UNL     1      26.351  15.051  25.195  0.00  0.00    +0.000 C 
ATOM     14  C   UNL     1      24.903  17.041  25.621  0.00  0.00    +0.000 C 
ATOM     15  C   UNL     1      25.891  16.253  24.822  0.00  0.00    +0.000 C 
ATOM     16  C   UNL     1      22.872  16.150  29.706  0.00  0.00    +0.000 A 
ATOM     17  C   UNL     1      23.726  11.476  30.327  0.00  0.00    +0.000 C 
ATOM     18  C   UNL     1      22.226  13.880  31.252  0.00  0.00    +0.000 A 
ATOM     19  C   UNL     1      22.233  16.338  30.947  0.00  0.00    +0.000 A 
ATOM     20  C   UNL     1      21.908  15.172  31.702  0.00  0.00    +0.000 A 
ENDROOT
BRANCH  19  23
ATOM     21  N   UNL     1      21.120  21.930  32.384  0.00  0.00    +0.000 NA
ATOM     22  N   UNL     1      19.498  17.173  30.790  0.00  0.00    +0.000 N 
ATOM     23  C   UNL     1      21.861  17.776  31.488  0.00  0.00    +0.000 C 
ATOM     24  C   UNL     1      22.376  18.919  30.498  0.00  0.00    +0.000 C 
ATOM     25  C   UNL     1      20.308  17.942  31.610  0.00  0.00    +0.000 A 
ATOM     26  C   UNL     1      21.797  20.329  30.703  0.00  0.00    +0.000 C 
ATOM     27  C   UNL     1      22.198  21.349  29.639  0.00  0.00    +0.000 C 
ATOM     28  C   UNL     1      22.143  20.956  32.046  0.00  0.00    +0.000 C 
ATOM     29  C   UNL     1      19.445  18.794  32.321  0.00  0.00    +0.000 A 
ATOM     30  C   UNL     1      21.541  22.738  29.898  0.00  0.00    +0.000 C 
ATOM     31  C   UNL     1      21.068  23.018  31.383  0.00  0.00    +0.000 C 
ATOM     32  C   UNL     1      19.730  19.916  33.307  0.00  0.00    +0.000 C 
ATOM     33  C   UNL     1      19.787  21.333  32.658  0.00  0.00    +0.000 C 
ATOM     34  C   UNL     1      18.098  18.456  31.923  0.00  0.00    +0.000 A 
ATOM     35  C   UNL     1      18.172  17.447  30.975  0.00  0.00    +0.000 A 
ATOM     36  C   UNL     1      16.818  18.939  32.280  0.00  0.00    +0.000 A 
ATOM     37  C   UNL     1      17.045  16.882  30.365  0.00  0.00    +0.000 A 
ATOM     38  C   UNL     1      15.678  18.388  31.684  0.00  0.00    +0.000 A 
ATOM     39  C   UNL     1      15.792  17.373  30.740  0.00  0.00    +0.000 A 
ATOM     40  H   UNL     1      19.837  16.474  30.143  0.00  0.00    +0.000 HD
BRANCH  23  42
ATOM     41  O   UNL     1      22.058  17.949  33.979  0.00  0.00    +0.000 OA
ATOM     42  C   UNL     1      22.580  17.889  32.873  0.00  0.00    +0.000 C 
BRANCH  42  43
ATOM     43  O   UNL     1      23.944  17.880  32.694  0.00  0.00    +0.000 OA
ATOM     44  C   UNL     1      24.662  17.238  33.747  0.00  0.00    +0.000 C 
ENDBRANCH  42  43
ENDBRANCH  23  42
BRANCH  30  45
ATOM     45  O   UNL     1      22.569  23.711  29.586  0.00  0.00    +0.000 OA
ATOM     46  H   UNL     1      22.954  24.008  30.430  0.00  0.00    +0.000 HD
ENDBRANCH  30  45
BRANCH  30  47
ATOM     47  C   UNL     1      20.424  23.038  28.871  0.00  0.00    +0.000 C 
ATOM     48  C   UNL     1      19.027  22.562  29.229  0.00  0.00    +0.000 C 
ENDBRANCH  30  47
ENDBRANCH  19  23
BRANCH   7  49
ATOM     49  O   UNL     1      25.956  11.425  27.957  0.00  0.00    +0.000 OA
ATOM     50  H   UNL     1      25.982  11.727  28.888  0.00  0.00    +0.000 HD
ENDBRANCH   7  49
BRANCH   7  52
ATOM     51  O   UNL     1      22.587  11.223  26.713  0.00  0.00    +0.000 OA
ATOM     52  C   UNL     1      23.782  11.047  26.905  0.00  0.00    +0.000 C 
BRANCH  52  53
ATOM     53  O   UNL     1      24.418   9.851  26.678  0.00  0.00    +0.000 OA
ATOM     54  C   UNL     1      23.666   8.936  25.878  0.00  0.00    +0.000 C 
ENDBRANCH  52  53
ENDBRANCH   7  52
BRANCH  20  55
ATOM     55  O   UNL     1      21.322  15.361  32.928  0.00  0.00    +0.000 OA
ATOM     56  C   UNL     1      21.619  14.365  33.902  0.00  0.00    +0.000 C 
ENDBRANCH  20  55
BRANCH   6  57
ATOM     57  C   UNL     1      27.253  14.212  27.348  0.00  0.00    +0.000 C 
ATOM     58  C   UNL     1      27.395  15.133  28.561  0.00  0.00    +0.000 C 
ENDBRANCH   6  57
BRANCH   9  59
ATOM     59  O   UNL     1      24.443  13.043  25.053  0.00  0.00    +0.000 OA
BRANCH  59  61
ATOM     60  O   UNL     1      23.581  11.605  23.493  0.00  0.00    +0.000 OA
ATOM     61  C   UNL     1      24.533  12.153  24.029  0.00  0.00    +0.000 C 
ATOM     62  C   UNL     1      25.964  11.969  23.630  0.00  0.00    +0.000 C 
ENDBRANCH  59  61
ENDBRANCH   9  59
TORSDOF 12
ENDMDL
MODEL 4
REMARK VINA RESULT:      -5.8      5.424     13.228
REMARK  Name = 
REMARK  19 active torsions:
REMARK  status: ('A' for Active; 'I' for Inactive)
REMARK    1  A    between atoms: O_1  and  C_20
REMARK    2  A    between atoms: O_1  and  C_36
REMARK    3  A    between atoms: O_2  and  C_18
REMARK    4  A    between atoms: O_3  and  C_28
REMARK    5  A    between atoms: O_3  and  C_42
REMARK    6  A    between atoms: O_5  and  C_34
REMARK    7  A    between atoms: O_5  and  C_50
REMARK    8  A    between atoms: O_7  and  C_40
REMARK    9  A    between atoms: O_7  and  C_56
REMARK   10  A    between atoms: O_9  and  C_46
REMARK   11  A    between atoms: N_11  and  C_30
REMARK   12  A    between atoms: C_17  and  C_23
REMARK   13  A    between atoms: C_18  and  C_28
REMARK   14  A    between atoms: C_23  and  C_32
REMARK   15  A    between atoms: C_33  and  C_35
REMARK   16  A    between atoms: C_35  and  C_40
REMARK   17  A    between atoms: C_36  and  C_41
REMARK   18  A    between atoms: C_46  and  C_53
REMARK   19  A    between atoms: C_53  and  C_57
REMARK                            x       y       z     vdW  Elec       q    Type
REMARK                         _______ _______ _______ _____ _____    ______ ____
ROOT
ATOM      1  N   UNL     1      27.652  13.564  24.961  0.00  0.00    +0.000 NA
ATOM      2  N   UNL     1      26.279   9.010  24.572  0.00  0.00    +0.000 N 
ATOM      3  C   UNL     1      26.945  11.349  24.781  0.00  0.00    +0.000 C 
ATOM      4  C   UNL     1      26.409  12.792  24.776  0.00  0.00    +0.000 C 
ATOM      5  C   UNL     1      25.798  10.349  25.026  0.00  0.00    +0.000 C 
ATOM      6  C   UNL     1      25.228  13.043  25.823  0.00  0.00    +0.000 C 
ATOM      7  C   UNL     1      25.094  10.454  26.388  0.00  0.00    +0.000 C 
ATOM      8  C   UNL     1      28.161  11.379  25.727  0.00  0.00    +0.000 C 
ATOM      9  C   UNL     1      25.134  11.916  26.944  0.00  0.00    +0.000 C 
ATOM     10  C   UNL     1      27.427  10.748  23.476  0.00  0.00    +0.000 A 
ATOM     11  C   UNL     1      28.488  12.857  25.924  0.00  0.00    +0.000 C 
ATOM     12  C   UNL     1      27.066   9.394  23.442  0.00  0.00    +0.000 A 
ATOM     13  C   UNL     1      25.384  14.390  26.533  0.00  0.00    +0.000 C 
ATOM     14  C   UNL     1      27.456  14.973  25.266  0.00  0.00    +0.000 C 
ATOM     15  C   UNL     1      26.378  15.248  26.264  0.00  0.00    +0.000 C 
ATOM     16  C   UNL     1      28.162  11.340  22.454  0.00  0.00    +0.000 A 
ATOM     17  C   UNL     1      25.270   7.990  24.290  0.00  0.00    +0.000 C 
ATOM     18  C   UNL     1      27.481   8.603  22.388  0.00  0.00    +0.000 A 
ATOM     19  C   UNL     1      28.596  10.562  21.362  0.00  0.00    +0.000 A 
ATOM     20  C   UNL     1      28.246   9.179  21.361  0.00  0.00    +0.000 A 
ENDROOT
BRANCH  19  23
ATOM     21  N   UNL     1      31.291  12.661  16.576  0.00  0.00    +0.000 NA
ATOM     22  N   UNL     1      28.647  13.410  21.075  0.00  0.00    +0.000 N 
ATOM     23  C   UNL     1      29.456  11.177  20.187  0.00  0.00    +0.000 C 
ATOM     24  C   UNL     1      28.755  10.942  18.770  0.00  0.00    +0.000 C 
ATOM     25  C   UNL     1      29.619  12.725  20.366  0.00  0.00    +0.000 A 
ATOM     26  C   UNL     1      29.283  11.772  17.588  0.00  0.00    +0.000 C 
ATOM     27  C   UNL     1      28.482  11.629  16.295  0.00  0.00    +0.000 C 
ATOM     28  C   UNL     1      30.733  11.487  17.225  0.00  0.00    +0.000 C 
ATOM     29  C   UNL     1      30.511  13.700  19.886  0.00  0.00    +0.000 A 
ATOM     30  C   UNL     1      29.058  12.528  15.160  0.00  0.00    +0.000 C 
ATOM     31  C   UNL     1      30.569  12.972  15.323  0.00  0.00    +0.000 C 
ATOM     32  C   UNL     1      31.728  13.588  18.982  0.00  0.00    +0.000 C 
ATOM     33  C   UNL     1      31.425  13.838  17.474  0.00  0.00    +0.000 C 
ATOM     34  C   UNL     1      30.051  14.974  20.387  0.00  0.00    +0.000 A 
ATOM     35  C   UNL     1      28.895  14.754  21.120  0.00  0.00    +0.000 A 
ATOM     36  C   UNL     1      30.514  16.303  20.263  0.00  0.00    +0.000 A 
ATOM     37  C   UNL     1      28.175  15.780  21.746  0.00  0.00    +0.000 A 
ATOM     38  C   UNL     1      29.812  17.345  20.881  0.00  0.00    +0.000 A 
ATOM     39  C   UNL     1      28.658  17.084  21.612  0.00  0.00    +0.000 A 
ATOM     40  H   UNL     1      27.854  12.976  21.529  0.00  0.00    +0.000 HD
BRANCH  23  42
ATOM     41  O   UNL     1      31.257   9.597  19.456  0.00  0.00    +0.000 OA
ATOM     42  C   UNL     1      30.826  10.425  20.249  0.00  0.00    +0.000 C 
BRANCH  42  43
ATOM     43  O   UNL     1      31.543  10.849  21.343  0.00  0.00    +0.000 OA
ATOM     44  C   UNL     1      32.179   9.794  22.064  0.00  0.00    +0.000 C 
ENDBRANCH  42  43
ENDBRANCH  23  42
BRANCH  30  45
ATOM     45  O   UNL     1      28.975  11.724  13.957  0.00  0.00    +0.000 OA
ATOM     46  H   UNL     1      28.222  12.057  13.437  0.00  0.00    +0.000 HD
ENDBRANCH  30  45
BRANCH  30  47
ATOM     47  C   UNL     1      28.133  13.732  14.865  0.00  0.00    +0.000 C 
ATOM     48  C   UNL     1      28.524  15.059  15.492  0.00  0.00    +0.000 C 
ENDBRANCH  30  47
ENDBRANCH  19  23
BRANCH   7  49
ATOM     49  O   UNL     1      23.683  10.163  26.121  0.00  0.00    +0.000 OA
ATOM     50  H   UNL     1      23.254  10.085  26.998  0.00  0.00    +0.000 HD
ENDBRANCH   7  49
BRANCH   7  52
ATOM     51  O   UNL     1      26.792   9.199  27.695  0.00  0.00    +0.000 OA
ATOM     52  C   UNL     1      25.622   9.416  27.410  0.00  0.00    +0.000 C 
BRANCH  52  53
ATOM     53  O   UNL     1      24.563   8.803  28.034  0.00  0.00    +0.000 OA
ATOM     54  C   UNL     1      24.598   7.376  27.969  0.00  0.00    +0.000 C 
ENDBRANCH  52  53
ENDBRANCH   7  52
BRANCH  20  55
ATOM     55  O   UNL     1      28.636   8.435  20.276  0.00  0.00    +0.000 OA
ATOM     56  C   UNL     1      28.196   7.080  20.281  0.00  0.00    +0.000 C 
ENDBRANCH  20  55
BRANCH   6  57
ATOM     57  C   UNL     1      23.852  13.107  25.064  0.00  0.00    +0.000 C 
ATOM     58  C   UNL     1      22.626  13.472  25.903  0.00  0.00    +0.000 C 
ENDBRANCH   6  57
BRANCH   9  59
ATOM     59  O   UNL     1      26.223  12.113  27.877  0.00  0.00    +0.000 OA
BRANCH  59  61
ATOM     60  O   UNL     1      26.682  12.851  29.997  0.00  0.00    +0.000 OA
ATOM     61  C   UNL     1      25.895  12.439  29.156  0.00  0.00    +0.000 C 
ATOM     62  C   UNL     1      24.426  12.254  29.375  0.00  0.00    +0.000 C 
ENDBRANCH  59  61
ENDBRANCH   9  59
TORSDOF 12
ENDMDL
MODEL 5
REMARK VINA RESULT:      -5.8      6.063     13.843
REMARK  Name = 
REMARK  19 active torsions:
REMARK  status: ('A' for Active; 'I' for Inactive)
REMARK    1  A    between atoms: O_1  and  C_20
REMARK    2  A    between atoms: O_1  and  C_36
REMARK    3  A    between atoms: O_2  and  C_18
REMARK    4  A    between atoms: O_3  and  C_28
REMARK    5  A    between atoms: O_3  and  C_42
REMARK    6  A    between atoms: O_5  and  C_34
REMARK    7  A    between atoms: O_5  and  C_50
REMARK    8  A    between atoms: O_7  and  C_40
REMARK    9  A    between atoms: O_7  and  C_56
REMARK   10  A    between atoms: O_9  and  C_46
REMARK   11  A    between atoms: N_11  and  C_30
REMARK   12  A    between atoms: C_17  and  C_23
REMARK   13  A    between atoms: C_18  and  C_28
REMARK   14  A    between atoms: C_23  and  C_32
REMARK   15  A    between atoms: C_33  and  C_35
REMARK   16  A    between atoms: C_35  and  C_40
REMARK   17  A    between atoms: C_36  and  C_41
REMARK   18  A    between atoms: C_46  and  C_53
REMARK   19  A    between atoms: C_53  and  C_57
REMARK                            x       y       z     vdW  Elec       q    Type
REMARK                         _______ _______ _______ _____ _____    ______ ____
ROOT
ATOM      1  N   UNL     1      28.550  15.420  24.493  0.00  0.00    +0.000 NA
ATOM      2  N   UNL     1      25.846  11.517  24.007  0.00  0.00    +0.000 N 
ATOM      3  C   UNL     1      27.199  13.534  24.268  0.00  0.00    +0.000 C 
ATOM      4  C   UNL     1      27.126  15.069  24.336  0.00  0.00    +0.000 C 
ATOM      5  C   UNL     1      25.810  12.916  24.528  0.00  0.00    +0.000 C 
ATOM      6  C   UNL     1      26.112  15.617  25.442  0.00  0.00    +0.000 C 
ATOM      7  C   UNL     1      25.214  13.167  25.923  0.00  0.00    +0.000 C 
ATOM      8  C   UNL     1      28.395  13.150  25.160  0.00  0.00    +0.000 C 
ATOM      9  C   UNL     1      25.714  14.521  26.527  0.00  0.00    +0.000 C 
ATOM     10  C   UNL     1      27.433  12.875  22.922  0.00  0.00    +0.000 A 
ATOM     11  C   UNL     1      29.162  14.450  25.393  0.00  0.00    +0.000 C 
ATOM     12  C   UNL     1      26.677  11.697  22.859  0.00  0.00    +0.000 A 
ATOM     13  C   UNL     1      26.692  16.819  26.191  0.00  0.00    +0.000 C 
ATOM     14  C   UNL     1      28.801  16.807  24.854  0.00  0.00    +0.000 C 
ATOM     15  C   UNL     1      27.890  17.348  25.907  0.00  0.00    +0.000 C 
ATOM     16  C   UNL     1      28.281  13.264  21.890  0.00  0.00    +0.000 A 
ATOM     17  C   UNL     1      24.567  10.865  23.735  0.00  0.00    +0.000 C 
ATOM     18  C   UNL     1      26.798  10.867  21.760  0.00  0.00    +0.000 A 
ATOM     19  C   UNL     1      28.423  12.443  20.754  0.00  0.00    +0.000 A 
ATOM     20  C   UNL     1      27.670  11.232  20.721  0.00  0.00    +0.000 A 
ENDROOT
BRANCH  19  23
ATOM     21  N   UNL     1      31.504  13.723  15.913  0.00  0.00    +0.000 NA
ATOM     22  N   UNL     1      28.953  15.216  20.278  0.00  0.00    +0.000 N 
ATOM     23  C   UNL     1      29.392  12.822  19.564  0.00  0.00    +0.000 C 
ATOM     24  C   UNL     1      28.684  12.607  18.148  0.00  0.00    +0.000 C 
ATOM     25  C   UNL     1      29.808  14.330  19.644  0.00  0.00    +0.000 A 
ATOM     26  C   UNL     1      29.360  13.252  16.928  0.00  0.00    +0.000 C 
ATOM     27  C   UNL     1      28.567  13.153  15.626  0.00  0.00    +0.000 C 
ATOM     28  C   UNL     1      30.748  12.707  16.624  0.00  0.00    +0.000 C 
ATOM     29  C   UNL     1      30.858  15.108  19.124  0.00  0.00    +0.000 A 
ATOM     30  C   UNL     1      29.303  13.862  14.449  0.00  0.00    +0.000 C 
ATOM     31  C   UNL     1      30.864  14.060  14.623  0.00  0.00    +0.000 C 
ATOM     32  C   UNL     1      32.053  14.733  18.262  0.00  0.00    +0.000 C 
ATOM     33  C   UNL     1      31.819  14.923  16.733  0.00  0.00    +0.000 C 
ATOM     34  C   UNL     1      30.609  16.473  19.525  0.00  0.00    +0.000 A 
ATOM     35  C   UNL     1      29.421  16.500  20.240  0.00  0.00    +0.000 A 
ATOM     36  C   UNL     1      31.289  17.695  19.324  0.00  0.00    +0.000 A 
ATOM     37  C   UNL     1      28.873  17.672  20.776  0.00  0.00    +0.000 A 
ATOM     38  C   UNL     1      30.761  18.880  19.852  0.00  0.00    +0.000 A 
ATOM     39  C   UNL     1      29.569  18.865  20.568  0.00  0.00    +0.000 A 
ATOM     40  H   UNL     1      28.091  14.951  20.738  0.00  0.00    +0.000 HD
BRANCH  23  42
ATOM     41  O   UNL     1      30.895  10.896  19.012  0.00  0.00    +0.000 OA
ATOM     42  C   UNL     1      30.616  11.860  19.714  0.00  0.00    +0.000 C 
BRANCH  42  43
ATOM     43  O   UNL     1      31.404  12.266  20.766  0.00  0.00    +0.000 OA
ATOM     44  C   UNL     1      32.781  11.917  20.626  0.00  0.00    +0.000 C 
ENDBRANCH  42  43
ENDBRANCH  23  42
BRANCH  30  45
ATOM     45  O   UNL     1      29.105  13.000  13.301  0.00  0.00    +0.000 OA
ATOM     46  H   UNL     1      29.646  12.202  13.441  0.00  0.00    +0.000 HD
ENDBRANCH  30  45
BRANCH  30  47
ATOM     47  C   UNL     1      28.596  15.178  14.049  0.00  0.00    +0.000 C 
ATOM     48  C   UNL     1      27.201  15.048  13.461  0.00  0.00    +0.000 C 
ENDBRANCH  30  47
ENDBRANCH  19  23
BRANCH   7  49
ATOM     49  O   UNL     1      23.774  13.328  25.709  0.00  0.00    +0.000 OA
ATOM     50  H   UNL     1      23.576  12.878  24.862  0.00  0.00    +0.000 HD
ENDBRANCH   7  49
BRANCH   7  52
ATOM     51  O   UNL     1      26.463  11.326  27.026  0.00  0.00    +0.000 OA
ATOM     52  C   UNL     1      25.434  11.972  26.884  0.00  0.00    +0.000 C 
BRANCH  52  53
ATOM     53  O   UNL     1      24.304  11.775  27.641  0.00  0.00    +0.000 OA
ATOM     54  C   UNL     1      24.567  11.298  28.962  0.00  0.00    +0.000 C 
ENDBRANCH  52  53
ENDBRANCH   7  52
BRANCH  20  55
ATOM     55  O   UNL     1      27.780  10.455  19.595  0.00  0.00    +0.000 OA
ATOM     56  C   UNL     1      27.965   9.063  19.834  0.00  0.00    +0.000 C 
ENDBRANCH  20  55
BRANCH   6  57
ATOM     57  C   UNL     1      24.797  16.130  24.747  0.00  0.00    +0.000 C 
ATOM     58  C   UNL     1      23.858  16.981  25.605  0.00  0.00    +0.000 C 
ENDBRANCH   6  57
BRANCH   9  59
ATOM     59  O   UNL     1      26.841  14.336  27.417  0.00  0.00    +0.000 OA
BRANCH  59  61
ATOM     60  O   UNL     1      27.408  14.193  29.632  0.00  0.00    +0.000 OA
ATOM     61  C   UNL     1      26.610  14.478  28.750  0.00  0.00    +0.000 C 
ATOM     62  C   UNL     1      25.252  15.065  28.979  0.00  0.00    +0.000 C 
ENDBRANCH  59  61
ENDBRANCH   9  59
TORSDOF 12
ENDMDL
MODEL 6
REMARK VINA RESULT:      -5.5     12.285     18.637
REMARK  Name = 
REMARK  19 active torsions:
REMARK  status: ('A' for Active; 'I' for Inactive)
REMARK    1  A    between atoms: O_1  and  C_20
REMARK    2  A    between atoms: O_1  and  C_36
REMARK    3  A    between atoms: O_2  and  C_18
REMARK    4  A    between atoms: O_3  and  C_28
REMARK    5  A    between atoms: O_3  and  C_42
REMARK    6  A    between atoms: O_5  and  C_34
REMARK    7  A    between atoms: O_5  and  C_50
REMARK    8  A    between atoms: O_7  and  C_40
REMARK    9  A    between atoms: O_7  and  C_56
REMARK   10  A    between atoms: O_9  and  C_46
REMARK   11  A    between atoms: N_11  and  C_30
REMARK   12  A    between atoms: C_17  and  C_23
REMARK   13  A    between atoms: C_18  and  C_28
REMARK   14  A    between atoms: C_23  and  C_32
REMARK   15  A    between atoms: C_33  and  C_35
REMARK   16  A    between atoms: C_35  and  C_40
REMARK   17  A    between atoms: C_36  and  C_41
REMARK   18  A    between atoms: C_46  and  C_53
REMARK   19  A    between atoms: C_53  and  C_57
REMARK                            x       y       z     vdW  Elec       q    Type
REMARK                         _______ _______ _______ _____ _____    ______ ____
ROOT
ATOM      1  N   UNL     1       4.283  19.634  32.906  0.00  0.00    +0.000 NA
ATOM      2  N   UNL     1       7.999  21.439  30.516  0.00  0.00    +0.000 N 
ATOM      3  C   UNL     1       6.101  20.544  31.765  0.00  0.00    +0.000 C 
ATOM      4  C   UNL     1       5.441  20.512  33.155  0.00  0.00    +0.000 C 
ATOM      5  C   UNL     1       7.086  21.726  31.663  0.00  0.00    +0.000 C 
ATOM      6  C   UNL     1       5.144  21.962  33.759  0.00  0.00    +0.000 C 
ATOM      7  C   UNL     1       6.466  23.129  31.776  0.00  0.00    +0.000 C 
ATOM      8  C   UNL     1       4.935  20.420  30.766  0.00  0.00    +0.000 C 
ATOM      9  C   UNL     1       5.178  23.117  32.664  0.00  0.00    +0.000 C 
ATOM     10  C   UNL     1       7.096  19.457  31.407  0.00  0.00    +0.000 A 
ATOM     11  C   UNL     1       3.737  19.961  31.595  0.00  0.00    +0.000 C 
ATOM     12  C   UNL     1       8.126  20.022  30.644  0.00  0.00    +0.000 A 
ATOM     13  C   UNL     1       3.778  22.015  34.447  0.00  0.00    +0.000 C 
ATOM     14  C   UNL     1       3.294  19.611  33.973  0.00  0.00    +0.000 C 
ATOM     15  C   UNL     1       2.967  20.952  34.546  0.00  0.00    +0.000 C 
ATOM     16  C   UNL     1       7.047  18.096  31.688  0.00  0.00    +0.000 A 
ATOM     17  C   UNL     1       9.269  22.161  30.468  0.00  0.00    +0.000 C 
ATOM     18  C   UNL     1       9.109  19.207  30.115  0.00  0.00    +0.000 A 
ATOM     19  C   UNL     1       8.037  17.238  31.168  0.00  0.00    +0.000 A 
ATOM     20  C   UNL     1       9.060  17.826  30.367  0.00  0.00    +0.000 A 
ENDROOT
BRANCH  19  23
ATOM     21  N   UNL     1       8.600  11.434  31.923  0.00  0.00    +0.000 NA
ATOM     22  N   UNL     1       8.320  16.326  33.868  0.00  0.00    +0.000 N 
ATOM     23  C   UNL     1       8.017  15.680  31.434  0.00  0.00    +0.000 C 
ATOM     24  C   UNL     1       9.374  14.990  30.948  0.00  0.00    +0.000 C 
ATOM     25  C   UNL     1       7.872  15.377  32.964  0.00  0.00    +0.000 A 
ATOM     26  C   UNL     1       9.645  13.562  31.448  0.00  0.00    +0.000 C 
ATOM     27  C   UNL     1      11.022  13.006  31.087  0.00  0.00    +0.000 C 
ATOM     28  C   UNL     1       8.632  12.532  30.973  0.00  0.00    +0.000 C 
ATOM     29  C   UNL     1       7.457  14.274  33.732  0.00  0.00    +0.000 A 
ATOM     30  C   UNL     1      11.231  11.573  31.662  0.00  0.00    +0.000 C 
ATOM     31  C   UNL     1       9.915  10.762  32.006  0.00  0.00    +0.000 C 
ATOM     32  C   UNL     1       6.948  12.901  33.323  0.00  0.00    +0.000 C 
ATOM     33  C   UNL     1       8.056  11.807  33.255  0.00  0.00    +0.000 C 
ATOM     34  C   UNL     1       7.633  14.638  35.119  0.00  0.00    +0.000 A 
ATOM     35  C   UNL     1       8.168  15.916  35.163  0.00  0.00    +0.000 A 
ATOM     36  C   UNL     1       7.396  13.976  36.345  0.00  0.00    +0.000 A 
ATOM     37  C   UNL     1       8.473  16.580  36.357  0.00  0.00    +0.000 A 
ATOM     38  C   UNL     1       7.692  14.620  37.551  0.00  0.00    +0.000 A 
ATOM     39  C   UNL     1       8.224  15.906  37.555  0.00  0.00    +0.000 A 
ATOM     40  H   UNL     1       8.698  17.229  33.611  0.00  0.00    +0.000 HD
BRANCH  23  42
ATOM     41  O   UNL     1       6.834  14.610  29.502  0.00  0.00    +0.000 OA
ATOM     42  C   UNL     1       6.804  15.141  30.605  0.00  0.00    +0.000 C 
BRANCH  42  43
ATOM     43  O   UNL     1       5.638  15.317  31.313  0.00  0.00    +0.000 OA
ATOM     44  C   UNL     1       4.456  15.083  30.550  0.00  0.00    +0.000 C 
ENDBRANCH  42  43
ENDBRANCH  23  42
BRANCH  30  45
ATOM     45  O   UNL     1      11.925  10.841  30.620  0.00  0.00    +0.000 OA
ATOM     46  H   UNL     1      11.764  11.309  29.781  0.00  0.00    +0.000 HD
ENDBRANCH  30  45
BRANCH  30  47
ATOM     47  C   UNL     1      12.231  11.574  32.841  0.00  0.00    +0.000 C 
ATOM     48  C   UNL     1      11.637  11.672  34.236  0.00  0.00    +0.000 C 
ENDBRANCH  30  47
ENDBRANCH  19  23
BRANCH   7  49
ATOM     49  O   UNL     1       7.450  23.932  32.505  0.00  0.00    +0.000 OA
ATOM     50  H   UNL     1       8.292  23.837  32.014  0.00  0.00    +0.000 HD
ENDBRANCH   7  49
BRANCH   7  52
ATOM     51  O   UNL     1       5.487  23.379  29.508  0.00  0.00    +0.000 OA
ATOM     52  C   UNL     1       6.227  23.784  30.393  0.00  0.00    +0.000 C 
BRANCH  52  53
ATOM     53  O   UNL     1       6.922  24.967  30.318  0.00  0.00    +0.000 OA
ATOM     54  C   UNL     1       7.494  25.224  29.034  0.00  0.00    +0.000 C 
ENDBRANCH  52  53
ENDBRANCH   7  52
BRANCH  20  55
ATOM     55  O   UNL     1      10.044  16.993  29.897  0.00  0.00    +0.000 OA
ATOM     56  C   UNL     1      11.132  17.646  29.247  0.00  0.00    +0.000 C 
ENDBRANCH  20  55
BRANCH   6  57
ATOM     57  C   UNL     1       6.205  22.299  34.872  0.00  0.00    +0.000 C 
ATOM     58  C   UNL     1       7.065  21.136  35.369  0.00  0.00    +0.000 C 
ENDBRANCH   6  57
BRANCH   9  59
ATOM     59  O   UNL     1       3.971  23.022  31.870  0.00  0.00    +0.000 OA
BRANCH  59  61
ATOM     60  O   UNL     1       3.502  25.264  31.905  0.00  0.00    +0.000 OA
ATOM     61  C   UNL     1       3.138  24.097  31.873  0.00  0.00    +0.000 C 
ATOM     62  C   UNL     1       1.712  23.646  31.795  0.00  0.00    +0.000 C 
ENDBRANCH  59  61
ENDBRANCH   9  59
TORSDOF 12
ENDMDL
MODEL 7
REMARK VINA RESULT:      -5.4     22.816     28.967
REMARK  Name = 
REMARK  19 active torsions:
REMARK  status: ('A' for Active; 'I' for Inactive)
REMARK    1  A    between atoms: O_1  and  C_20
REMARK    2  A    between atoms: O_1  and  C_36
REMARK    3  A    between atoms: O_2  and  C_18
REMARK    4  A    between atoms: O_3  and  C_28
REMARK    5  A    between atoms: O_3  and  C_42
REMARK    6  A    between atoms: O_5  and  C_34
REMARK    7  A    between atoms: O_5  and  C_50
REMARK    8  A    between atoms: O_7  and  C_40
REMARK    9  A    between atoms: O_7  and  C_56
REMARK   10  A    between atoms: O_9  and  C_46
REMARK   11  A    between atoms: N_11  and  C_30
REMARK   12  A    between atoms: C_17  and  C_23
REMARK   13  A    between atoms: C_18  and  C_28
REMARK   14  A    between atoms: C_23  and  C_32
REMARK   15  A    between atoms: C_33  and  C_35
REMARK   16  A    between atoms: C_35  and  C_40
REMARK   17  A    between atoms: C_36  and  C_41
REMARK   18  A    between atoms: C_46  and  C_53
REMARK   19  A    between atoms: C_53  and  C_57
REMARK                            x       y       z     vdW  Elec       q    Type
REMARK                         _______ _______ _______ _____ _____    ______ ____
ROOT
ATOM      1  N   UNL     1      27.217  22.801   7.052  0.00  0.00    +0.000 NA
ATOM      2  N   UNL     1      27.769  27.313   8.506  0.00  0.00    +0.000 N 
ATOM      3  C   UNL     1      27.525  24.998   7.768  0.00  0.00    +0.000 C 
ATOM      4  C   UNL     1      28.296  23.797   7.193  0.00  0.00    +0.000 C 
ATOM      5  C   UNL     1      28.500  26.016   8.393  0.00  0.00    +0.000 C 
ATOM      6  C   UNL     1      29.572  23.377   8.059  0.00  0.00    +0.000 C 
ATOM      7  C   UNL     1      29.305  25.517   9.605  0.00  0.00    +0.000 C 
ATOM      8  C   UNL     1      26.399  24.380   8.620  0.00  0.00    +0.000 C 
ATOM      9  C   UNL     1      29.551  23.974   9.536  0.00  0.00    +0.000 C 
ATOM     10  C   UNL     1      26.859  25.963   6.806  0.00  0.00    +0.000 A 
ATOM     11  C   UNL     1      26.343  22.910   8.214  0.00  0.00    +0.000 C 
ATOM     12  C   UNL     1      26.982  27.264   7.314  0.00  0.00    +0.000 A 
ATOM     13  C   UNL     1      29.696  21.856   8.176  0.00  0.00    +0.000 C 
ATOM     14  C   UNL     1      27.670  21.446   6.774  0.00  0.00    +0.000 C 
ATOM     15  C   UNL     1      28.845  21.006   7.585  0.00  0.00    +0.000 C 
ATOM     16  C   UNL     1      26.166  25.693   5.631  0.00  0.00    +0.000 A 
ATOM     17  C   UNL     1      28.569  28.528   8.655  0.00  0.00    +0.000 C 
ATOM     18  C   UNL     1      26.367  28.313   6.658  0.00  0.00    +0.000 A 
ATOM     19  C   UNL     1      25.532  26.742   4.936  0.00  0.00    +0.000 A 
ATOM     20  C   UNL     1      25.641  28.054   5.484  0.00  0.00    +0.000 A 
ENDROOT
BRANCH  19  23
ATOM     21  N   UNL     1      22.455  25.149   0.185  0.00  0.00    +0.000 NA
ATOM     22  N   UNL     1      22.765  27.475   4.906  0.00  0.00    +0.000 N 
ATOM     23  C   UNL     1      24.709  26.489   3.610  0.00  0.00    +0.000 C 
ATOM     24  C   UNL     1      24.407  24.935   3.401  0.00  0.00    +0.000 C 
ATOM     25  C   UNL     1      23.325  27.221   3.665  0.00  0.00    +0.000 A 
ATOM     26  C   UNL     1      23.335  24.568   2.361  0.00  0.00    +0.000 C 
ATOM     27  C   UNL     1      22.970  23.085   2.309  0.00  0.00    +0.000 C 
ATOM     28  C   UNL     1      23.685  24.971   0.936  0.00  0.00    +0.000 C 
ATOM     29  C   UNL     1      22.378  27.645   2.716  0.00  0.00    +0.000 A 
ATOM     30  C   UNL     1      21.853  22.805   1.260  0.00  0.00    +0.000 C 
ATOM     31  C   UNL     1      21.685  23.888   0.117  0.00  0.00    +0.000 C 
ATOM     32  C   UNL     1      22.369  27.558   1.198  0.00  0.00    +0.000 C 
ATOM     33  C   UNL     1      21.635  26.303   0.637  0.00  0.00    +0.000 C 
ATOM     34  C   UNL     1      21.267  28.204   3.452  0.00  0.00    +0.000 A 
ATOM     35  C   UNL     1      21.544  28.082   4.805  0.00  0.00    +0.000 A 
ATOM     36  C   UNL     1      20.036  28.789   3.077  0.00  0.00    +0.000 A 
ATOM     37  C   UNL     1      20.671  28.517   5.810  0.00  0.00    +0.000 A 
ATOM     38  C   UNL     1      19.149  29.233   4.064  0.00  0.00    +0.000 A 
ATOM     39  C   UNL     1      19.464  29.098   5.412  0.00  0.00    +0.000 A 
ATOM     40  H   UNL     1      23.207  27.260   5.790  0.00  0.00    +0.000 HD
BRANCH  23  42
ATOM     41  O   UNL     1      25.525  28.102   1.875  0.00  0.00    +0.000 OA
ATOM     42  C   UNL     1      25.619  27.028   2.457  0.00  0.00    +0.000 C 
BRANCH  42  43
ATOM     43  O   UNL     1      26.611  26.117   2.179  0.00  0.00    +0.000 OA
ATOM     44  C   UNL     1      27.255  26.327   0.922  0.00  0.00    +0.000 C 
ENDBRANCH  42  43
ENDBRANCH  23  42
BRANCH  30  45
ATOM     45  O   UNL     1      22.235  21.562   0.619  0.00  0.00    +0.000 OA
ATOM     46  H   UNL     1      22.384  20.906   1.323  0.00  0.00    +0.000 HD
ENDBRANCH  30  45
BRANCH  30  47
ATOM     47  C   UNL     1      20.506  22.471   1.941  0.00  0.00    +0.000 C 
ATOM     48  C   UNL     1      19.597  23.646   2.260  0.00  0.00    +0.000 C 
ENDBRANCH  30  47
ENDBRANCH  19  23
BRANCH   7  49
ATOM     49  O   UNL     1      30.624  26.142   9.481  0.00  0.00    +0.000 OA
ATOM     50  H   UNL     1      30.930  26.309  10.396  0.00  0.00    +0.000 HD
ENDBRANCH   7  49
BRANCH   7  52
ATOM     51  O   UNL     1      27.491  25.972  11.239  0.00  0.00    +0.000 OA
ATOM     52  C   UNL     1      28.680  25.958  10.952  0.00  0.00    +0.000 C 
BRANCH  52  53
ATOM     53  O   UNL     1      29.679  26.269  11.844  0.00  0.00    +0.000 OA
ATOM     54  C   UNL     1      29.387  25.901  13.193  0.00  0.00    +0.000 C 
ENDBRANCH  52  53
ENDBRANCH   7  52
BRANCH  20  55
ATOM     55  O   UNL     1      25.057  29.078   4.782  0.00  0.00    +0.000 OA
ATOM     56  C   UNL     1      25.221  30.374   5.351  0.00  0.00    +0.000 C 
ENDBRANCH  20  55
BRANCH   6  57
ATOM     57  C   UNL     1      30.883  23.867   7.342  0.00  0.00    +0.000 C 
ATOM     58  C   UNL     1      30.735  24.330   5.891  0.00  0.00    +0.000 C 
ENDBRANCH   6  57
BRANCH   9  59
ATOM     59  O   UNL     1      28.578  23.232  10.310  0.00  0.00    +0.000 OA
BRANCH  59  61
ATOM     60  O   UNL     1      28.264  22.239  12.350  0.00  0.00    +0.000 OA
ATOM     61  C   UNL     1      29.000  22.692  11.484  0.00  0.00    +0.000 C 
ATOM     62  C   UNL     1      30.495  22.698  11.548  0.00  0.00    +0.000 C 
ENDBRANCH  59  61
ENDBRANCH   9  59
TORSDOF 12
ENDMDL
MODEL 8
REMARK VINA RESULT:      -5.4     13.179     20.180
REMARK  Name = 
REMARK  19 active torsions:
REMARK  status: ('A' for Active; 'I' for Inactive)
REMARK    1  A    between atoms: O_1  and  C_20
REMARK    2  A    between atoms: O_1  and  C_36
REMARK    3  A    between atoms: O_2  and  C_18
REMARK    4  A    between atoms: O_3  and  C_28
REMARK    5  A    between atoms: O_3  and  C_42
REMARK    6  A    between atoms: O_5  and  C_34
REMARK    7  A    between atoms: O_5  and  C_50
REMARK    8  A    between atoms: O_7  and  C_40
REMARK    9  A    between atoms: O_7  and  C_56
REMARK   10  A    between atoms: O_9  and  C_46
REMARK   11  A    between atoms: N_11  and  C_30
REMARK   12  A    between atoms: C_17  and  C_23
REMARK   13  A    between atoms: C_18  and  C_28
REMARK   14  A    between atoms: C_23  and  C_32
REMARK   15  A    between atoms: C_33  and  C_35
REMARK   16  A    between atoms: C_35  and  C_40
REMARK   17  A    between atoms: C_36  and  C_41
REMARK   18  A    between atoms: C_46  and  C_53
REMARK   19  A    between atoms: C_53  and  C_57
REMARK                            x       y       z     vdW  Elec       q    Type
REMARK                         _______ _______ _______ _____ _____    ______ ____
ROOT
ATOM      1  N   UNL     1       2.729  19.182  32.004  0.00  0.00    +0.000 NA
ATOM      2  N   UNL     1       4.834  23.251  30.666  0.00  0.00    +0.000 N 
ATOM      3  C   UNL     1       3.737  21.189  31.377  0.00  0.00    +0.000 C 
ATOM      4  C   UNL     1       3.017  20.518  32.560  0.00  0.00    +0.000 C 
ATOM      5  C   UNL     1       3.764  22.720  31.560  0.00  0.00    +0.000 C 
ATOM      6  C   UNL     1       1.780  21.359  33.121  0.00  0.00    +0.000 C 
ATOM      7  C   UNL     1       2.394  23.419  31.565  0.00  0.00    +0.000 C 
ATOM      8  C   UNL     1       3.100  20.571  30.118  0.00  0.00    +0.000 C 
ATOM      9  C   UNL     1       1.270  22.476  32.107  0.00  0.00    +0.000 C 
ATOM     10  C   UNL     1       5.236  21.004  31.239  0.00  0.00    +0.000 A 
ATOM     11  C   UNL     1       2.334  19.346  30.610  0.00  0.00    +0.000 C 
ATOM     12  C   UNL     1       5.797  22.201  30.772  0.00  0.00    +0.000 A 
ATOM     13  C   UNL     1       0.589  20.456  33.452  0.00  0.00    +0.000 C 
ATOM     14  C   UNL     1       1.808  18.378  32.793  0.00  0.00    +0.000 C 
ATOM     15  C   UNL     1       0.622  19.123  33.312  0.00  0.00    +0.000 C 
ATOM     16  C   UNL     1       6.004  19.864  31.453  0.00  0.00    +0.000 A 
ATOM     17  C   UNL     1       5.356  24.585  30.956  0.00  0.00    +0.000 C 
ATOM     18  C   UNL     1       7.145  22.251  30.475  0.00  0.00    +0.000 A 
ATOM     19  C   UNL     1       7.382  19.885  31.164  0.00  0.00    +0.000 A 
ATOM     20  C   UNL     1       7.930  21.101  30.660  0.00  0.00    +0.000 A 
ENDROOT
BRANCH  19  23
ATOM     21  N   UNL     1      11.068  15.306  31.310  0.00  0.00    +0.000 NA
ATOM     22  N   UNL     1       9.581  20.076  32.989  0.00  0.00    +0.000 N 
ATOM     23  C   UNL     1       8.298  18.611  31.364  0.00  0.00    +0.000 C 
ATOM     24  C   UNL     1       9.237  18.366  30.095  0.00  0.00    +0.000 C 
ATOM     25  C   UNL     1       9.240  18.791  32.603  0.00  0.00    +0.000 A 
ATOM     26  C   UNL     1      10.412  17.391  30.278  0.00  0.00    +0.000 C 
ATOM     27  C   UNL     1      11.370  17.310  29.090  0.00  0.00    +0.000 C 
ATOM     28  C   UNL     1       9.993  15.961  30.587  0.00  0.00    +0.000 C 
ATOM     29  C   UNL     1       9.964  17.927  33.444  0.00  0.00    +0.000 A 
ATOM     30  C   UNL     1      12.550  16.331  29.370  0.00  0.00    +0.000 C 
ATOM     31  C   UNL     1      12.301  15.244  30.494  0.00  0.00    +0.000 C 
ATOM     32  C   UNL     1      10.081  16.411  33.465  0.00  0.00    +0.000 C 
ATOM     33  C   UNL     1      11.302  15.857  32.670  0.00  0.00    +0.000 C 
ATOM     34  C   UNL     1      10.699  18.759  34.368  0.00  0.00    +0.000 A 
ATOM     35  C   UNL     1      10.435  20.084  34.056  0.00  0.00    +0.000 A 
ATOM     36  C   UNL     1      11.585  18.493  35.437  0.00  0.00    +0.000 A 
ATOM     37  C   UNL     1      10.994  21.163  34.752  0.00  0.00    +0.000 A 
ATOM     38  C   UNL     1      12.154  19.556  36.148  0.00  0.00    +0.000 A 
ATOM     39  C   UNL     1      11.861  20.872  35.809  0.00  0.00    +0.000 A 
ATOM     40  H   UNL     1       9.228  20.919  32.553  0.00  0.00    +0.000 HD
BRANCH  23  42
ATOM     41  O   UNL     1       6.957  16.602  30.699  0.00  0.00    +0.000 OA
ATOM     42  C   UNL     1       7.302  17.418  31.544  0.00  0.00    +0.000 C 
BRANCH  42  43
ATOM     43  O   UNL     1       6.857  17.373  32.845  0.00  0.00    +0.000 OA
ATOM     44  C   UNL     1       5.769  16.473  33.054  0.00  0.00    +0.000 C 
ENDBRANCH  42  43
ENDBRANCH  23  42
BRANCH  30  45
ATOM     45  O   UNL     1      12.759  15.620  28.125  0.00  0.00    +0.000 OA
ATOM     46  H   UNL     1      12.644  14.671  28.310  0.00  0.00    +0.000 HD
ENDBRANCH  30  45
BRANCH  30  47
ATOM     47  C   UNL     1      13.878  17.092  29.589  0.00  0.00    +0.000 C 
ATOM     48  C   UNL     1      14.168  17.558  31.005  0.00  0.00    +0.000 C 
ENDBRANCH  30  47
ENDBRANCH  19  23
BRANCH   7  49
ATOM     49  O   UNL     1       2.514  24.505  32.540  0.00  0.00    +0.000 OA
ATOM     50  H   UNL     1       2.635  25.324  32.018  0.00  0.00    +0.000 HD
ENDBRANCH   7  49
BRANCH   7  52
ATOM     51  O   UNL     1       2.083  23.475  29.102  0.00  0.00    +0.000 OA
ATOM     52  C   UNL     1       2.040  24.035  30.189  0.00  0.00    +0.000 C 
BRANCH  52  53
ATOM     53  O   UNL     1       1.578  25.318  30.363  0.00  0.00    +0.000 OA
ATOM     54  C   UNL     1       0.361  25.596  29.667  0.00  0.00    +0.000 C 
ENDBRANCH  52  53
ENDBRANCH   7  52
BRANCH  20  55
ATOM     55  O   UNL     1       9.281  21.129  30.419  0.00  0.00    +0.000 OA
ATOM     56  C   UNL     1       9.874  22.424  30.436  0.00  0.00    +0.000 C 
ENDBRANCH  20  55
BRANCH   6  57
ATOM     57  C   UNL     1       2.184  22.059  34.471  0.00  0.00    +0.000 C 
ATOM     58  C   UNL     1       3.490  21.592  35.117  0.00  0.00    +0.000 C 
ENDBRANCH   6  57
BRANCH   9  59
ATOM     59  O   UNL     1       0.548  21.820  31.037  0.00  0.00    +0.000 OA
BRANCH  59  61
ATOM     60  O   UNL     1      -1.354  21.995  29.771  0.00  0.00    +0.000 OA
ATOM     61  C   UNL     1      -0.716  22.253  30.783  0.00  0.00    +0.000 C 
ATOM     62  C   UNL     1      -1.226  23.063  31.934  0.00  0.00    +0.000 C 
ENDBRANCH  59  61
ENDBRANCH   9  59
TORSDOF 12
ENDMDL
MODEL 9
REMARK VINA RESULT:      -5.3     19.247     23.459
REMARK  Name = 
REMARK  19 active torsions:
REMARK  status: ('A' for Active; 'I' for Inactive)
REMARK    1  A    between atoms: O_1  and  C_20
REMARK    2  A    between atoms: O_1  and  C_36
REMARK    3  A    between atoms: O_2  and  C_18
REMARK    4  A    between atoms: O_3  and  C_28
REMARK    5  A    between atoms: O_3  and  C_42
REMARK    6  A    between atoms: O_5  and  C_34
REMARK    7  A    between atoms: O_5  and  C_50
REMARK    8  A    between atoms: O_7  and  C_40
REMARK    9  A    between atoms: O_7  and  C_56
REMARK   10  A    between atoms: O_9  and  C_46
REMARK   11  A    between atoms: N_11  and  C_30
REMARK   12  A    between atoms: C_17  and  C_23
REMARK   13  A    between atoms: C_18  and  C_28
REMARK   14  A    between atoms: C_23  and  C_32
REMARK   15  A    between atoms: C_33  and  C_35
REMARK   16  A    between atoms: C_35  and  C_40
REMARK   17  A    between atoms: C_36  and  C_41
REMARK   18  A    between atoms: C_46  and  C_53
REMARK   19  A    between atoms: C_53  and  C_57
REMARK                            x       y       z     vdW  Elec       q    Type
REMARK                         _______ _______ _______ _____ _____    ______ ____
ROOT
ATOM      1  N   UNL     1       0.391   8.628  22.455  0.00  0.00    +0.000 NA
ATOM      2  N   UNL     1       0.300  11.810  26.011  0.00  0.00    +0.000 N 
ATOM      3  C   UNL     1       0.309  10.190  24.184  0.00  0.00    +0.000 C 
ATOM      4  C   UNL     1      -0.598   9.293  23.324  0.00  0.00    +0.000 C 
ATOM      5  C   UNL     1      -0.519  11.290  24.877  0.00  0.00    +0.000 C 
ATOM      6  C   UNL     1      -1.789  10.082  22.607  0.00  0.00    +0.000 C 
ATOM      7  C   UNL     1      -1.208  12.300  23.943  0.00  0.00    +0.000 C 
ATOM      8  C   UNL     1       1.485  10.570  23.263  0.00  0.00    +0.000 C 
ATOM      9  C   UNL     1      -1.558  11.658  22.561  0.00  0.00    +0.000 C 
ATOM     10  C   UNL     1       0.919   9.610  25.446  0.00  0.00    +0.000 A 
ATOM     11  C   UNL     1       1.400   9.610  22.079  0.00  0.00    +0.000 C 
ATOM     12  C   UNL     1       0.939  10.603  26.435  0.00  0.00    +0.000 A 
ATOM     13  C   UNL     1      -1.995   9.602  21.168  0.00  0.00    +0.000 C 
ATOM     14  C   UNL     1      -0.177   7.898  21.332  0.00  0.00    +0.000 C 
ATOM     15  C   UNL     1      -1.275   8.615  20.616  0.00  0.00    +0.000 C 
ATOM     16  C   UNL     1       1.452   8.344  25.663  0.00  0.00    +0.000 A 
ATOM     17  C   UNL     1      -0.398  12.533  27.073  0.00  0.00    +0.000 C 
ATOM     18  C   UNL     1       1.538  10.342  27.652  0.00  0.00    +0.000 A 
ATOM     19  C   UNL     1       2.065   8.044  26.895  0.00  0.00    +0.000 A 
ATOM     20  C   UNL     1       2.105   9.076  27.878  0.00  0.00    +0.000 A 
ENDROOT
BRANCH  19  23
ATOM     21  N   UNL     1       4.404   2.665  27.313  0.00  0.00    +0.000 NA
ATOM     22  N   UNL     1       4.894   7.914  27.320  0.00  0.00    +0.000 N 
ATOM     23  C   UNL     1       2.710   6.630  27.186  0.00  0.00    +0.000 C 
ATOM     24  C   UNL     1       2.763   5.732  25.866  0.00  0.00    +0.000 C 
ATOM     25  C   UNL     1       4.185   6.785  27.693  0.00  0.00    +0.000 A 
ATOM     26  C   UNL     1       3.665   4.488  25.906  0.00  0.00    +0.000 C 
ATOM     27  C   UNL     1       3.804   3.751  24.575  0.00  0.00    +0.000 C 
ATOM     28  C   UNL     1       3.240   3.444  26.928  0.00  0.00    +0.000 C 
ATOM     29  C   UNL     1       5.087   5.978  28.410  0.00  0.00    +0.000 A 
ATOM     30  C   UNL     1       4.761   2.528  24.693  0.00  0.00    +0.000 C 
ATOM     31  C   UNL     1       4.973   1.948  26.151  0.00  0.00    +0.000 C 
ATOM     32  C   UNL     1       4.935   4.587  29.005  0.00  0.00    +0.000 C 
ATOM     33  C   UNL     1       5.422   3.439  28.070  0.00  0.00    +0.000 C 
ATOM     34  C   UNL     1       6.333   6.705  28.485  0.00  0.00    +0.000 A 
ATOM     35  C   UNL     1       6.174   7.900  27.800  0.00  0.00    +0.000 A 
ATOM     36  C   UNL     1       7.593   6.436  29.066  0.00  0.00    +0.000 A 
ATOM     37  C   UNL     1       7.194   8.850  27.666  0.00  0.00    +0.000 A 
ATOM     38  C   UNL     1       8.627   7.372  28.946  0.00  0.00    +0.000 A 
ATOM     39  C   UNL     1       8.428   8.562  28.255  0.00  0.00    +0.000 A 
ATOM     40  H   UNL     1       4.512   8.677  26.775  0.00  0.00    +0.000 HD
BRANCH  23  42
ATOM     41  O   UNL     1       2.004   5.836  29.454  0.00  0.00    +0.000 OA
ATOM     42  C   UNL     1       1.780   5.971  28.257  0.00  0.00    +0.000 C 
BRANCH  42  43
ATOM     43  O   UNL     1       0.604   5.566  27.671  0.00  0.00    +0.000 OA
ATOM     44  C   UNL     1      -0.484   5.434  28.585  0.00  0.00    +0.000 C 
ENDBRANCH  42  43
ENDBRANCH  23  42
BRANCH  30  45
ATOM     45  O   UNL     1       4.143   1.482  23.902  0.00  0.00    +0.000 OA
ATOM     46  H   UNL     1       4.512   1.542  23.002  0.00  0.00    +0.000 HD
ENDBRANCH  30  45
BRANCH  30  47
ATOM     47  C   UNL     1       6.107   2.788  23.976  0.00  0.00    +0.000 C 
ATOM     48  C   UNL     1       7.213   1.776  24.220  0.00  0.00    +0.000 C 
ENDBRANCH  30  47
ENDBRANCH  19  23
BRANCH   7  49
ATOM     49  O   UNL     1      -2.490  12.609  24.581  0.00  0.00    +0.000 OA
ATOM     50  H   UNL     1      -2.377  12.394  25.530  0.00  0.00    +0.000 HD
ENDBRANCH   7  49
BRANCH   7  52
ATOM     51  O   UNL     1       0.813  13.728  23.733  0.00  0.00    +0.000 OA
ATOM     52  C   UNL     1      -0.404  13.616  23.799  0.00  0.00    +0.000 C 
BRANCH  52  53
ATOM     53  O   UNL     1      -1.271  14.674  23.671  0.00  0.00    +0.000 OA
ATOM     54  C   UNL     1      -0.715  15.800  22.990  0.00  0.00    +0.000 C 
ENDBRANCH  52  53
ENDBRANCH   7  52
BRANCH  20  55
ATOM     55  O   UNL     1       2.667   8.767  29.090  0.00  0.00    +0.000 OA
ATOM     56  C   UNL     1       2.947   9.883  29.932  0.00  0.00    +0.000 C 
ENDBRANCH  20  55
BRANCH   6  57
ATOM     57  C   UNL     1      -3.141   9.798  23.359  0.00  0.00    +0.000 C 
ATOM     58  C   UNL     1      -4.419  10.280  22.671  0.00  0.00    +0.000 C 
ENDBRANCH   6  57
BRANCH   9  59
ATOM     59  O   UNL     1      -0.551  11.938  21.560  0.00  0.00    +0.000 OA
BRANCH  59  61
ATOM     60  O   UNL     1      -0.020  13.452  19.924  0.00  0.00    +0.000 OA
ATOM     61  C   UNL     1      -0.843  12.890  20.633  0.00  0.00    +0.000 C 
ATOM     62  C   UNL     1      -2.321  13.125  20.583  0.00  0.00    +0.000 C 
ENDBRANCH  59  61
ENDBRANCH   9  59
TORSDOF 12
ENDMDL
