MODEL 1
REMARK VINA RESULT:      -4.5      0.000      0.000
REMARK  Name = Vorinostat.pdbqt.pdb
REMARK  6 active torsions:
REMARK  status: ('A' for Active; 'I' for Inactive)
REMARK    1  A    between atoms: C_1  and  C_2
REMARK    2  A    between atoms: C_3  and  C_4
REMARK    3  A    between atoms: C_5  and  C_8
REMARK    4  A    between atoms: N_7  and  O_10
REMARK    5  A    between atoms: C_12  and  C_15
REMARK    6  A    between atoms: N_14  and  C_17
REMARK                            x       y       z     vdW  Elec       q    Type
REMARK                         _______ _______ _______ _____ _____    ______ ____
ROOT
ATOM      1  C   UNL     1      29.494  19.153  14.846  0.00  0.00    +0.000 C 
ATOM      2  C   UNL     1      29.618  17.628  14.916  0.00  0.00    +0.000 C 
ENDROOT
BRANCH   2   5
ATOM      3  O   UNL     1      30.585  15.645  14.292  0.00  0.00    +0.000 OA
ATOM      4  N   UNL     1      28.848  15.593  15.846  0.00  0.00    +0.000 N 
ATOM      5  C   UNL     1      29.737  16.190  14.982  0.00  0.00    +0.000 C 
ATOM      6  H   UNL     1      28.207  16.198  16.344  0.00  0.00    +0.000 HD
BRANCH   4   7
ATOM      7  C   UNL     1      28.751  14.214  16.097  0.00  0.00    +0.000 A 
ATOM      8  C   UNL     1      29.225  13.740  17.321  0.00  0.00    +0.000 A 
ATOM      9  C   UNL     1      28.206  13.315  15.181  0.00  0.00    +0.000 A 
ATOM     10  C   UNL     1      29.156  12.382  17.625  0.00  0.00    +0.000 A 
ATOM     11  C   UNL     1      28.135  11.956  15.483  0.00  0.00    +0.000 A 
ATOM     12  C   UNL     1      28.610  11.490  16.706  0.00  0.00    +0.000 A 
ENDBRANCH   4   7
ENDBRANCH   2   5
BRANCH   1  13
ATOM     13  C   UNL     1      29.371  20.678  14.778  0.00  0.00    +0.000 C 
ATOM     14  C   UNL     1      29.247  22.203  14.710  0.00  0.00    +0.000 C 
BRANCH  14  15
ATOM     15  C   UNL     1      29.123  23.728  14.642  0.00  0.00    +0.000 C 
ATOM     16  C   UNL     1      28.999  25.253  14.573  0.00  0.00    +0.000 C 
BRANCH  16  19
ATOM     17  O   UNL     1      29.150  27.283  13.470  0.00  0.00    +0.000 OA
ATOM     18  N   UNL     1      28.459  27.304  15.648  0.00  0.00    +0.000 N 
ATOM     19  C   UNL     1      28.883  26.685  14.506  0.00  0.00    +0.000 C 
ATOM     20  H   UNL     1      28.196  26.824  16.500  0.00  0.00    +0.000 HD
BRANCH  18  21
ATOM     21  O   UNL     1      28.301  28.707  15.612  0.00  0.00    +0.000 OA
ATOM     22  H   UNL     1      28.189  28.936  16.561  0.00  0.00    +0.000 HD
ENDBRANCH  18  21
ENDBRANCH  16  19
ENDBRANCH  14  15
ENDBRANCH   1  13
TORSDOF 6
ENDMDL
MODEL 2
REMARK VINA RESULT:      -4.4     25.908     27.011
REMARK  Name = Vorinostat.pdbqt.pdb
REMARK  6 active torsions:
REMARK  status: ('A' for Active; 'I' for Inactive)
REMARK    1  A    between atoms: C_1  and  C_2
REMARK    2  A    between atoms: C_3  and  C_4
REMARK    3  A    between atoms: C_5  and  C_8
REMARK    4  A    between atoms: N_7  and  O_10
REMARK    5  A    between atoms: C_12  and  C_15
REMARK    6  A    between atoms: N_14  and  C_17
REMARK                            x       y       z     vdW  Elec       q    Type
REMARK                         _______ _______ _______ _____ _____    ______ ____
ROOT
ATOM      1  C   UNL     1       4.975  13.543   5.343  0.00  0.00    +0.000 C 
ATOM      2  C   UNL     1       5.894  12.800   4.369  0.00  0.00    +0.000 C 
ENDROOT
BRANCH   2   5
ATOM      3  O   UNL     1       6.591  12.261   2.253  0.00  0.00    +0.000 OA
ATOM      4  N   UNL     1       7.709  11.312   4.065  0.00  0.00    +0.000 N 
ATOM      5  C   UNL     1       6.763  12.100   3.451  0.00  0.00    +0.000 C 
ATOM      6  H   UNL     1       7.711  11.292   5.078  0.00  0.00    +0.000 HD
BRANCH   4   7
ATOM      7  C   UNL     1       8.673  10.529   3.408  0.00  0.00    +0.000 A 
ATOM      8  C   UNL     1       9.956  11.059   3.267  0.00  0.00    +0.000 A 
ATOM      9  C   UNL     1       8.398   9.260   2.900  0.00  0.00    +0.000 A 
ATOM     10  C   UNL     1      10.954  10.329   2.625  0.00  0.00    +0.000 A 
ATOM     11  C   UNL     1       9.395   8.527   2.257  0.00  0.00    +0.000 A 
ATOM     12  C   UNL     1      10.673   9.062   2.120  0.00  0.00    +0.000 A 
ENDBRANCH   4   7
ENDBRANCH   2   5
BRANCH   1  13
ATOM     13  C   UNL     1       4.057  14.284   6.319  0.00  0.00    +0.000 C 
ATOM     14  C   UNL     1       3.139  15.027   7.295  0.00  0.00    +0.000 C 
BRANCH  14  15
ATOM     15  C   UNL     1       2.222  15.768   8.272  0.00  0.00    +0.000 C 
ATOM     16  C   UNL     1       1.305  16.510   9.249  0.00  0.00    +0.000 C 
BRANCH  16  19
ATOM     17  O   UNL     1       0.806  17.421  11.318  0.00  0.00    +0.000 OA
ATOM     18  N   UNL     1      -0.763  17.607   9.668  0.00  0.00    +0.000 N 
ATOM     19  C   UNL     1       0.445  17.208  10.167  0.00  0.00    +0.000 C 
ATOM     20  H   UNL     1      -1.062  17.476   8.710  0.00  0.00    +0.000 HD
BRANCH  18  21
ATOM     21  O   UNL     1      -1.622  18.325  10.529  0.00  0.00    +0.000 OA
ATOM     22  H   UNL     1      -1.301  18.064  11.420  0.00  0.00    +0.000 HD
ENDBRANCH  18  21
ENDBRANCH  16  19
ENDBRANCH  14  15
ENDBRANCH   1  13
TORSDOF 6
ENDMDL
MODEL 3
REMARK VINA RESULT:      -4.3     22.027     23.300
REMARK  Name = Vorinostat.pdbqt.pdb
REMARK  6 active torsions:
REMARK  status: ('A' for Active; 'I' for Inactive)
REMARK    1  A    between atoms: C_1  and  C_2
REMARK    2  A    between atoms: C_3  and  C_4
REMARK    3  A    between atoms: C_5  and  C_8
REMARK    4  A    between atoms: N_7  and  O_10
REMARK    5  A    between atoms: C_12  and  C_15
REMARK    6  A    between atoms: N_14  and  C_17
REMARK                            x       y       z     vdW  Elec       q    Type
REMARK                         _______ _______ _______ _____ _____    ______ ____
ROOT
ATOM      1  C   UNL     1      19.534  -0.358  19.373  0.00  0.00    +0.000 C 
ATOM      2  C   UNL     1      19.557  -0.166  20.892  0.00  0.00    +0.000 C 
ENDROOT
BRANCH   2   5
ATOM      3  O   UNL     1      19.190  -0.903  23.032  0.00  0.00    +0.000 OA
ATOM      4  N   UNL     1      20.050   1.242  22.729  0.00  0.00    +0.000 N 
ATOM      5  C   UNL     1      19.578   0.014  22.325  0.00  0.00    +0.000 C 
ATOM      6  H   UNL     1      20.332   1.892  22.005  0.00  0.00    +0.000 HD
BRANCH   4   7
ATOM      7  C   UNL     1      20.174   1.674  24.061  0.00  0.00    +0.000 A 
ATOM      8  C   UNL     1      21.461   1.821  24.580  0.00  0.00    +0.000 A 
ATOM      9  C   UNL     1      19.074   1.958  24.869  0.00  0.00    +0.000 A 
ATOM     10  C   UNL     1      21.646   2.245  25.894  0.00  0.00    +0.000 A 
ATOM     11  C   UNL     1      19.257   2.384  26.183  0.00  0.00    +0.000 A 
ATOM     12  C   UNL     1      20.543   2.528  26.696  0.00  0.00    +0.000 A 
ENDBRANCH   4   7
ENDBRANCH   2   5
BRANCH   1  13
ATOM     13  C   UNL     1      19.511  -0.552  17.854  0.00  0.00    +0.000 C 
ATOM     14  C   UNL     1      19.487  -0.745  16.335  0.00  0.00    +0.000 C 
BRANCH  14  15
ATOM     15  C   UNL     1      19.463  -0.939  14.816  0.00  0.00    +0.000 C 
ATOM     16  C   UNL     1      19.439  -1.132  13.297  0.00  0.00    +0.000 C 
BRANCH  16  19
ATOM     17  O   UNL     1      19.559  -0.353  11.120  0.00  0.00    +0.000 OA
ATOM     18  N   UNL     1      19.242  -2.594  11.432  0.00  0.00    +0.000 N 
ATOM     19  C   UNL     1      19.419  -1.311  11.870  0.00  0.00    +0.000 C 
ATOM     20  H   UNL     1      19.164  -3.403  12.035  0.00  0.00    +0.000 HD
BRANCH  18  21
ATOM     21  O   UNL     1      19.248  -2.816  10.037  0.00  0.00    +0.000 OA
ATOM     22  H   UNL     1      19.185  -3.795   9.974  0.00  0.00    +0.000 HD
ENDBRANCH  18  21
ENDBRANCH  16  19
ENDBRANCH  14  15
ENDBRANCH   1  13
TORSDOF 6
ENDMDL
MODEL 4
REMARK VINA RESULT:      -4.3     26.114     28.072
REMARK  Name = Vorinostat.pdbqt.pdb
REMARK  6 active torsions:
REMARK  status: ('A' for Active; 'I' for Inactive)
REMARK    1  A    between atoms: C_1  and  C_2
REMARK    2  A    between atoms: C_3  and  C_4
REMARK    3  A    between atoms: C_5  and  C_8
REMARK    4  A    between atoms: N_7  and  O_10
REMARK    5  A    between atoms: C_12  and  C_15
REMARK    6  A    between atoms: N_14  and  C_17
REMARK                            x       y       z     vdW  Elec       q    Type
REMARK                         _______ _______ _______ _____ _____    ______ ____
ROOT
ATOM      1  C   UNL     1       5.466  14.800   3.967  0.00  0.00    +0.000 C 
ATOM      2  C   UNL     1       6.050  15.508   2.741  0.00  0.00    +0.000 C 
ENDROOT
BRANCH   2   5
ATOM      3  O   UNL     1       6.404  15.692   0.483  0.00  0.00    +0.000 OA
ATOM      4  N   UNL     1       7.308  17.320   1.885  0.00  0.00    +0.000 N 
ATOM      5  C   UNL     1       6.602  16.177   1.586  0.00  0.00    +0.000 C 
ATOM      6  H   UNL     1       7.376  17.583   2.860  0.00  0.00    +0.000 HD
BRANCH   4   7
ATOM      7  C   UNL     1       7.945  18.157   0.951  0.00  0.00    +0.000 A 
ATOM      8  C   UNL     1       7.201  19.201   0.400  0.00  0.00    +0.000 A 
ATOM      9  C   UNL     1       9.273  17.983   0.564  0.00  0.00    +0.000 A 
ATOM     10  C   UNL     1       7.779  20.062  -0.531  0.00  0.00    +0.000 A 
ATOM     11  C   UNL     1       9.853  18.844  -0.366  0.00  0.00    +0.000 A 
ATOM     12  C   UNL     1       9.106  19.884  -0.913  0.00  0.00    +0.000 A 
ENDBRANCH   4   7
ENDBRANCH   2   5
BRANCH   1  13
ATOM     13  C   UNL     1       4.884  14.090   5.192  0.00  0.00    +0.000 C 
ATOM     14  C   UNL     1       4.302  13.378   6.418  0.00  0.00    +0.000 C 
BRANCH  14  15
ATOM     15  C   UNL     1       3.720  12.667   7.642  0.00  0.00    +0.000 C 
ATOM     16  C   UNL     1       3.138  11.956   8.868  0.00  0.00    +0.000 C 
BRANCH  16  19
ATOM     17  O   UNL     1       1.562  10.633   9.929  0.00  0.00    +0.000 OA
ATOM     18  N   UNL     1       3.294  11.439  11.184  0.00  0.00    +0.000 N 
ATOM     19  C   UNL     1       2.592  11.290  10.020  0.00  0.00    +0.000 C 
ATOM     20  H   UNL     1       4.167  11.945  11.269  0.00  0.00    +0.000 HD
BRANCH  18  21
ATOM     21  O   UNL     1       2.808  10.773  12.331  0.00  0.00    +0.000 OA
ATOM     22  H   UNL     1       3.623  10.639  12.863  0.00  0.00    +0.000 HD
ENDBRANCH  18  21
ENDBRANCH  16  19
ENDBRANCH  14  15
ENDBRANCH   1  13
TORSDOF 6
ENDMDL
MODEL 5
REMARK VINA RESULT:      -4.0     23.023     26.380
REMARK  Name = Vorinostat.pdbqt.pdb
REMARK  6 active torsions:
REMARK  status: ('A' for Active; 'I' for Inactive)
REMARK    1  A    between atoms: C_1  and  C_2
REMARK    2  A    between atoms: C_3  and  C_4
REMARK    3  A    between atoms: C_5  and  C_8
REMARK    4  A    between atoms: N_7  and  O_10
REMARK    5  A    between atoms: C_12  and  C_15
REMARK    6  A    between atoms: N_14  and  C_17
REMARK                            x       y       z     vdW  Elec       q    Type
REMARK                         _______ _______ _______ _____ _____    ______ ____
ROOT
ATOM      1  C   UNL     1      16.433  -3.111  18.494  0.00  0.00    +0.000 C 
ATOM      2  C   UNL     1      15.663  -3.495  19.761  0.00  0.00    +0.000 C 
ENDROOT
BRANCH   2   5
ATOM      3  O   UNL     1      14.137  -4.779  20.892  0.00  0.00    +0.000 OA
ATOM      4  N   UNL     1      15.251  -3.095  22.056  0.00  0.00    +0.000 N 
ATOM      5  C   UNL     1      14.937  -3.859  20.956  0.00  0.00    +0.000 C 
ATOM      6  H   UNL     1      15.943  -2.366  21.934  0.00  0.00    +0.000 HD
BRANCH   4   7
ATOM      7  C   UNL     1      14.693  -3.238  23.338  0.00  0.00    +0.000 A 
ATOM      8  C   UNL     1      15.469  -3.857  24.320  0.00  0.00    +0.000 A 
ATOM      9  C   UNL     1      13.413  -2.791  23.660  0.00  0.00    +0.000 A 
ATOM     10  C   UNL     1      14.969  -4.027  25.609  0.00  0.00    +0.000 A 
ATOM     11  C   UNL     1      12.911  -2.959  24.949  0.00  0.00    +0.000 A 
ATOM     12  C   UNL     1      13.689  -3.577  25.924  0.00  0.00    +0.000 A 
ENDBRANCH   4   7
ENDBRANCH   2   5
BRANCH   1  13
ATOM     13  C   UNL     1      17.205  -2.727  17.229  0.00  0.00    +0.000 C 
ATOM     14  C   UNL     1      17.977  -2.341  15.963  0.00  0.00    +0.000 C 
BRANCH  14  15
ATOM     15  C   UNL     1      18.748  -1.956  14.698  0.00  0.00    +0.000 C 
ATOM     16  C   UNL     1      19.520  -1.569  13.432  0.00  0.00    +0.000 C 
BRANCH  16  19
ATOM     17  O   UNL     1      21.100  -0.328  12.283  0.00  0.00    +0.000 OA
ATOM     18  N   UNL     1      19.921  -1.896  11.111  0.00  0.00    +0.000 N 
ATOM     19  C   UNL     1      20.246  -1.205  12.245  0.00  0.00    +0.000 C 
ATOM     20  H   UNL     1      19.248  -2.651  11.069  0.00  0.00    +0.000 HD
BRANCH  18  21
ATOM     21  O   UNL     1      20.635  -1.591   9.932  0.00  0.00    +0.000 OA
ATOM     22  H   UNL     1      20.690  -0.610   9.960  0.00  0.00    +0.000 HD
ENDBRANCH  18  21
ENDBRANCH  16  19
ENDBRANCH  14  15
ENDBRANCH   1  13
TORSDOF 6
ENDMDL
MODEL 6
REMARK VINA RESULT:      -4.0     22.662     23.304
REMARK  Name = Vorinostat.pdbqt.pdb
REMARK  6 active torsions:
REMARK  status: ('A' for Active; 'I' for Inactive)
REMARK    1  A    between atoms: C_1  and  C_2
REMARK    2  A    between atoms: C_3  and  C_4
REMARK    3  A    between atoms: C_5  and  C_8
REMARK    4  A    between atoms: N_7  and  O_10
REMARK    5  A    between atoms: C_12  and  C_15
REMARK    6  A    between atoms: N_14  and  C_17
REMARK                            x       y       z     vdW  Elec       q    Type
REMARK                         _______ _______ _______ _____ _____    ______ ____
ROOT
ATOM      1  C   UNL     1      11.779  18.407   1.286  0.00  0.00    +0.000 C 
ATOM      2  C   UNL     1      10.366  17.887   1.008  0.00  0.00    +0.000 C 
ENDROOT
BRANCH   2   5
ATOM      3  O   UNL     1       8.863  16.669  -0.223  0.00  0.00    +0.000 OA
ATOM      4  N   UNL     1       8.090  17.819   1.651  0.00  0.00    +0.000 N 
ATOM      5  C   UNL     1       9.033  17.394   0.745  0.00  0.00    +0.000 C 
ATOM      6  H   UNL     1       8.404  18.423   2.401  0.00  0.00    +0.000 HD
BRANCH   4   7
ATOM      7  C   UNL     1       6.724  17.488   1.627  0.00  0.00    +0.000 A 
ATOM      8  C   UNL     1       5.832  18.440   1.130  0.00  0.00    +0.000 A 
ATOM      9  C   UNL     1       6.235  16.262   2.075  0.00  0.00    +0.000 A 
ATOM     10  C   UNL     1       4.467  18.169   1.081  0.00  0.00    +0.000 A 
ATOM     11  C   UNL     1       4.869  15.988   2.027  0.00  0.00    +0.000 A 
ATOM     12  C   UNL     1       3.985  16.942   1.530  0.00  0.00    +0.000 A 
ENDBRANCH   4   7
ENDBRANCH   2   5
BRANCH   1  13
ATOM     13  C   UNL     1      13.192  18.927   1.565  0.00  0.00    +0.000 C 
ATOM     14  C   UNL     1      14.606  19.446   1.843  0.00  0.00    +0.000 C 
BRANCH  14  15
ATOM     15  C   UNL     1      16.020  19.964   2.120  0.00  0.00    +0.000 C 
ATOM     16  C   UNL     1      17.435  20.482   2.398  0.00  0.00    +0.000 C 
BRANCH  16  19
ATOM     17  O   UNL     1      18.936  22.065   3.170  0.00  0.00    +0.000 OA
ATOM     18  N   UNL     1      19.785  20.129   2.302  0.00  0.00    +0.000 N 
ATOM     19  C   UNL     1      18.764  20.966   2.656  0.00  0.00    +0.000 C 
ATOM     20  H   UNL     1      19.661  19.202   1.914  0.00  0.00    +0.000 HD
BRANCH  18  21
ATOM     21  O   UNL     1      21.104  20.555   2.570  0.00  0.00    +0.000 OA
ATOM     22  H   UNL     1      21.644  19.941   2.026  0.00  0.00    +0.000 HD
ENDBRANCH  18  21
ENDBRANCH  16  19
ENDBRANCH  14  15
ENDBRANCH   1  13
TORSDOF 6
ENDMDL
MODEL 7
REMARK VINA RESULT:      -4.0     22.955     24.516
REMARK  Name = Vorinostat.pdbqt.pdb
REMARK  6 active torsions:
REMARK  status: ('A' for Active; 'I' for Inactive)
REMARK    1  A    between atoms: C_1  and  C_2
REMARK    2  A    between atoms: C_3  and  C_4
REMARK    3  A    between atoms: C_5  and  C_8
REMARK    4  A    between atoms: N_7  and  O_10
REMARK    5  A    between atoms: C_12  and  C_15
REMARK    6  A    between atoms: N_14  and  C_17
REMARK                            x       y       z     vdW  Elec       q    Type
REMARK                         _______ _______ _______ _____ _____    ______ ____
ROOT
ATOM      1  C   UNL     1      10.344  14.878   2.335  0.00  0.00    +0.000 C 
ATOM      2  C   UNL     1       8.828  14.898   2.120  0.00  0.00    +0.000 C 
ENDROOT
BRANCH   2   5
ATOM      3  O   UNL     1       6.905  14.087   1.172  0.00  0.00    +0.000 OA
ATOM      4  N   UNL     1       6.747  15.910   2.616  0.00  0.00    +0.000 N 
ATOM      5  C   UNL     1       7.398  14.919   1.917  0.00  0.00    +0.000 C 
ATOM      6  H   UNL     1       7.314  16.520   3.194  0.00  0.00    +0.000 HD
BRANCH   4   7
ATOM      7  C   UNL     1       5.363  16.151   2.598  0.00  0.00    +0.000 A 
ATOM      8  C   UNL     1       4.875  17.070   1.668  0.00  0.00    +0.000 A 
ATOM      9  C   UNL     1       4.473  15.513   3.461  0.00  0.00    +0.000 A 
ATOM     10  C   UNL     1       3.511  17.350   1.603  0.00  0.00    +0.000 A 
ATOM     11  C   UNL     1       3.108  15.791   3.398  0.00  0.00    +0.000 A 
ATOM     12  C   UNL     1       2.628  16.710   2.468  0.00  0.00    +0.000 A 
ENDBRANCH   4   7
ENDBRANCH   2   5
BRANCH   1  13
ATOM     13  C   UNL     1      11.860  14.859   2.549  0.00  0.00    +0.000 C 
ATOM     14  C   UNL     1      13.377  14.838   2.763  0.00  0.00    +0.000 C 
BRANCH  14  15
ATOM     15  C   UNL     1      14.893  14.818   2.977  0.00  0.00    +0.000 C 
ATOM     16  C   UNL     1      16.410  14.796   3.192  0.00  0.00    +0.000 C 
BRANCH  16  19
ATOM     17  O   UNL     1      18.470  13.741   3.220  0.00  0.00    +0.000 OA
ATOM     18  N   UNL     1      18.402  15.957   3.771  0.00  0.00    +0.000 N 
ATOM     19  C   UNL     1      17.834  14.773   3.392  0.00  0.00    +0.000 C 
ATOM     20  H   UNL     1      17.899  16.829   3.879  0.00  0.00    +0.000 HD
BRANCH  18  21
ATOM     21  O   UNL     1      19.803  15.984   3.947  0.00  0.00    +0.000 OA
ATOM     22  H   UNL     1      20.040  16.892   3.656  0.00  0.00    +0.000 HD
ENDBRANCH  18  21
ENDBRANCH  16  19
ENDBRANCH  14  15
ENDBRANCH   1  13
TORSDOF 6
ENDMDL
MODEL 8
REMARK VINA RESULT:      -4.0     29.726     30.275
REMARK  Name = Vorinostat.pdbqt.pdb
REMARK  6 active torsions:
REMARK  status: ('A' for Active; 'I' for Inactive)
REMARK    1  A    between atoms: C_1  and  C_2
REMARK    2  A    between atoms: C_3  and  C_4
REMARK    3  A    between atoms: C_5  and  C_8
REMARK    4  A    between atoms: N_7  and  O_10
REMARK    5  A    between atoms: C_12  and  C_15
REMARK    6  A    between atoms: N_14  and  C_17
REMARK                            x       y       z     vdW  Elec       q    Type
REMARK                         _______ _______ _______ _____ _____    ______ ____
ROOT
ATOM      1  C   UNL     1       4.183   3.549  23.737  0.00  0.00    +0.000 C 
ATOM      2  C   UNL     1       4.243   2.300  22.852  0.00  0.00    +0.000 C 
ENDROOT
BRANCH   2   5
ATOM      3  O   UNL     1       3.480   0.237  22.207  0.00  0.00    +0.000 OA
ATOM      4  N   UNL     1       5.309   1.145  21.083  0.00  0.00    +0.000 N 
ATOM      5  C   UNL     1       4.300   1.122  22.019  0.00  0.00    +0.000 C 
ATOM      6  H   UNL     1       5.905   1.964  21.063  0.00  0.00    +0.000 HD
BRANCH   4   7
ATOM      7  C   UNL     1       5.585   0.130  20.151  0.00  0.00    +0.000 A 
ATOM      8  C   UNL     1       6.521  -0.842  20.506  0.00  0.00    +0.000 A 
ATOM      9  C   UNL     1       4.965   0.060  18.904  0.00  0.00    +0.000 A 
ATOM     10  C   UNL     1       6.836  -1.872  19.623  0.00  0.00    +0.000 A 
ATOM     11  C   UNL     1       5.278  -0.971  18.019  0.00  0.00    +0.000 A 
ATOM     12  C   UNL     1       6.213  -1.937  18.379  0.00  0.00    +0.000 A 
ENDBRANCH   4   7
ENDBRANCH   2   5
BRANCH   1  13
ATOM     13  C   UNL     1       4.122   4.796  24.623  0.00  0.00    +0.000 C 
ATOM     14  C   UNL     1       4.060   6.044  25.510  0.00  0.00    +0.000 C 
BRANCH  14  15
ATOM     15  C   UNL     1       3.998   7.290  26.396  0.00  0.00    +0.000 C 
ATOM     16  C   UNL     1       3.935   8.539  27.282  0.00  0.00    +0.000 C 
BRANCH  16  19
ATOM     17  O   UNL     1       3.816   9.608  29.332  0.00  0.00    +0.000 OA
ATOM     18  N   UNL     1       3.895  10.910  27.456  0.00  0.00    +0.000 N 
ATOM     19  C   UNL     1       3.875   9.712  28.113  0.00  0.00    +0.000 C 
ATOM     20  H   UNL     1       3.984  11.016  26.453  0.00  0.00    +0.000 HD
BRANCH  18  21
ATOM     21  O   UNL     1       3.871  12.086  28.238  0.00  0.00    +0.000 OA
ATOM     22  H   UNL     1       4.746  12.066  28.683  0.00  0.00    +0.000 HD
ENDBRANCH  18  21
ENDBRANCH  16  19
ENDBRANCH  14  15
ENDBRANCH   1  13
TORSDOF 6
ENDMDL
MODEL 9
REMARK VINA RESULT:      -4.0     30.212     31.652
REMARK  Name = Vorinostat.pdbqt.pdb
REMARK  6 active torsions:
REMARK  status: ('A' for Active; 'I' for Inactive)
REMARK    1  A    between atoms: C_1  and  C_2
REMARK    2  A    between atoms: C_3  and  C_4
REMARK    3  A    between atoms: C_5  and  C_8
REMARK    4  A    between atoms: N_7  and  O_10
REMARK    5  A    between atoms: C_12  and  C_15
REMARK    6  A    between atoms: N_14  and  C_17
REMARK                            x       y       z     vdW  Elec       q    Type
REMARK                         _______ _______ _______ _____ _____    ______ ____
ROOT
ATOM      1  C   UNL     1       4.966   0.496  19.068  0.00  0.00    +0.000 C 
ATOM      2  C   UNL     1       4.945   0.982  20.521  0.00  0.00    +0.000 C 
ENDROOT
BRANCH   2   5
ATOM      3  O   UNL     1       3.912   1.974  22.311  0.00  0.00    +0.000 OA
ATOM      4  N   UNL     1       6.098   1.208  22.574  0.00  0.00    +0.000 N 
ATOM      5  C   UNL     1       4.927   1.440  21.890  0.00  0.00    +0.000 C 
ATOM      6  H   UNL     1       6.848   0.751  22.070  0.00  0.00    +0.000 HD
BRANCH   4   7
ATOM      7  C   UNL     1       6.346   1.553  23.914  0.00  0.00    +0.000 A 
ATOM      8  C   UNL     1       6.404   0.521  24.852  0.00  0.00    +0.000 A 
ATOM      9  C   UNL     1       6.534   2.869  24.333  0.00  0.00    +0.000 A 
ATOM     10  C   UNL     1       6.647   0.802  26.194  0.00  0.00    +0.000 A 
ATOM     11  C   UNL     1       6.777   3.153  25.676  0.00  0.00    +0.000 A 
ATOM     12  C   UNL     1       6.833   2.119  26.606  0.00  0.00    +0.000 A 
ENDBRANCH   4   7
ENDBRANCH   2   5
BRANCH   1  13
ATOM     13  C   UNL     1       4.988   0.012  17.616  0.00  0.00    +0.000 C 
ATOM     14  C   UNL     1       5.009  -0.473  16.163  0.00  0.00    +0.000 C 
BRANCH  14  15
ATOM     15  C   UNL     1       5.030  -0.958  14.711  0.00  0.00    +0.000 C 
ATOM     16  C   UNL     1       5.050  -1.444  13.258  0.00  0.00    +0.000 C 
BRANCH  16  19
ATOM     17  O   UNL     1       5.483  -3.019  11.618  0.00  0.00    +0.000 OA
ATOM     18  N   UNL     1       4.591  -1.020  10.964  0.00  0.00    +0.000 N 
ATOM     19  C   UNL     1       5.066  -1.901  11.894  0.00  0.00    +0.000 C 
ATOM     20  H   UNL     1       4.205  -0.109  11.178  0.00  0.00    +0.000 HD
BRANCH  18  21
ATOM     21  O   UNL     1       4.560  -1.444   9.617  0.00  0.00    +0.000 OA
ATOM     22  H   UNL     1       5.502  -1.380   9.349  0.00  0.00    +0.000 HD
ENDBRANCH  18  21
ENDBRANCH  16  19
ENDBRANCH  14  15
ENDBRANCH   1  13
TORSDOF 6
ENDMDL
