MODEL 1
REMARK VINA RESULT:      -8.1      0.000      0.000
REMARK  Name = 10074640_Masitinib.pdbqt.pdb
REMARK  6 active torsions:
REMARK  status: ('A' for Active; 'I' for Inactive)
REMARK    1  A    between atoms: C_1  and  N_22
REMARK    2  A    between atoms: C_2  and  N_9
REMARK    3  A    between atoms: C_12  and  C_16
REMARK    4  A    between atoms: C_23  and  C_30
REMARK    5  A    between atoms: C_25  and  C_31
REMARK    6  A    between atoms: C_31  and  N_32
REMARK                            x       y       z     vdW  Elec       q    Type
REMARK                         _______ _______ _______ _____ _____    ______ ____
ROOT
ATOM      1  C   UNL     1      47.925 -41.102  49.795  0.00  0.00    +0.000 A 
ATOM      2  C   UNL     1      47.707 -43.527  50.062  0.00  0.00    +0.000 A 
ATOM      3  C   UNL     1      47.774 -42.382  49.257  0.00  0.00    +0.000 A 
ATOM      4  C   UNL     1      47.797 -43.339  51.455  0.00  0.00    +0.000 A 
ATOM      5  C   UNL     1      48.035 -40.954  51.175  0.00  0.00    +0.000 A 
ATOM      6  C   UNL     1      47.962 -42.068  52.006  0.00  0.00    +0.000 A 
ATOM      7  C   UNL     1      47.722 -44.522  52.400  0.00  0.00    +0.000 C 
ENDROOT
BRANCH   2   9
ATOM      8  S   UNL     1      48.158 -47.040  48.128  0.00  0.00    +0.000 S 
ATOM      9  N   UNL     1      47.597 -44.825  49.510  0.00  0.00    +0.000 N 
ATOM     10  N   UNL     1      49.803 -45.151  48.683  0.00  0.00    +0.000 NA
ATOM     11  C   UNL     1      48.549 -45.513  48.841  0.00  0.00    +0.000 A 
ATOM     12  C   UNL     1      50.502 -46.082  47.939  0.00  0.00    +0.000 A 
ATOM     13  C   UNL     1      49.752 -47.168  47.558  0.00  0.00    +0.000 A 
ATOM     14  H   UNL     1      46.692 -45.263  49.673  0.00  0.00    +0.000 HD
BRANCH  12  16
ATOM     15  N   UNL     1      53.594 -44.819  46.269  0.00  0.00    +0.000 NA
ATOM     16  C   UNL     1      51.902 -45.912  47.620  0.00  0.00    +0.000 A 
ATOM     17  C   UNL     1      52.902 -46.581  48.319  0.00  0.00    +0.000 A 
ATOM     18  C   UNL     1      52.300 -45.053  46.606  0.00  0.00    +0.000 A 
ATOM     19  C   UNL     1      54.240 -46.380  47.997  0.00  0.00    +0.000 A 
ATOM     20  C   UNL     1      54.527 -45.495  46.972  0.00  0.00    +0.000 A 
ENDBRANCH  12  16
ENDBRANCH   2   9
BRANCH   1  22
ATOM     21  O   UNL     1      49.971 -40.383  47.862  0.00  0.00    +0.000 OA
ATOM     22  N   UNL     1      47.995 -39.942  48.998  0.00  0.00    +0.000 N 
ATOM     23  C   UNL     1      49.032 -39.641  48.126  0.00  0.00    +0.000 C 
ATOM     24  H   UNL     1      47.206 -39.309  49.060  0.00  0.00    +0.000 HD
BRANCH  23  30
ATOM     25  C   UNL     1      48.847 -35.801  46.269  0.00  0.00    +0.000 A 
ATOM     26  C   UNL     1      48.366 -36.913  45.581  0.00  0.00    +0.000 A 
ATOM     27  C   UNL     1      49.385 -35.943  47.545  0.00  0.00    +0.000 A 
ATOM     28  C   UNL     1      48.423 -38.173  46.173  0.00  0.00    +0.000 A 
ATOM     29  C   UNL     1      49.442 -37.203  48.135  0.00  0.00    +0.000 A 
ATOM     30  C   UNL     1      48.963 -38.323  47.451  0.00  0.00    +0.000 A 
BRANCH  25  31
ATOM     31  C   UNL     1      48.787 -34.511  45.664  0.00  0.00    +0.000 C 
BRANCH  31  32
ATOM     32  N   UNL     1      48.726 -33.192  45.047  0.00  0.00    +0.000 N 
ATOM     33  N   UNL     1      51.864 -31.712  44.295  0.00  0.00    +0.000 N 
ATOM     34  C   UNL     1      49.626 -32.305  45.836  0.00  0.00    +0.000 C 
ATOM     35  C   UNL     1      49.588 -33.242  43.833  0.00  0.00    +0.000 C 
ATOM     36  C   UNL     1      50.996 -31.649  45.503  0.00  0.00    +0.000 C 
ATOM     37  C   UNL     1      50.959 -32.587  43.501  0.00  0.00    +0.000 C 
ATOM     38  C   UNL     1      51.832 -30.394  43.678  0.00  0.00    +0.000 C 
ENDBRANCH  31  32
ENDBRANCH  25  31
ENDBRANCH  23  30
ENDBRANCH   1  22
TORSDOF 6
ENDMDL
MODEL 2
REMARK VINA RESULT:      -7.9      6.421     13.881
REMARK  Name = 10074640_Masitinib.pdbqt.pdb
REMARK  6 active torsions:
REMARK  status: ('A' for Active; 'I' for Inactive)
REMARK    1  A    between atoms: C_1  and  N_22
REMARK    2  A    between atoms: C_2  and  N_9
REMARK    3  A    between atoms: C_12  and  C_16
REMARK    4  A    between atoms: C_23  and  C_30
REMARK    5  A    between atoms: C_25  and  C_31
REMARK    6  A    between atoms: C_31  and  N_32
REMARK                            x       y       z     vdW  Elec       q    Type
REMARK                         _______ _______ _______ _____ _____    ______ ____
ROOT
ATOM      1  C   UNL     1      48.096 -45.926  51.707  0.00  0.00    +0.000 A 
ATOM      2  C   UNL     1      48.171 -44.297  49.880  0.00  0.00    +0.000 A 
ATOM      3  C   UNL     1      48.191 -45.617  50.349  0.00  0.00    +0.000 A 
ATOM      4  C   UNL     1      48.050 -43.275  50.842  0.00  0.00    +0.000 A 
ATOM      5  C   UNL     1      47.954 -44.893  52.631  0.00  0.00    +0.000 A 
ATOM      6  C   UNL     1      47.941 -43.568  52.201  0.00  0.00    +0.000 A 
ATOM      7  C   UNL     1      48.032 -41.819  50.422  0.00  0.00    +0.000 C 
ENDROOT
BRANCH   2   9
ATOM      8  S   UNL     1      49.143 -43.700  46.008  0.00  0.00    +0.000 S 
ATOM      9  N   UNL     1      48.225 -43.991  48.499  0.00  0.00    +0.000 N 
ATOM     10  N   UNL     1      50.273 -45.033  47.887  0.00  0.00    +0.000 NA
ATOM     11  C   UNL     1      49.219 -44.291  47.633  0.00  0.00    +0.000 A 
ATOM     12  C   UNL     1      51.094 -45.129  46.780  0.00  0.00    +0.000 A 
ATOM     13  C   UNL     1      50.624 -44.459  45.677  0.00  0.00    +0.000 A 
ATOM     14  H   UNL     1      47.397 -43.510  48.155  0.00  0.00    +0.000 HD
BRANCH  12  16
ATOM     15  N   UNL     1      54.315 -46.557  48.017  0.00  0.00    +0.000 NA
ATOM     16  C   UNL     1      52.325 -45.888  46.804  0.00  0.00    +0.000 A 
ATOM     17  C   UNL     1      52.713 -46.694  45.737  0.00  0.00    +0.000 A 
ATOM     18  C   UNL     1      53.162 -45.851  47.910  0.00  0.00    +0.000 A 
ATOM     19  C   UNL     1      53.895 -47.424  45.801  0.00  0.00    +0.000 A 
ATOM     20  C   UNL     1      54.652 -47.320  46.956  0.00  0.00    +0.000 A 
ENDBRANCH  12  16
ENDBRANCH   2   9
BRANCH   1  22
ATOM     21  O   UNL     1      45.934 -47.866  51.689  0.00  0.00    +0.000 OA
ATOM     22  N   UNL     1      48.114 -47.249  52.194  0.00  0.00    +0.000 N 
ATOM     23  C   UNL     1      47.024 -48.107  52.194  0.00  0.00    +0.000 C 
ATOM     24  H   UNL     1      49.006 -47.586  52.537  0.00  0.00    +0.000 HD
BRANCH  23  30
ATOM     25  C   UNL     1      47.631 -51.944  53.964  0.00  0.00    +0.000 A 
ATOM     26  C   UNL     1      46.872 -50.995  54.644  0.00  0.00    +0.000 A 
ATOM     27  C   UNL     1      48.189 -51.643  52.725  0.00  0.00    +0.000 A 
ATOM     28  C   UNL     1      46.668 -49.738  54.080  0.00  0.00    +0.000 A 
ATOM     29  C   UNL     1      47.985 -50.385  52.163  0.00  0.00    +0.000 A 
ATOM     30  C   UNL     1      47.225 -49.427  52.839  0.00  0.00    +0.000 A 
BRANCH  25  31
ATOM     31  C   UNL     1      47.839 -53.232  54.541  0.00  0.00    +0.000 C 
BRANCH  31  32
ATOM     32  N   UNL     1      48.050 -54.548  55.131  0.00  0.00    +0.000 N 
ATOM     33  N   UNL     1      50.136 -54.614  58.003  0.00  0.00    +0.000 N 
ATOM     34  C   UNL     1      49.520 -54.718  55.293  0.00  0.00    +0.000 C 
ATOM     35  C   UNL     1      47.751 -54.421  56.586  0.00  0.00    +0.000 C 
ATOM     36  C   UNL     1      50.433 -54.756  56.552  0.00  0.00    +0.000 C 
ATOM     37  C   UNL     1      48.664 -54.458  57.844  0.00  0.00    +0.000 C 
ATOM     38  C   UNL     1      50.363 -55.916  58.614  0.00  0.00    +0.000 C 
ENDBRANCH  31  32
ENDBRANCH  25  31
ENDBRANCH  23  30
ENDBRANCH   1  22
TORSDOF 6
ENDMDL
MODEL 3
REMARK VINA RESULT:      -7.9      7.389     15.365
REMARK  Name = 10074640_Masitinib.pdbqt.pdb
REMARK  6 active torsions:
REMARK  status: ('A' for Active; 'I' for Inactive)
REMARK    1  A    between atoms: C_1  and  N_22
REMARK    2  A    between atoms: C_2  and  N_9
REMARK    3  A    between atoms: C_12  and  C_16
REMARK    4  A    between atoms: C_23  and  C_30
REMARK    5  A    between atoms: C_25  and  C_31
REMARK    6  A    between atoms: C_31  and  N_32
REMARK                            x       y       z     vdW  Elec       q    Type
REMARK                         _______ _______ _______ _____ _____    ______ ____
ROOT
ATOM      1  C   UNL     1      48.941 -48.553  51.177  0.00  0.00    +0.000 A 
ATOM      2  C   UNL     1      49.484 -47.150  49.244  0.00  0.00    +0.000 A 
ATOM      3  C   UNL     1      48.577 -47.915  49.990  0.00  0.00    +0.000 A 
ATOM      4  C   UNL     1      50.798 -47.046  49.741  0.00  0.00    +0.000 A 
ATOM      5  C   UNL     1      50.242 -48.411  51.653  0.00  0.00    +0.000 A 
ATOM      6  C   UNL     1      51.173 -47.667  50.933  0.00  0.00    +0.000 A 
ATOM      7  C   UNL     1      51.846 -46.248  48.992  0.00  0.00    +0.000 C 
ENDROOT
BRANCH   2   9
ATOM      8  S   UNL     1      48.176 -44.572  46.428  0.00  0.00    +0.000 S 
ATOM      9  N   UNL     1      49.099 -46.470  48.064  0.00  0.00    +0.000 N 
ATOM     10  N   UNL     1      48.817 -44.257  48.892  0.00  0.00    +0.000 NA
ATOM     11  C   UNL     1      48.748 -45.169  47.948  0.00  0.00    +0.000 A 
ATOM     12  C   UNL     1      48.372 -43.031  48.436  0.00  0.00    +0.000 A 
ATOM     13  C   UNL     1      47.985 -43.033  47.118  0.00  0.00    +0.000 A 
ATOM     14  H   UNL     1      49.118 -47.054  47.231  0.00  0.00    +0.000 HD
BRANCH  12  16
ATOM     15  N   UNL     1      47.675 -40.858  51.391  0.00  0.00    +0.000 NA
ATOM     16  C   UNL     1      48.343 -41.863  49.288  0.00  0.00    +0.000 A 
ATOM     17  C   UNL     1      48.949 -40.666  48.916  0.00  0.00    +0.000 A 
ATOM     18  C   UNL     1      47.718 -41.902  50.526  0.00  0.00    +0.000 A 
ATOM     19  C   UNL     1      48.916 -39.568  49.768  0.00  0.00    +0.000 A 
ATOM     20  C   UNL     1      48.272 -39.717  50.984  0.00  0.00    +0.000 A 
ENDBRANCH  12  16
ENDBRANCH   2   9
BRANCH   1  22
ATOM     21  O   UNL     1      48.399 -51.399  50.961  0.00  0.00    +0.000 OA
ATOM     22  N   UNL     1      48.039 -49.325  51.937  0.00  0.00    +0.000 N 
ATOM     23  C   UNL     1      47.797 -50.677  51.746  0.00  0.00    +0.000 C 
ATOM     24  H   UNL     1      47.566 -48.842  52.692  0.00  0.00    +0.000 HD
BRANCH  23  30
ATOM     25  C   UNL     1      44.694 -52.430  54.097  0.00  0.00    +0.000 A 
ATOM     26  C   UNL     1      45.697 -51.700  54.731  0.00  0.00    +0.000 A 
ATOM     27  C   UNL     1      44.707 -52.589  52.715  0.00  0.00    +0.000 A 
ATOM     28  C   UNL     1      46.717 -51.126  53.977  0.00  0.00    +0.000 A 
ATOM     29  C   UNL     1      45.729 -52.015  51.962  0.00  0.00    +0.000 A 
ATOM     30  C   UNL     1      46.739 -51.282  52.591  0.00  0.00    +0.000 A 
BRANCH  25  31
ATOM     31  C   UNL     1      43.648 -53.018  54.868  0.00  0.00    +0.000 C 
BRANCH  31  32
ATOM     32  N   UNL     1      42.577 -53.618  55.655  0.00  0.00    +0.000 N 
ATOM     33  N   UNL     1      42.618 -57.164  55.828  0.00  0.00    +0.000 N 
ATOM     34  C   UNL     1      41.952 -54.667  54.801  0.00  0.00    +0.000 C 
ATOM     35  C   UNL     1      43.221 -54.564  56.609  0.00  0.00    +0.000 C 
ATOM     36  C   UNL     1      41.962 -56.220  54.882  0.00  0.00    +0.000 C 
ATOM     37  C   UNL     1      43.232 -56.117  56.689  0.00  0.00    +0.000 C 
ATOM     38  C   UNL     1      41.560 -57.791  56.607  0.00  0.00    +0.000 C 
ENDBRANCH  31  32
ENDBRANCH  25  31
ENDBRANCH  23  30
ENDBRANCH   1  22
TORSDOF 6
ENDMDL
MODEL 4
REMARK VINA RESULT:      -7.6      8.257     15.884
REMARK  Name = 10074640_Masitinib.pdbqt.pdb
REMARK  6 active torsions:
REMARK  status: ('A' for Active; 'I' for Inactive)
REMARK    1  A    between atoms: C_1  and  N_22
REMARK    2  A    between atoms: C_2  and  N_9
REMARK    3  A    between atoms: C_12  and  C_16
REMARK    4  A    between atoms: C_23  and  C_30
REMARK    5  A    between atoms: C_25  and  C_31
REMARK    6  A    between atoms: C_31  and  N_32
REMARK                            x       y       z     vdW  Elec       q    Type
REMARK                         _______ _______ _______ _____ _____    ______ ____
ROOT
ATOM      1  C   UNL     1      46.023 -49.129  52.312  0.00  0.00    +0.000 A 
ATOM      2  C   UNL     1      45.790 -46.814  51.547  0.00  0.00    +0.000 A 
ATOM      3  C   UNL     1      46.357 -47.776  52.394  0.00  0.00    +0.000 A 
ATOM      4  C   UNL     1      44.856 -47.267  50.595  0.00  0.00    +0.000 A 
ATOM      5  C   UNL     1      45.113 -49.547  51.344  0.00  0.00    +0.000 A 
ATOM      6  C   UNL     1      44.522 -48.618  50.492  0.00  0.00    +0.000 A 
ATOM      7  C   UNL     1      44.186 -46.293  49.647  0.00  0.00    +0.000 C 
ENDROOT
BRANCH   2   9
ATOM      8  S   UNL     1      47.601 -43.211  51.374  0.00  0.00    +0.000 S 
ATOM      9  N   UNL     1      46.164 -45.450  51.605  0.00  0.00    +0.000 N 
ATOM     10  N   UNL     1      48.138 -45.468  50.277  0.00  0.00    +0.000 NA
ATOM     11  C   UNL     1      47.265 -44.881  51.066  0.00  0.00    +0.000 A 
ATOM     12  C   UNL     1      49.147 -44.597  49.913  0.00  0.00    +0.000 A 
ATOM     13  C   UNL     1      49.004 -43.332  50.428  0.00  0.00    +0.000 A 
ATOM     14  H   UNL     1      45.495 -44.864  52.100  0.00  0.00    +0.000 HD
BRANCH  12  16
ATOM     15  N   UNL     1      51.564 -44.590  47.067  0.00  0.00    +0.000 NA
ATOM     16  C   UNL     1      50.234 -45.005  49.052  0.00  0.00    +0.000 A 
ATOM     17  C   UNL     1      51.024 -46.115  49.339  0.00  0.00    +0.000 A 
ATOM     18  C   UNL     1      50.542 -44.286  47.906  0.00  0.00    +0.000 A 
ATOM     19  C   UNL     1      52.073 -46.469  48.498  0.00  0.00    +0.000 A 
ATOM     20  C   UNL     1      52.297 -45.677  47.384  0.00  0.00    +0.000 A 
ENDBRANCH  12  16
ENDBRANCH   2   9
BRANCH   1  22
ATOM     21  O   UNL     1      48.076 -51.081  51.666  0.00  0.00    +0.000 OA
ATOM     22  N   UNL     1      46.586 -50.107  53.156  0.00  0.00    +0.000 N 
ATOM     23  C   UNL     1      47.534 -51.041  52.764  0.00  0.00    +0.000 C 
ATOM     24  H   UNL     1      46.283 -50.090  54.123  0.00  0.00    +0.000 HD
BRANCH  23  30
ATOM     25  C   UNL     1      48.710 -53.990  55.620  0.00  0.00    +0.000 A 
ATOM     26  C   UNL     1      47.719 -53.072  55.960  0.00  0.00    +0.000 A 
ATOM     27  C   UNL     1      49.311 -53.943  54.365  0.00  0.00    +0.000 A 
ATOM     28  C   UNL     1      47.328 -52.102  55.039  0.00  0.00    +0.000 A 
ATOM     29  C   UNL     1      48.920 -52.972  53.447  0.00  0.00    +0.000 A 
ATOM     30  C   UNL     1      47.927 -52.047  53.781  0.00  0.00    +0.000 A 
BRANCH  25  31
ATOM     31  C   UNL     1      49.109 -54.984  56.561  0.00  0.00    +0.000 C 
BRANCH  31  32
ATOM     32  N   UNL     1      49.516 -56.001  57.523  0.00  0.00    +0.000 N 
ATOM     33  N   UNL     1      47.071 -56.874  59.944  0.00  0.00    +0.000 N 
ATOM     34  C   UNL     1      49.215 -55.459  58.877  0.00  0.00    +0.000 C 
ATOM     35  C   UNL     1      48.446 -57.038  57.533  0.00  0.00    +0.000 C 
ATOM     36  C   UNL     1      48.149 -55.848  59.942  0.00  0.00    +0.000 C 
ATOM     37  C   UNL     1      47.380 -57.426  58.597  0.00  0.00    +0.000 C 
ATOM     38  C   UNL     1      47.450 -57.889  60.918  0.00  0.00    +0.000 C 
ENDBRANCH  31  32
ENDBRANCH  25  31
ENDBRANCH  23  30
ENDBRANCH   1  22
TORSDOF 6
ENDMDL
MODEL 5
REMARK VINA RESULT:      -7.5      7.825     15.738
REMARK  Name = 10074640_Masitinib.pdbqt.pdb
REMARK  6 active torsions:
REMARK  status: ('A' for Active; 'I' for Inactive)
REMARK    1  A    between atoms: C_1  and  N_22
REMARK    2  A    between atoms: C_2  and  N_9
REMARK    3  A    between atoms: C_12  and  C_16
REMARK    4  A    between atoms: C_23  and  C_30
REMARK    5  A    between atoms: C_25  and  C_31
REMARK    6  A    between atoms: C_31  and  N_32
REMARK                            x       y       z     vdW  Elec       q    Type
REMARK                         _______ _______ _______ _____ _____    ______ ____
ROOT
ATOM      1  C   UNL     1      47.504 -47.037  51.589  0.00  0.00    +0.000 A 
ATOM      2  C   UNL     1      46.721 -45.730  49.671  0.00  0.00    +0.000 A 
ATOM      3  C   UNL     1      46.726 -46.903  50.438  0.00  0.00    +0.000 A 
ATOM      4  C   UNL     1      47.542 -44.672  50.110  0.00  0.00    +0.000 A 
ATOM      5  C   UNL     1      48.287 -45.964  52.008  0.00  0.00    +0.000 A 
ATOM      6  C   UNL     1      48.315 -44.786  51.266  0.00  0.00    +0.000 A 
ATOM      7  C   UNL     1      47.606 -43.372  49.334  0.00  0.00    +0.000 C 
ENDROOT
BRANCH   2   9
ATOM      8  S   UNL     1      43.791 -45.740  46.895  0.00  0.00    +0.000 S 
ATOM      9  N   UNL     1      45.898 -45.584  48.529  0.00  0.00    +0.000 N 
ATOM     10  N   UNL     1      43.781 -46.206  49.418  0.00  0.00    +0.000 NA
ATOM     11  C   UNL     1      44.578 -45.862  48.432  0.00  0.00    +0.000 A 
ATOM     12  C   UNL     1      42.493 -46.424  48.967  0.00  0.00    +0.000 A 
ATOM     13  C   UNL     1      42.332 -46.216  47.619  0.00  0.00    +0.000 A 
ATOM     14  H   UNL     1      46.386 -45.209  47.719  0.00  0.00    +0.000 HD
BRANCH  12  16
ATOM     15  N   UNL     1      39.121 -46.560  50.565  0.00  0.00    +0.000 NA
ATOM     16  C   UNL     1      41.427 -46.820  49.860  0.00  0.00    +0.000 A 
ATOM     17  C   UNL     1      41.599 -47.818  50.814  0.00  0.00    +0.000 A 
ATOM     18  C   UNL     1      40.177 -46.222  49.783  0.00  0.00    +0.000 A 
ATOM     19  C   UNL     1      40.547 -48.185  51.646  0.00  0.00    +0.000 A 
ATOM     20  C   UNL     1      39.338 -47.530  51.479  0.00  0.00    +0.000 A 
ENDBRANCH  12  16
ENDBRANCH   2   9
BRANCH   1  22
ATOM     21  O   UNL     1      48.722 -49.595  50.951  0.00  0.00    +0.000 OA
ATOM     22  N   UNL     1      47.518 -48.210  52.370  0.00  0.00    +0.000 N 
ATOM     23  C   UNL     1      48.082 -49.415  51.979  0.00  0.00    +0.000 C 
ATOM     24  H   UNL     1      47.106 -48.136  53.293  0.00  0.00    +0.000 HD
BRANCH  23  30
ATOM     25  C   UNL     1      47.538 -52.640  54.724  0.00  0.00    +0.000 A 
ATOM     26  C   UNL     1      48.373 -52.818  53.623  0.00  0.00    +0.000 A 
ATOM     27  C   UNL     1      46.886 -51.427  54.923  0.00  0.00    +0.000 A 
ATOM     28  C   UNL     1      48.557 -51.775  52.717  0.00  0.00    +0.000 A 
ATOM     29  C   UNL     1      47.070 -50.386  54.016  0.00  0.00    +0.000 A 
ATOM     30  C   UNL     1      47.905 -50.557  52.909  0.00  0.00    +0.000 A 
BRANCH  25  31
ATOM     31  C   UNL     1      47.351 -53.706  55.652  0.00  0.00    +0.000 C 
BRANCH  31  32
ATOM     32  N   UNL     1      47.161 -54.797  56.600  0.00  0.00    +0.000 N 
ATOM     33  N   UNL     1      43.813 -55.346  57.644  0.00  0.00    +0.000 N 
ATOM     34  C   UNL     1      46.367 -54.250  57.735  0.00  0.00    +0.000 C 
ATOM     35  C   UNL     1      46.074 -55.658  56.056  0.00  0.00    +0.000 C 
ATOM     36  C   UNL     1      44.903 -54.498  58.198  0.00  0.00    +0.000 C 
ATOM     37  C   UNL     1      44.610 -55.905  56.518  0.00  0.00    +0.000 C 
ATOM     38  C   UNL     1      43.594 -56.431  58.591  0.00  0.00    +0.000 C 
ENDBRANCH  31  32
ENDBRANCH  25  31
ENDBRANCH  23  30
ENDBRANCH   1  22
TORSDOF 6
ENDMDL
MODEL 6
REMARK VINA RESULT:      -7.4      4.099     11.679
REMARK  Name = 10074640_Masitinib.pdbqt.pdb
REMARK  6 active torsions:
REMARK  status: ('A' for Active; 'I' for Inactive)
REMARK    1  A    between atoms: C_1  and  N_22
REMARK    2  A    between atoms: C_2  and  N_9
REMARK    3  A    between atoms: C_12  and  C_16
REMARK    4  A    between atoms: C_23  and  C_30
REMARK    5  A    between atoms: C_25  and  C_31
REMARK    6  A    between atoms: C_31  and  N_32
REMARK                            x       y       z     vdW  Elec       q    Type
REMARK                         _______ _______ _______ _____ _____    ______ ____
ROOT
ATOM      1  C   UNL     1      49.385 -40.107  49.108  0.00  0.00    +0.000 A 
ATOM      2  C   UNL     1      49.609 -38.453  47.316  0.00  0.00    +0.000 A 
ATOM      3  C   UNL     1      49.489 -39.778  47.756  0.00  0.00    +0.000 A 
ATOM      4  C   UNL     1      49.621 -37.448  48.302  0.00  0.00    +0.000 A 
ATOM      5  C   UNL     1      49.376 -39.087  50.057  0.00  0.00    +0.000 A 
ATOM      6  C   UNL     1      49.504 -37.760  49.657  0.00  0.00    +0.000 A 
ATOM      7  C   UNL     1      49.758 -35.989  47.915  0.00  0.00    +0.000 C 
ENDROOT
BRANCH   2   9
ATOM      8  S   UNL     1      49.114 -38.053  43.330  0.00  0.00    +0.000 S 
ATOM      9  N   UNL     1      49.671 -38.122  45.941  0.00  0.00    +0.000 N 
ATOM     10  N   UNL     1      47.608 -39.019  45.169  0.00  0.00    +0.000 NA
ATOM     11  C   UNL     1      48.774 -38.442  44.982  0.00  0.00    +0.000 A 
ATOM     12  C   UNL     1      46.946 -39.208  43.971  0.00  0.00    +0.000 A 
ATOM     13  C   UNL     1      47.631 -38.740  42.876  0.00  0.00    +0.000 A 
ATOM     14  H   UNL     1      50.486 -37.567  45.692  0.00  0.00    +0.000 HD
BRANCH  12  16
ATOM     15  N   UNL     1      44.191 -41.655  44.572  0.00  0.00    +0.000 NA
ATOM     16  C   UNL     1      45.642 -39.830  43.907  0.00  0.00    +0.000 A 
ATOM     17  C   UNL     1      44.586 -39.254  43.208  0.00  0.00    +0.000 A 
ATOM     18  C   UNL     1      45.393 -41.028  44.562  0.00  0.00    +0.000 A 
ATOM     19  C   UNL     1      43.340 -39.872  43.181  0.00  0.00    +0.000 A 
ATOM     20  C   UNL     1      43.198 -41.061  43.876  0.00  0.00    +0.000 A 
ENDBRANCH  12  16
ENDBRANCH   2   9
BRANCH   1  22
ATOM     21  O   UNL     1      47.218 -41.276  50.650  0.00  0.00    +0.000 OA
ATOM     22  N   UNL     1      49.263 -41.435  49.565  0.00  0.00    +0.000 N 
ATOM     23  C   UNL     1      48.217 -41.913  50.340  0.00  0.00    +0.000 C 
ATOM     24  H   UNL     1      49.989 -42.077  49.269  0.00  0.00    +0.000 HD
BRANCH  23  30
ATOM     25  C   UNL     1      48.546 -45.991  51.562  0.00  0.00    +0.000 A 
ATOM     26  C   UNL     1      47.938 -45.073  52.415  0.00  0.00    +0.000 A 
ATOM     27  C   UNL     1      49.043 -45.581  50.328  0.00  0.00    +0.000 A 
ATOM     28  C   UNL     1      47.827 -43.738  52.031  0.00  0.00    +0.000 A 
ATOM     29  C   UNL     1      48.933 -44.247  49.946  0.00  0.00    +0.000 A 
ATOM     30  C   UNL     1      48.325 -43.320  50.797  0.00  0.00    +0.000 A 
BRANCH  25  31
ATOM     31  C   UNL     1      48.658 -47.358  51.954  0.00  0.00    +0.000 C 
BRANCH  31  32
ATOM     32  N   UNL     1      48.775 -48.755  52.352  0.00  0.00    +0.000 N 
ATOM     33  N   UNL     1      46.824 -51.046  50.468  0.00  0.00    +0.000 N 
ATOM     34  C   UNL     1      47.389 -49.270  52.532  0.00  0.00    +0.000 C 
ATOM     35  C   UNL     1      49.066 -49.534  51.116  0.00  0.00    +0.000 C 
ATOM     36  C   UNL     1      46.538 -50.280  51.711  0.00  0.00    +0.000 C 
ATOM     37  C   UNL     1      48.215 -50.544  50.295  0.00  0.00    +0.000 C 
ATOM     38  C   UNL     1      46.922 -52.449  50.844  0.00  0.00    +0.000 C 
ENDBRANCH  31  32
ENDBRANCH  25  31
ENDBRANCH  23  30
ENDBRANCH   1  22
TORSDOF 6
ENDMDL
MODEL 7
REMARK VINA RESULT:      -7.4      3.716     10.238
REMARK  Name = 10074640_Masitinib.pdbqt.pdb
REMARK  6 active torsions:
REMARK  status: ('A' for Active; 'I' for Inactive)
REMARK    1  A    between atoms: C_1  and  N_22
REMARK    2  A    between atoms: C_2  and  N_9
REMARK    3  A    between atoms: C_12  and  C_16
REMARK    4  A    between atoms: C_23  and  C_30
REMARK    5  A    between atoms: C_25  and  C_31
REMARK    6  A    between atoms: C_31  and  N_32
REMARK                            x       y       z     vdW  Elec       q    Type
REMARK                         _______ _______ _______ _____ _____    ______ ____
ROOT
ATOM      1  C   UNL     1      50.234 -45.001  48.868  0.00  0.00    +0.000 A 
ATOM      2  C   UNL     1      48.964 -43.412  50.232  0.00  0.00    +0.000 A 
ATOM      3  C   UNL     1      50.019 -43.712  49.360  0.00  0.00    +0.000 A 
ATOM      4  C   UNL     1      48.115 -44.473  50.603  0.00  0.00    +0.000 A 
ATOM      5  C   UNL     1      49.362 -46.023  49.236  0.00  0.00    +0.000 A 
ATOM      6  C   UNL     1      48.309 -45.763  50.110  0.00  0.00    +0.000 A 
ATOM      7  C   UNL     1      46.957 -44.238  51.552  0.00  0.00    +0.000 C 
ENDROOT
BRANCH   2   9
ATOM      8  S   UNL     1      48.636 -39.428  50.790  0.00  0.00    +0.000 S 
ATOM      9  N   UNL     1      48.725 -42.095  50.693  0.00  0.00    +0.000 N 
ATOM     10  N   UNL     1      49.092 -40.847  48.702  0.00  0.00    +0.000 NA
ATOM     11  C   UNL     1      48.846 -40.948  49.989  0.00  0.00    +0.000 A 
ATOM     12  C   UNL     1      49.159 -39.525  48.307  0.00  0.00    +0.000 A 
ATOM     13  C   UNL     1      48.936 -38.628  49.324  0.00  0.00    +0.000 A 
ATOM     14  H   UNL     1      48.412 -42.052  51.661  0.00  0.00    +0.000 HD
BRANCH  12  16
ATOM     15  N   UNL     1      49.482 -37.409  45.248  0.00  0.00    +0.000 NA
ATOM     16  C   UNL     1      49.425 -39.148  46.937  0.00  0.00    +0.000 A 
ATOM     17  C   UNL     1      49.901 -40.062  46.002  0.00  0.00    +0.000 A 
ATOM     18  C   UNL     1      49.227 -37.844  46.507  0.00  0.00    +0.000 A 
ATOM     19  C   UNL     1      50.162 -39.662  44.696  0.00  0.00    +0.000 A 
ATOM     20  C   UNL     1      49.938 -38.333  44.376  0.00  0.00    +0.000 A 
ENDBRANCH  12  16
ENDBRANCH   2   9
BRANCH   1  22
ATOM     21  O   UNL     1      52.649 -46.510  49.443  0.00  0.00    +0.000 OA
ATOM     22  N   UNL     1      51.289 -45.318  47.989  0.00  0.00    +0.000 N 
ATOM     23  C   UNL     1      52.439 -46.005  48.347  0.00  0.00    +0.000 C 
ATOM     24  H   UNL     1      51.164 -45.038  47.023  0.00  0.00    +0.000 HD
BRANCH  23  30
ATOM     25  C   UNL     1      55.379 -46.350  45.270  0.00  0.00    +0.000 A 
ATOM     26  C   UNL     1      55.133 -47.442  46.100  0.00  0.00    +0.000 A 
ATOM     27  C   UNL     1      54.677 -45.161  45.446  0.00  0.00    +0.000 A 
ATOM     28  C   UNL     1      54.179 -47.342  47.110  0.00  0.00    +0.000 A 
ATOM     29  C   UNL     1      53.725 -45.063  46.457  0.00  0.00    +0.000 A 
ATOM     30  C   UNL     1      53.473 -46.153  47.294  0.00  0.00    +0.000 A 
BRANCH  25  31
ATOM     31  C   UNL     1      56.354 -46.452  44.234  0.00  0.00    +0.000 C 
BRANCH  31  32
ATOM     32  N   UNL     1      57.351 -46.558  43.176  0.00  0.00    +0.000 N 
ATOM     33  N   UNL     1      60.731 -46.309  44.234  0.00  0.00    +0.000 N 
ATOM     34  C   UNL     1      58.267 -45.393  43.327  0.00  0.00    +0.000 C 
ATOM     35  C   UNL     1      58.338 -47.584  43.615  0.00  0.00    +0.000 C 
ATOM     36  C   UNL     1      59.750 -45.285  43.782  0.00  0.00    +0.000 C 
ATOM     37  C   UNL     1      59.821 -47.476  44.070  0.00  0.00    +0.000 C 
ATOM     38  C   UNL     1      61.748 -46.413  43.197  0.00  0.00    +0.000 C 
ENDBRANCH  31  32
ENDBRANCH  25  31
ENDBRANCH  23  30
ENDBRANCH   1  22
TORSDOF 6
ENDMDL
MODEL 8
REMARK VINA RESULT:      -7.3      6.883     14.489
REMARK  Name = 10074640_Masitinib.pdbqt.pdb
REMARK  6 active torsions:
REMARK  status: ('A' for Active; 'I' for Inactive)
REMARK    1  A    between atoms: C_1  and  N_22
REMARK    2  A    between atoms: C_2  and  N_9
REMARK    3  A    between atoms: C_12  and  C_16
REMARK    4  A    between atoms: C_23  and  C_30
REMARK    5  A    between atoms: C_25  and  C_31
REMARK    6  A    between atoms: C_31  and  N_32
REMARK                            x       y       z     vdW  Elec       q    Type
REMARK                         _______ _______ _______ _____ _____    ______ ____
ROOT
ATOM      1  C   UNL     1      47.248 -46.742  51.937  0.00  0.00    +0.000 A 
ATOM      2  C   UNL     1      47.414 -45.335  49.939  0.00  0.00    +0.000 A 
ATOM      3  C   UNL     1      47.285 -46.589  50.550  0.00  0.00    +0.000 A 
ATOM      4  C   UNL     1      47.507 -44.214  50.788  0.00  0.00    +0.000 A 
ATOM      5  C   UNL     1      47.319 -45.611  52.747  0.00  0.00    +0.000 A 
ATOM      6  C   UNL     1      47.458 -44.349  52.175  0.00  0.00    +0.000 A 
ATOM      7  C   UNL     1      47.660 -42.821  50.211  0.00  0.00    +0.000 C 
ENDROOT
BRANCH   2   9
ATOM      8  S   UNL     1      48.255 -44.847  46.022  0.00  0.00    +0.000 S 
ATOM      9  N   UNL     1      47.407 -45.182  48.533  0.00  0.00    +0.000 N 
ATOM     10  N   UNL     1      49.717 -45.466  48.038  0.00  0.00    +0.000 NA
ATOM     11  C   UNL     1      48.476 -45.191  47.704  0.00  0.00    +0.000 A 
ATOM     12  C   UNL     1      50.560 -45.376  46.948  0.00  0.00    +0.000 A 
ATOM     13  C   UNL     1      49.922 -45.047  45.776  0.00  0.00    +0.000 A 
ATOM     14  H   UNL     1      46.475 -45.074  48.138  0.00  0.00    +0.000 HD
BRANCH  12  16
ATOM     15  N   UNL     1      54.196 -45.399  46.098  0.00  0.00    +0.000 NA
ATOM     16  C   UNL     1      51.979 -45.628  47.055  0.00  0.00    +0.000 A 
ATOM     17  C   UNL     1      52.531 -46.265  48.163  0.00  0.00    +0.000 A 
ATOM     18  C   UNL     1      52.851 -45.225  46.054  0.00  0.00    +0.000 A 
ATOM     19  C   UNL     1      53.903 -46.476  48.242  0.00  0.00    +0.000 A 
ATOM     20  C   UNL     1      54.683 -46.026  47.190  0.00  0.00    +0.000 A 
ENDBRANCH  12  16
ENDBRANCH   2   9
BRANCH   1  22
ATOM     21  O   UNL     1      49.170 -48.919  51.997  0.00  0.00    +0.000 OA
ATOM     22  N   UNL     1      47.118 -47.997  52.565  0.00  0.00    +0.000 N 
ATOM     23  C   UNL     1      48.063 -49.011  52.512  0.00  0.00    +0.000 C 
ATOM     24  H   UNL     1      46.277 -48.136  53.114  0.00  0.00    +0.000 HD
BRANCH  23  30
ATOM     25  C   UNL     1      46.961 -52.647  54.460  0.00  0.00    +0.000 A 
ATOM     26  C   UNL     1      47.837 -52.694  53.378  0.00  0.00    +0.000 A 
ATOM     27  C   UNL     1      46.448 -51.429  54.896  0.00  0.00    +0.000 A 
ATOM     28  C   UNL     1      48.203 -51.516  52.731  0.00  0.00    +0.000 A 
ATOM     29  C   UNL     1      46.813 -50.253  54.247  0.00  0.00    +0.000 A 
ATOM     30  C   UNL     1      47.691 -50.292  53.161  0.00  0.00    +0.000 A 
BRANCH  25  31
ATOM     31  C   UNL     1      46.587 -53.853  55.124  0.00  0.00    +0.000 C 
BRANCH  31  32
ATOM     32  N   UNL     1      46.204 -55.085  55.801  0.00  0.00    +0.000 N 
ATOM     33  N   UNL     1      42.957 -55.089  57.238  0.00  0.00    +0.000 N 
ATOM     34  C   UNL     1      45.709 -54.699  57.152  0.00  0.00    +0.000 C 
ATOM     35  C   UNL     1      44.873 -55.479  55.260  0.00  0.00    +0.000 C 
ATOM     36  C   UNL     1      44.288 -54.709  57.784  0.00  0.00    +0.000 C 
ATOM     37  C   UNL     1      43.452 -55.488  55.892  0.00  0.00    +0.000 C 
ATOM     38  C   UNL     1      42.547 -56.308  57.921  0.00  0.00    +0.000 C 
ENDBRANCH  31  32
ENDBRANCH  25  31
ENDBRANCH  23  30
ENDBRANCH   1  22
TORSDOF 6
ENDMDL
MODEL 9
REMARK VINA RESULT:      -7.2     10.626     15.138
REMARK  Name = 10074640_Masitinib.pdbqt.pdb
REMARK  6 active torsions:
REMARK  status: ('A' for Active; 'I' for Inactive)
REMARK    1  A    between atoms: C_1  and  N_22
REMARK    2  A    between atoms: C_2  and  N_9
REMARK    3  A    between atoms: C_12  and  C_16
REMARK    4  A    between atoms: C_23  and  C_30
REMARK    5  A    between atoms: C_25  and  C_31
REMARK    6  A    between atoms: C_31  and  N_32
REMARK                            x       y       z     vdW  Elec       q    Type
REMARK                         _______ _______ _______ _____ _____    ______ ____
ROOT
ATOM      1  C   UNL     1      43.160 -53.944  55.175  0.00  0.00    +0.000 A 
ATOM      2  C   UNL     1      42.914 -55.571  56.989  0.00  0.00    +0.000 A 
ATOM      3  C   UNL     1      43.516 -54.434  56.433  0.00  0.00    +0.000 A 
ATOM      4  C   UNL     1      41.923 -56.214  56.221  0.00  0.00    +0.000 A 
ATOM      5  C   UNL     1      42.159 -54.589  54.452  0.00  0.00    +0.000 A 
ATOM      6  C   UNL     1      41.547 -55.728  54.969  0.00  0.00    +0.000 A 
ATOM      7  C   UNL     1      41.230 -57.457  56.742  0.00  0.00    +0.000 C 
ENDROOT
BRANCH   2   9
ATOM      8  S   UNL     1      44.677 -56.889  60.372  0.00  0.00    +0.000 S 
ATOM      9  N   UNL     1      43.248 -56.039  58.282  0.00  0.00    +0.000 N 
ATOM     10  N   UNL     1      45.610 -55.754  58.268  0.00  0.00    +0.000 NA
ATOM     11  C   UNL     1      44.485 -56.163  58.813  0.00  0.00    +0.000 A 
ATOM     12  C   UNL     1      46.691 -56.045  59.077  0.00  0.00    +0.000 A 
ATOM     13  C   UNL     1      46.355 -56.664  60.257  0.00  0.00    +0.000 A 
ATOM     14  H   UNL     1      42.439 -56.281  58.850  0.00  0.00    +0.000 HD
BRANCH  12  16
ATOM     15  N   UNL     1      50.386 -56.324  58.617  0.00  0.00    +0.000 NA
ATOM     16  C   UNL     1      48.044 -55.702  58.698  0.00  0.00    +0.000 A 
ATOM     17  C   UNL     1      48.344 -54.513  58.040  0.00  0.00    +0.000 A 
ATOM     18  C   UNL     1      49.097 -56.564  58.967  0.00  0.00    +0.000 A 
ATOM     19  C   UNL     1      49.654 -54.223  57.675  0.00  0.00    +0.000 A 
ATOM     20  C   UNL     1      50.628 -55.157  57.985  0.00  0.00    +0.000 A 
ENDBRANCH  12  16
ENDBRANCH   2   9
BRANCH   1  22
ATOM     21  O   UNL     1      45.514 -53.813  53.477  0.00  0.00    +0.000 OA
ATOM     22  N   UNL     1      43.755 -52.801  54.604  0.00  0.00    +0.000 N 
ATOM     23  C   UNL     1      44.912 -52.809  53.838  0.00  0.00    +0.000 C 
ATOM     24  H   UNL     1      43.270 -51.923  54.753  0.00  0.00    +0.000 HD
BRANCH  23  30
ATOM     25  C   UNL     1      46.419 -48.979  52.701  0.00  0.00    +0.000 A 
ATOM     26  C   UNL     1      45.588 -49.671  51.822  0.00  0.00    +0.000 A 
ATOM     27  C   UNL     1      46.757 -49.533  53.932  0.00  0.00    +0.000 A 
ATOM     28  C   UNL     1      45.092 -50.923  52.179  0.00  0.00    +0.000 A 
ATOM     29  C   UNL     1      46.260 -50.785  54.287  0.00  0.00    +0.000 A 
ATOM     30  C   UNL     1      45.427 -51.486  53.410  0.00  0.00    +0.000 A 
BRANCH  25  31
ATOM     31  C   UNL     1      46.927 -47.697  52.337  0.00  0.00    +0.000 C 
BRANCH  31  32
ATOM     32  N   UNL     1      47.444 -46.386  51.964  0.00  0.00    +0.000 N 
ATOM     33  N   UNL     1      49.035 -46.221  48.794  0.00  0.00    +0.000 N 
ATOM     34  C   UNL     1      48.860 -46.584  51.546  0.00  0.00    +0.000 C 
ATOM     35  C   UNL     1      46.923 -46.090  50.599  0.00  0.00    +0.000 C 
ATOM     36  C   UNL     1      49.558 -46.503  50.159  0.00  0.00    +0.000 C 
ATOM     37  C   UNL     1      47.622 -46.009  49.212  0.00  0.00    +0.000 C 
ATOM     38  C   UNL     1      49.560 -44.923  48.395  0.00  0.00    +0.000 C 
ENDBRANCH  31  32
ENDBRANCH  25  31
ENDBRANCH  23  30
ENDBRANCH   1  22
TORSDOF 6
ENDMDL
