MODEL 1
REMARK VINA RESULT:      -6.6      0.000      0.000
REMARK  Name = 101808841_CandidaspongiolideA.pdbqt.pdb
REMARK  13 active torsions:
REMARK  status: ('A' for Active; 'I' for Inactive)
REMARK    1  A    between atoms: C_6  and  C_39
REMARK    2  A    between atoms: C_9  and  O_27
REMARK    3  A    between atoms: C_9  and  C_51
REMARK    4  A    between atoms: C_10  and  O_29
REMARK    5  A    between atoms: C_14  and  O_31
REMARK    6  A    between atoms: C_15  and  O_33
REMARK    7  A    between atoms: C_20  and  O_35
REMARK    8  A    between atoms: O_35  and  C_37
REMARK    9  A    between atoms: C_39  and  C_41
REMARK   10  A    between atoms: C_39  and  O_49
REMARK   11  A    between atoms: C_42  and  C_44
REMARK   12  A    between atoms: C_44  and  C_46
REMARK   13  A    between atoms: C_51  and  O_52
REMARK                            x       y       z     vdW  Elec       q    Type
REMARK                         _______ _______ _______ _____ _____    ______ ____
ROOT
ATOM      1  O   UNL     1      45.665 -46.537  50.507  0.00  0.00    +0.000 OA
ATOM      2  O   UNL     1      42.804 -48.386  48.124  0.00  0.00    +0.000 OA
ATOM      3  O   UNL     1      45.184 -47.827  52.358  0.00  0.00    +0.000 OA
ATOM      4  O   UNL     1      43.521 -42.455  45.331  0.00  0.00    +0.000 OA
ATOM      5  O   UNL     1      47.319 -45.192  48.623  0.00  0.00    +0.000 OA
ATOM      6  C   UNL     1      43.060 -46.585  49.620  0.00  0.00    +0.000 C 
ATOM      7  C   UNL     1      42.853 -47.162  48.254  0.00  0.00    +0.000 C 
ATOM      8  C   UNL     1      44.393 -46.545  50.118  0.00  0.00    +0.000 C 
ATOM      9  C   UNL     1      42.813 -46.146  47.080  0.00  0.00    +0.000 C 
ATOM     10  C   UNL     1      44.209 -45.633  46.770  0.00  0.00    +0.000 C 
ATOM     11  C   UNL     1      44.455 -44.324  46.262  0.00  0.00    +0.000 C 
ATOM     12  C   UNL     1      45.971 -47.292  51.588  0.00  0.00    +0.000 C 
ATOM     13  C   UNL     1      44.555 -42.968  45.744  0.00  0.00    +0.000 C 
ATOM     14  C   UNL     1      47.436 -47.461  51.725  0.00  0.00    +0.000 C 
ATOM     15  C   UNL     1      48.425 -46.784  50.913  0.00  0.00    +0.000 C 
ATOM     16  C   UNL     1      45.878 -42.264  45.731  0.00  0.00    +0.000 C 
ATOM     17  C   UNL     1      48.515 -45.348  50.673  0.00  0.00    +0.000 C 
ATOM     18  C   UNL     1      49.315 -43.875  48.749  0.00  0.00    +0.000 C 
ATOM     19  C   UNL     1      48.307 -44.853  49.277  0.00  0.00    +0.000 C 
ATOM     20  C   UNL     1      48.986 -43.088  47.558  0.00  0.00    +0.000 C 
ATOM     21  C   UNL     1      47.080 -42.911  46.113  0.00  0.00    +0.000 C 
ATOM     22  C   UNL     1      48.168 -43.528  46.451  0.00  0.00    +0.000 C 
ATOM     23  C   UNL     1      46.044 -40.822  45.301  0.00  0.00    +0.000 C 
ATOM     24  C   UNL     1      48.139 -44.390  51.804  0.00  0.00    +0.000 C 
ATOM     25  C   UNL     1      50.701 -43.768  49.374  0.00  0.00    +0.000 C 
ATOM     26  C   UNL     1      48.433 -44.828  45.733  0.00  0.00    +0.000 C 
ENDROOT
BRANCH   9  27
ATOM     27  O   UNL     1      41.998 -45.033  47.453  0.00  0.00    +0.000 OA
ATOM     28  H   UNL     1      42.153 -44.871  48.402  0.00  0.00    +0.000 HD
ENDBRANCH   9  27
BRANCH  10  29
ATOM     29  O   UNL     1      45.277 -46.486  46.964  0.00  0.00    +0.000 OA
ATOM     30  H   UNL     1      46.138 -46.033  47.033  0.00  0.00    +0.000 HD
ENDBRANCH  10  29
BRANCH  14  31
ATOM     31  O   UNL     1      47.917 -48.366  52.656  0.00  0.00    +0.000 OA
ATOM     32  H   UNL     1      47.846 -49.283  52.315  0.00  0.00    +0.000 HD
ENDBRANCH  14  31
BRANCH  15  33
ATOM     33  O   UNL     1      49.615 -47.479  50.775  0.00  0.00    +0.000 OA
ATOM     34  C   UNL     1      49.640 -48.164  49.551  0.00  0.00    +0.000 C 
ENDBRANCH  15  33
BRANCH  20  35
ATOM     35  O   UNL     1      49.778 -41.949  47.252  0.00  0.00    +0.000 OA
BRANCH  35  37
ATOM     36  O   UNL     1      48.425 -40.547  48.537  0.00  0.00    +0.000 OA
ATOM     37  C   UNL     1      49.244 -40.771  47.666  0.00  0.00    +0.000 C 
ATOM     38  C   UNL     1      49.695 -39.585  46.897  0.00  0.00    +0.000 C 
ENDBRANCH  35  37
ENDBRANCH  20  35
BRANCH   6  39
ATOM     39  C   UNL     1      41.928 -46.188  50.430  0.00  0.00    +0.000 C 
BRANCH  39  41
ATOM     40  O   UNL     1      39.420 -46.280  50.888  0.00  0.00    +0.000 OA
ATOM     41  C   UNL     1      40.614 -46.885  50.332  0.00  0.00    +0.000 C 
ATOM     42  C   UNL     1      39.612 -46.175  49.542  0.00  0.00    +0.000 C 
ATOM     43  C   UNL     1      40.576 -48.423  50.633  0.00  0.00    +0.000 C 
BRANCH  42  44
ATOM     44  C   UNL     1      38.710 -46.856  48.658  0.00  0.00    +0.000 C 
ATOM     45  C   UNL     1      37.446 -47.475  49.199  0.00  0.00    +0.000 C 
BRANCH  44  46
ATOM     46  C   UNL     1      38.688 -46.490  47.286  0.00  0.00    +0.000 C 
ATOM     47  C   UNL     1      38.683 -46.083  46.158  0.00  0.00    +0.000 C 
ATOM     48  C   UNL     1      38.665 -45.429  44.769  0.00  0.00    +0.000 C 
ENDBRANCH  44  46
ENDBRANCH  42  44
ENDBRANCH  39  41
BRANCH  39  49
ATOM     49  O   UNL     1      42.238 -45.377  51.513  0.00  0.00    +0.000 OA
ATOM     50  H   UNL     1      41.531 -45.365  52.186  0.00  0.00    +0.000 HD
ENDBRANCH  39  49
ENDBRANCH   6  39
BRANCH   9  51
ATOM     51  C   UNL     1      42.247 -46.771  45.862  0.00  0.00    +0.000 C 
BRANCH  51  52
ATOM     52  O   UNL     1      41.724 -47.352  44.782  0.00  0.00    +0.000 OA
ATOM     53  H   UNL     1      42.023 -48.277  44.710  0.00  0.00    +0.000 HD
ENDBRANCH  51  52
ENDBRANCH   9  51
TORSDOF 13
ENDMDL
MODEL 2
REMARK VINA RESULT:      -6.2      4.478      9.105
REMARK  Name = 101808841_CandidaspongiolideA.pdbqt.pdb
REMARK  13 active torsions:
REMARK  status: ('A' for Active; 'I' for Inactive)
REMARK    1  A    between atoms: C_6  and  C_39
REMARK    2  A    between atoms: C_9  and  O_27
REMARK    3  A    between atoms: C_9  and  C_51
REMARK    4  A    between atoms: C_10  and  O_29
REMARK    5  A    between atoms: C_14  and  O_31
REMARK    6  A    between atoms: C_15  and  O_33
REMARK    7  A    between atoms: C_20  and  O_35
REMARK    8  A    between atoms: O_35  and  C_37
REMARK    9  A    between atoms: C_39  and  C_41
REMARK   10  A    between atoms: C_39  and  O_49
REMARK   11  A    between atoms: C_42  and  C_44
REMARK   12  A    between atoms: C_44  and  C_46
REMARK   13  A    between atoms: C_51  and  O_52
REMARK                            x       y       z     vdW  Elec       q    Type
REMARK                         _______ _______ _______ _____ _____    ______ ____
ROOT
ATOM      1  O   UNL     1      48.688 -44.414  45.228  0.00  0.00    +0.000 OA
ATOM      2  O   UNL     1      50.250 -40.748  46.412  0.00  0.00    +0.000 OA
ATOM      3  O   UNL     1      48.679 -43.864  42.988  0.00  0.00    +0.000 OA
ATOM      4  O   UNL     1      47.058 -42.858  51.784  0.00  0.00    +0.000 OA
ATOM      5  O   UNL     1      49.096 -46.068  47.506  0.00  0.00    +0.000 OA
ATOM      6  C   UNL     1      48.194 -41.822  46.013  0.00  0.00    +0.000 C 
ATOM      7  C   UNL     1      49.223 -41.211  46.911  0.00  0.00    +0.000 C 
ATOM      8  C   UNL     1      48.413 -43.160  45.580  0.00  0.00    +0.000 C 
ATOM      9  C   UNL     1      48.943 -41.303  48.435  0.00  0.00    +0.000 C 
ATOM     10  C   UNL     1      49.186 -42.715  48.939  0.00  0.00    +0.000 C 
ATOM     11  C   UNL     1      48.463 -43.281  50.030  0.00  0.00    +0.000 C 
ATOM     12  C   UNL     1      48.899 -44.638  43.910  0.00  0.00    +0.000 C 
ATOM     13  C   UNL     1      47.653 -43.725  51.153  0.00  0.00    +0.000 C 
ATOM     14  C   UNL     1      49.504 -45.970  43.684  0.00  0.00    +0.000 C 
ATOM     15  C   UNL     1      49.703 -46.972  44.711  0.00  0.00    +0.000 C 
ATOM     16  C   UNL     1      47.577 -45.182  51.496  0.00  0.00    +0.000 C 
ATOM     17  C   UNL     1      48.695 -47.479  45.634  0.00  0.00    +0.000 C 
ATOM     18  C   UNL     1      48.707 -48.374  48.025  0.00  0.00    +0.000 C 
ATOM     19  C   UNL     1      48.877 -47.208  47.094  0.00  0.00    +0.000 C 
ATOM     20  C   UNL     1      48.514 -48.119  49.454  0.00  0.00    +0.000 C 
ATOM     21  C   UNL     1      48.356 -46.156  50.824  0.00  0.00    +0.000 C 
ATOM     22  C   UNL     1      49.090 -47.027  50.206  0.00  0.00    +0.000 C 
ATOM     23  C   UNL     1      46.680 -45.729  52.586  0.00  0.00    +0.000 C 
ATOM     24  C   UNL     1      47.255 -47.631  45.139  0.00  0.00    +0.000 C 
ATOM     25  C   UNL     1      48.833 -49.805  47.515  0.00  0.00    +0.000 C 
ATOM     26  C   UNL     1      50.568 -46.731  50.175  0.00  0.00    +0.000 C 
ENDROOT
BRANCH   9  27
ATOM     27  O   UNL     1      47.577 -40.967  48.681  0.00  0.00    +0.000 OA
ATOM     28  H   UNL     1      47.167 -41.737  49.116  0.00  0.00    +0.000 HD
ENDBRANCH   9  27
BRANCH  10  29
ATOM     29  O   UNL     1      50.171 -43.466  48.328  0.00  0.00    +0.000 OA
ATOM     30  H   UNL     1      51.035 -43.017  48.275  0.00  0.00    +0.000 HD
ENDBRANCH  10  29
BRANCH  14  31
ATOM     31  O   UNL     1      49.969 -46.284  42.419  0.00  0.00    +0.000 OA
ATOM     32  H   UNL     1      49.704 -47.194  42.168  0.00  0.00    +0.000 HD
ENDBRANCH  14  31
BRANCH  15  33
ATOM     33  O   UNL     1      50.760 -47.831  44.464  0.00  0.00    +0.000 OA
ATOM     34  C   UNL     1      51.918 -47.378  45.114  0.00  0.00    +0.000 C 
ENDBRANCH  15  33
BRANCH  20  35
ATOM     35  O   UNL     1      48.031 -49.173  50.276  0.00  0.00    +0.000 OA
BRANCH  35  37
ATOM     36  O   UNL     1      45.777 -48.725  49.870  0.00  0.00    +0.000 OA
ATOM     37  C   UNL     1      46.706 -49.094  50.563  0.00  0.00    +0.000 C 
ATOM     38  C   UNL     1      46.353 -49.467  51.955  0.00  0.00    +0.000 C 
ENDBRANCH  35  37
ENDBRANCH  20  35
BRANCH   6  39
ATOM     39  C   UNL     1      47.079 -41.034  45.527  0.00  0.00    +0.000 C 
BRANCH  39  41
ATOM     40  O   UNL     1      46.135 -39.215  44.009  0.00  0.00    +0.000 OA
ATOM     41  C   UNL     1      47.238 -40.070  44.400  0.00  0.00    +0.000 C 
ATOM     42  C   UNL     1      47.112 -38.667  44.787  0.00  0.00    +0.000 C 
ATOM     43  C   UNL     1      47.962 -40.570  43.103  0.00  0.00    +0.000 C 
BRANCH  42  44
ATOM     44  C   UNL     1      47.948 -37.643  44.229  0.00  0.00    +0.000 C 
ATOM     45  C   UNL     1      47.777 -37.228  42.790  0.00  0.00    +0.000 C 
BRANCH  44  46
ATOM     46  C   UNL     1      48.508 -36.667  45.097  0.00  0.00    +0.000 C 
ATOM     47  C   UNL     1      49.054 -35.913  45.853  0.00  0.00    +0.000 C 
ATOM     48  C   UNL     1      49.832 -35.060  46.865  0.00  0.00    +0.000 C 
ENDBRANCH  44  46
ENDBRANCH  42  44
ENDBRANCH  39  41
BRANCH  39  49
ATOM     49  O   UNL     1      45.828 -41.478  45.930  0.00  0.00    +0.000 OA
ATOM     50  H   UNL     1      45.868 -42.331  46.403  0.00  0.00    +0.000 HD
ENDBRANCH  39  49
ENDBRANCH   6  39
BRANCH   9  51
ATOM     51  C   UNL     1      49.812 -40.367  49.187  0.00  0.00    +0.000 C 
BRANCH  51  52
ATOM     52  O   UNL     1      50.599 -39.511  49.839  0.00  0.00    +0.000 OA
ATOM     53  H   UNL     1      50.111 -39.079  50.565  0.00  0.00    +0.000 HD
ENDBRANCH  51  52
ENDBRANCH   9  51
TORSDOF 13
ENDMDL
MODEL 3
REMARK VINA RESULT:      -6.1      2.386      9.511
REMARK  Name = 101808841_CandidaspongiolideA.pdbqt.pdb
REMARK  13 active torsions:
REMARK  status: ('A' for Active; 'I' for Inactive)
REMARK    1  A    between atoms: C_6  and  C_39
REMARK    2  A    between atoms: C_9  and  O_27
REMARK    3  A    between atoms: C_9  and  C_51
REMARK    4  A    between atoms: C_10  and  O_29
REMARK    5  A    between atoms: C_14  and  O_31
REMARK    6  A    between atoms: C_15  and  O_33
REMARK    7  A    between atoms: C_20  and  O_35
REMARK    8  A    between atoms: O_35  and  C_37
REMARK    9  A    between atoms: C_39  and  C_41
REMARK   10  A    between atoms: C_39  and  O_49
REMARK   11  A    between atoms: C_42  and  C_44
REMARK   12  A    between atoms: C_44  and  C_46
REMARK   13  A    between atoms: C_51  and  O_52
REMARK                            x       y       z     vdW  Elec       q    Type
REMARK                         _______ _______ _______ _____ _____    ______ ____
ROOT
ATOM      1  O   UNL     1      45.983 -42.448  46.458  0.00  0.00    +0.000 OA
ATOM      2  O   UNL     1      50.081 -42.497  47.157  0.00  0.00    +0.000 OA
ATOM      3  O   UNL     1      46.031 -40.406  45.388  0.00  0.00    +0.000 OA
ATOM      4  O   UNL     1      47.673 -46.403  51.894  0.00  0.00    +0.000 OA
ATOM      5  O   UNL     1      45.213 -45.155  46.879  0.00  0.00    +0.000 OA
ATOM      6  C   UNL     1      48.061 -41.780  48.133  0.00  0.00    +0.000 C 
ATOM      7  C   UNL     1      49.262 -42.670  48.062  0.00  0.00    +0.000 C 
ATOM      8  C   UNL     1      46.965 -42.088  47.280  0.00  0.00    +0.000 C 
ATOM      9  C   UNL     1      49.323 -43.823  49.100  0.00  0.00    +0.000 C 
ATOM     10  C   UNL     1      48.347 -44.928  48.730  0.00  0.00    +0.000 C 
ATOM     11  C   UNL     1      47.705 -45.748  49.703  0.00  0.00    +0.000 C 
ATOM     12  C   UNL     1      45.659 -41.567  45.482  0.00  0.00    +0.000 C 
ATOM     13  C   UNL     1      47.128 -46.508  50.800  0.00  0.00    +0.000 C 
ATOM     14  C   UNL     1      44.801 -42.199  44.454  0.00  0.00    +0.000 C 
ATOM     15  C   UNL     1      44.245 -43.533  44.549  0.00  0.00    +0.000 C 
ATOM     16  C   UNL     1      45.923 -47.369  50.567  0.00  0.00    +0.000 C 
ATOM     17  C   UNL     1      43.477 -44.076  45.662  0.00  0.00    +0.000 C 
ATOM     18  C   UNL     1      43.167 -46.388  46.700  0.00  0.00    +0.000 C 
ATOM     19  C   UNL     1      44.065 -45.214  46.435  0.00  0.00    +0.000 C 
ATOM     20  C   UNL     1      43.547 -47.353  47.734  0.00  0.00    +0.000 C 
ATOM     21  C   UNL     1      45.373 -47.561  49.275  0.00  0.00    +0.000 C 
ATOM     22  C   UNL     1      44.897 -47.735  48.083  0.00  0.00    +0.000 C 
ATOM     23  C   UNL     1      45.208 -48.110  51.678  0.00  0.00    +0.000 C 
ATOM     24  C   UNL     1      42.530 -43.147  46.424  0.00  0.00    +0.000 C 
ATOM     25  C   UNL     1      41.932 -46.634  45.843  0.00  0.00    +0.000 C 
ATOM     26  C   UNL     1      45.888 -48.195  47.044  0.00  0.00    +0.000 C 
ENDROOT
BRANCH   9  27
ATOM     27  O   UNL     1      48.959 -43.315  50.385  0.00  0.00    +0.000 OA
ATOM     28  H   UNL     1      49.231 -43.980  51.043  0.00  0.00    +0.000 HD
ENDBRANCH   9  27
BRANCH  10  29
ATOM     29  O   UNL     1      48.100 -45.159  47.391  0.00  0.00    +0.000 OA
ATOM     30  H   UNL     1      48.575 -45.931  47.029  0.00  0.00    +0.000 HD
ENDBRANCH  10  29
BRANCH  14  31
ATOM     31  O   UNL     1      44.539 -41.503  43.287  0.00  0.00    +0.000 OA
ATOM     32  H   UNL     1      43.639 -41.708  42.956  0.00  0.00    +0.000 HD
ENDBRANCH  14  31
BRANCH  15  33
ATOM     33  O   UNL     1      44.010 -44.135  43.323  0.00  0.00    +0.000 OA
ATOM     34  C   UNL     1      42.631 -44.278  43.107  0.00  0.00    +0.000 C 
ENDBRANCH  15  33
BRANCH  20  35
ATOM     35  O   UNL     1      42.565 -48.262  48.212  0.00  0.00    +0.000 OA
BRANCH  35  37
ATOM     36  O   UNL     1      40.370 -47.723  48.791  0.00  0.00    +0.000 OA
ATOM     37  C   UNL     1      41.576 -47.683  48.941  0.00  0.00    +0.000 C 
ATOM     38  C   UNL     1      42.052 -46.831  50.059  0.00  0.00    +0.000 C 
ENDBRANCH  35  37
ENDBRANCH  20  35
BRANCH   6  39
ATOM     39  C   UNL     1      48.073 -40.594  48.966  0.00  0.00    +0.000 C 
BRANCH  39  41
ATOM     40  O   UNL     1      49.491 -39.102  47.461  0.00  0.00    +0.000 OA
ATOM     41  C   UNL     1      49.099 -39.527  48.790  0.00  0.00    +0.000 C 
ATOM     42  C   UNL     1      48.604 -38.318  48.139  0.00  0.00    +0.000 C 
ATOM     43  C   UNL     1      50.380 -39.586  49.690  0.00  0.00    +0.000 C 
BRANCH  42  44
ATOM     44  C   UNL     1      49.012 -37.005  48.550  0.00  0.00    +0.000 C 
ATOM     45  C   UNL     1      49.361 -35.964  47.517  0.00  0.00    +0.000 C 
BRANCH  44  46
ATOM     46  C   UNL     1      48.572 -36.513  49.808  0.00  0.00    +0.000 C 
ATOM     47  C   UNL     1      48.284 -36.039  50.871  0.00  0.00    +0.000 C 
ATOM     48  C   UNL     1      48.050 -35.375  52.236  0.00  0.00    +0.000 C 
ENDBRANCH  44  46
ENDBRANCH  42  44
ENDBRANCH  39  41
BRANCH  39  49
ATOM     49  O   UNL     1      46.901 -40.364  49.673  0.00  0.00    +0.000 OA
ATOM     50  H   UNL     1      46.238 -41.068  49.537  0.00  0.00    +0.000 HD
ENDBRANCH  39  49
ENDBRANCH   6  39
BRANCH   9  51
ATOM     51  C   UNL     1      50.689 -44.392  49.175  0.00  0.00    +0.000 C 
BRANCH  51  52
ATOM     52  O   UNL     1      51.922 -44.897  49.217  0.00  0.00    +0.000 OA
ATOM     53  H   UNL     1      52.423 -44.649  48.417  0.00  0.00    +0.000 HD
ENDBRANCH  51  52
ENDBRANCH   9  51
TORSDOF 13
ENDMDL
MODEL 4
REMARK VINA RESULT:      -6.1      2.643      9.197
REMARK  Name = 101808841_CandidaspongiolideA.pdbqt.pdb
REMARK  13 active torsions:
REMARK  status: ('A' for Active; 'I' for Inactive)
REMARK    1  A    between atoms: C_6  and  C_39
REMARK    2  A    between atoms: C_9  and  O_27
REMARK    3  A    between atoms: C_9  and  C_51
REMARK    4  A    between atoms: C_10  and  O_29
REMARK    5  A    between atoms: C_14  and  O_31
REMARK    6  A    between atoms: C_15  and  O_33
REMARK    7  A    between atoms: C_20  and  O_35
REMARK    8  A    between atoms: O_35  and  C_37
REMARK    9  A    between atoms: C_39  and  C_41
REMARK   10  A    between atoms: C_39  and  O_49
REMARK   11  A    between atoms: C_42  and  C_44
REMARK   12  A    between atoms: C_44  and  C_46
REMARK   13  A    between atoms: C_51  and  O_52
REMARK                            x       y       z     vdW  Elec       q    Type
REMARK                         _______ _______ _______ _____ _____    ______ ____
ROOT
ATOM      1  O   UNL     1      46.724 -43.242  47.032  0.00  0.00    +0.000 OA
ATOM      2  O   UNL     1      49.599 -44.534  49.743  0.00  0.00    +0.000 OA
ATOM      3  O   UNL     1      48.098 -41.641  46.099  0.00  0.00    +0.000 OA
ATOM      4  O   UNL     1      43.908 -46.188  52.639  0.00  0.00    +0.000 OA
ATOM      5  O   UNL     1      44.811 -45.347  47.050  0.00  0.00    +0.000 OA
ATOM      6  C   UNL     1      47.856 -42.965  49.525  0.00  0.00    +0.000 C 
ATOM      7  C   UNL     1      48.465 -44.205  50.100  0.00  0.00    +0.000 C 
ATOM      8  C   UNL     1      47.263 -43.064  48.235  0.00  0.00    +0.000 C 
ATOM      9  C   UNL     1      47.558 -45.040  51.044  0.00  0.00    +0.000 C 
ATOM     10  C   UNL     1      46.509 -45.796  50.246  0.00  0.00    +0.000 C 
ATOM     11  C   UNL     1      45.217 -46.101  50.765  0.00  0.00    +0.000 C 
ATOM     12  C   UNL     1      47.284 -42.550  46.011  0.00  0.00    +0.000 C 
ATOM     13  C   UNL     1      43.944 -46.345  51.423  0.00  0.00    +0.000 C 
ATOM     14  C   UNL     1      46.826 -43.065  44.700  0.00  0.00    +0.000 C 
ATOM     15  C   UNL     1      45.796 -44.068  44.522  0.00  0.00    +0.000 C 
ATOM     16  C   UNL     1      42.751 -46.770  50.620  0.00  0.00    +0.000 C 
ATOM     17  C   UNL     1      44.454 -44.046  45.091  0.00  0.00    +0.000 C 
ATOM     18  C   UNL     1      42.780 -45.809  45.867  0.00  0.00    +0.000 C 
ATOM     19  C   UNL     1      44.091 -45.109  46.079  0.00  0.00    +0.000 C 
ATOM     20  C   UNL     1      42.203 -46.584  46.968  0.00  0.00    +0.000 C 
ATOM     21  C   UNL     1      42.837 -47.050  49.233  0.00  0.00    +0.000 C 
ATOM     22  C   UNL     1      42.944 -47.316  47.970  0.00  0.00    +0.000 C 
ATOM     23  C   UNL     1      41.371 -46.946  51.217  0.00  0.00    +0.000 C 
ATOM     24  C   UNL     1      43.741 -42.700  45.237  0.00  0.00    +0.000 C 
ATOM     25  C   UNL     1      42.105 -45.805  44.500  0.00  0.00    +0.000 C 
ATOM     26  C   UNL     1      44.014 -48.312  47.599  0.00  0.00    +0.000 C 
ENDROOT
BRANCH   9  27
ATOM     27  O   UNL     1      46.888 -44.160  51.947  0.00  0.00    +0.000 OA
ATOM     28  H   UNL     1      46.133 -43.776  51.465  0.00  0.00    +0.000 HD
ENDBRANCH   9  27
BRANCH  10  29
ATOM     29  O   UNL     1      46.839 -46.227  48.976  0.00  0.00    +0.000 OA
ATOM     30  H   UNL     1      47.649 -46.771  48.941  0.00  0.00    +0.000 HD
ENDBRANCH  10  29
BRANCH  14  31
ATOM     31  O   UNL     1      47.447 -42.607  43.552  0.00  0.00    +0.000 OA
ATOM     32  H   UNL     1      46.931 -42.857  42.756  0.00  0.00    +0.000 HD
ENDBRANCH  14  31
BRANCH  15  33
ATOM     33  O   UNL     1      45.932 -44.815  43.363  0.00  0.00    +0.000 OA
ATOM     34  C   UNL     1      44.880 -44.534  42.477  0.00  0.00    +0.000 C 
ENDBRANCH  15  33
BRANCH  20  35
ATOM     35  O   UNL     1      40.837 -46.966  46.889  0.00  0.00    +0.000 OA
BRANCH  35  37
ATOM     36  O   UNL     1      40.322 -49.060  47.782  0.00  0.00    +0.000 OA
ATOM     37  C   UNL     1      40.633 -48.309  46.877  0.00  0.00    +0.000 C 
ATOM     38  C   UNL     1      40.880 -48.959  45.567  0.00  0.00    +0.000 C 
ENDBRANCH  35  37
ENDBRANCH  20  35
BRANCH   6  39
ATOM     39  C   UNL     1      47.968 -41.699  50.221  0.00  0.00    +0.000 C 
BRANCH  39  41
ATOM     40  O   UNL     1      47.934 -39.635  48.724  0.00  0.00    +0.000 OA
ATOM     41  C   UNL     1      48.657 -40.529  49.606  0.00  0.00    +0.000 C 
ATOM     42  C   UNL     1      48.122 -39.233  50.014  0.00  0.00    +0.000 C 
ATOM     43  C   UNL     1      50.094 -40.748  49.019  0.00  0.00    +0.000 C 
BRANCH  42  44
ATOM     44  C   UNL     1      48.968 -38.102  50.271  0.00  0.00    +0.000 C 
ATOM     45  C   UNL     1      49.734 -37.460  49.142  0.00  0.00    +0.000 C 
BRANCH  44  46
ATOM     46  C   UNL     1      48.676 -37.267  51.382  0.00  0.00    +0.000 C 
ATOM     47  C   UNL     1      48.365 -36.509  52.258  0.00  0.00    +0.000 C 
ATOM     48  C   UNL     1      47.905 -35.457  53.277  0.00  0.00    +0.000 C 
ENDBRANCH  44  46
ENDBRANCH  42  44
ENDBRANCH  39  41
BRANCH  39  49
ATOM     49  O   UNL     1      47.117 -41.551  51.306  0.00  0.00    +0.000 OA
ATOM     50  H   UNL     1      46.471 -42.280  51.378  0.00  0.00    +0.000 HD
ENDBRANCH  39  49
ENDBRANCH   6  39
BRANCH   9  51
ATOM     51  C   UNL     1      48.363 -46.010  51.824  0.00  0.00    +0.000 C 
BRANCH  51  52
ATOM     52  O   UNL     1      49.084 -46.901  52.505  0.00  0.00    +0.000 OA
ATOM     53  H   UNL     1      49.114 -47.753  52.032  0.00  0.00    +0.000 HD
ENDBRANCH  51  52
ENDBRANCH   9  51
TORSDOF 13
ENDMDL
MODEL 5
REMARK VINA RESULT:      -6.0      5.044      7.848
REMARK  Name = 101808841_CandidaspongiolideA.pdbqt.pdb
REMARK  13 active torsions:
REMARK  status: ('A' for Active; 'I' for Inactive)
REMARK    1  A    between atoms: C_6  and  C_39
REMARK    2  A    between atoms: C_9  and  O_27
REMARK    3  A    between atoms: C_9  and  C_51
REMARK    4  A    between atoms: C_10  and  O_29
REMARK    5  A    between atoms: C_14  and  O_31
REMARK    6  A    between atoms: C_15  and  O_33
REMARK    7  A    between atoms: C_20  and  O_35
REMARK    8  A    between atoms: O_35  and  C_37
REMARK    9  A    between atoms: C_39  and  C_41
REMARK   10  A    between atoms: C_39  and  O_49
REMARK   11  A    between atoms: C_42  and  C_44
REMARK   12  A    between atoms: C_44  and  C_46
REMARK   13  A    between atoms: C_51  and  O_52
REMARK                            x       y       z     vdW  Elec       q    Type
REMARK                         _______ _______ _______ _____ _____    ______ ____
ROOT
ATOM      1  O   UNL     1      49.581 -43.431  48.403  0.00  0.00    +0.000 OA
ATOM      2  O   UNL     1      52.550 -46.224  49.222  0.00  0.00    +0.000 OA
ATOM      3  O   UNL     1      49.034 -43.129  50.623  0.00  0.00    +0.000 OA
ATOM      4  O   UNL     1      50.748 -47.672  43.045  0.00  0.00    +0.000 OA
ATOM      5  O   UNL     1      50.135 -42.651  45.724  0.00  0.00    +0.000 OA
ATOM      6  C   UNL     1      50.242 -46.077  48.778  0.00  0.00    +0.000 C 
ATOM      7  C   UNL     1      51.645 -46.450  48.416  0.00  0.00    +0.000 C 
ATOM      8  C   UNL     1      49.860 -44.717  48.603  0.00  0.00    +0.000 C 
ATOM      9  C   UNL     1      51.856 -47.015  46.985  0.00  0.00    +0.000 C 
ATOM     10  C   UNL     1      51.772 -45.902  45.954  0.00  0.00    +0.000 C 
ATOM     11  C   UNL     1      51.294 -46.114  44.627  0.00  0.00    +0.000 C 
ATOM     12  C   UNL     1      49.272 -42.703  49.502  0.00  0.00    +0.000 C 
ATOM     13  C   UNL     1      50.791 -46.476  43.312  0.00  0.00    +0.000 C 
ATOM     14  C   UNL     1      49.302 -41.252  49.207  0.00  0.00    +0.000 C 
ATOM     15  C   UNL     1      49.480 -40.680  47.888  0.00  0.00    +0.000 C 
ATOM     16  C   UNL     1      50.356 -45.409  42.354  0.00  0.00    +0.000 C 
ATOM     17  C   UNL     1      48.715 -41.006  46.691  0.00  0.00    +0.000 C 
ATOM     18  C   UNL     1      49.201 -41.071  44.186  0.00  0.00    +0.000 C 
ATOM     19  C   UNL     1      49.435 -41.653  45.549  0.00  0.00    +0.000 C 
ATOM     20  C   UNL     1      49.572 -41.855  43.006  0.00  0.00    +0.000 C 
ATOM     21  C   UNL     1      50.513 -44.030  42.638  0.00  0.00    +0.000 C 
ATOM     22  C   UNL     1      50.682 -42.775  42.914  0.00  0.00    +0.000 C 
ATOM     23  C   UNL     1      49.730 -45.711  41.008  0.00  0.00    +0.000 C 
ATOM     24  C   UNL     1      47.227 -41.331  46.836  0.00  0.00    +0.000 C 
ATOM     25  C   UNL     1      48.681 -39.647  44.024  0.00  0.00    +0.000 C 
ATOM     26  C   UNL     1      52.083 -42.374  43.304  0.00  0.00    +0.000 C 
ENDROOT
BRANCH   9  27
ATOM     27  O   UNL     1      50.830 -47.968  46.703  0.00  0.00    +0.000 OA
ATOM     28  H   UNL     1      51.225 -48.653  46.133  0.00  0.00    +0.000 HD
ENDBRANCH   9  27
BRANCH  10  29
ATOM     29  O   UNL     1      52.205 -44.642  46.316  0.00  0.00    +0.000 OA
ATOM     30  H   UNL     1      51.832 -44.323  47.160  0.00  0.00    +0.000 HD
ENDBRANCH  10  29
BRANCH  14  31
ATOM     31  O   UNL     1      49.206 -40.358  50.259  0.00  0.00    +0.000 OA
ATOM     32  H   UNL     1      50.029 -40.362  50.792  0.00  0.00    +0.000 HD
ENDBRANCH  14  31
BRANCH  15  33
ATOM     33  O   UNL     1      50.059 -39.423  47.892  0.00  0.00    +0.000 OA
ATOM     34  C   UNL     1      49.136 -38.460  47.457  0.00  0.00    +0.000 C 
ENDBRANCH  15  33
BRANCH  20  35
ATOM     35  O   UNL     1      49.062 -41.463  41.739  0.00  0.00    +0.000 OA
BRANCH  35  37
ATOM     36  O   UNL     1      50.629 -39.854  41.106  0.00  0.00    +0.000 OA
ATOM     37  C   UNL     1      49.974 -40.864  40.931  0.00  0.00    +0.000 C 
ATOM     38  C   UNL     1      50.156 -41.520  39.612  0.00  0.00    +0.000 C 
ENDBRANCH  35  37
ENDBRANCH  20  35
BRANCH   6  39
ATOM     39  C   UNL     1      49.354 -47.049  49.381  0.00  0.00    +0.000 C 
BRANCH  39  41
ATOM     40  O   UNL     1      48.568 -45.750  51.430  0.00  0.00    +0.000 OA
ATOM     41  C   UNL     1      49.004 -46.994  50.829  0.00  0.00    +0.000 C 
ATOM     42  C   UNL     1      47.608 -46.661  51.100  0.00  0.00    +0.000 C 
ATOM     43  C   UNL     1      49.951 -47.728  51.841  0.00  0.00    +0.000 C 
BRANCH  42  44
ATOM     44  C   UNL     1      46.861 -47.292  52.150  0.00  0.00    +0.000 C 
ATOM     45  C   UNL     1      46.175 -46.453  53.198  0.00  0.00    +0.000 C 
BRANCH  44  46
ATOM     46  C   UNL     1      46.304 -48.578  51.917  0.00  0.00    +0.000 C 
ATOM     47  C   UNL     1      45.883 -49.695  51.806  0.00  0.00    +0.000 C 
ATOM     48  C   UNL     1      45.440 -51.165  51.765  0.00  0.00    +0.000 C 
ENDBRANCH  44  46
ENDBRANCH  42  44
ENDBRANCH  39  41
BRANCH  39  49
ATOM     49  O   UNL     1      48.603 -47.793  48.482  0.00  0.00    +0.000 OA
ATOM     50  H   UNL     1      47.809 -48.187  48.894  0.00  0.00    +0.000 HD
ENDBRANCH  39  49
ENDBRANCH   6  39
BRANCH   9  51
ATOM     51  C   UNL     1      53.176 -47.679  46.871  0.00  0.00    +0.000 C 
BRANCH  51  52
ATOM     52  O   UNL     1      54.372 -48.256  46.752  0.00  0.00    +0.000 OA
ATOM     53  H   UNL     1      54.709 -48.165  45.842  0.00  0.00    +0.000 HD
ENDBRANCH  51  52
ENDBRANCH   9  51
TORSDOF 13
ENDMDL
MODEL 6
REMARK VINA RESULT:      -6.0      8.873     13.624
REMARK  Name = 101808841_CandidaspongiolideA.pdbqt.pdb
REMARK  13 active torsions:
REMARK  status: ('A' for Active; 'I' for Inactive)
REMARK    1  A    between atoms: C_6  and  C_39
REMARK    2  A    between atoms: C_9  and  O_27
REMARK    3  A    between atoms: C_9  and  C_51
REMARK    4  A    between atoms: C_10  and  O_29
REMARK    5  A    between atoms: C_14  and  O_31
REMARK    6  A    between atoms: C_15  and  O_33
REMARK    7  A    between atoms: C_20  and  O_35
REMARK    8  A    between atoms: O_35  and  C_37
REMARK    9  A    between atoms: C_39  and  C_41
REMARK   10  A    between atoms: C_39  and  O_49
REMARK   11  A    between atoms: C_42  and  C_44
REMARK   12  A    between atoms: C_44  and  C_46
REMARK   13  A    between atoms: C_51  and  O_52
REMARK                            x       y       z     vdW  Elec       q    Type
REMARK                         _______ _______ _______ _____ _____    ______ ____
ROOT
ATOM      1  O   UNL     1      47.181 -53.431  54.586  0.00  0.00    +0.000 OA
ATOM      2  O   UNL     1      49.252 -53.287  58.188  0.00  0.00    +0.000 OA
ATOM      3  O   UNL     1      45.870 -51.601  55.085  0.00  0.00    +0.000 OA
ATOM      4  O   UNL     1      49.778 -59.605  56.371  0.00  0.00    +0.000 OA
ATOM      5  O   UNL     1      48.804 -55.112  52.962  0.00  0.00    +0.000 OA
ATOM      6  C   UNL     1      47.323 -54.227  57.216  0.00  0.00    +0.000 C 
ATOM      7  C   UNL     1      48.702 -54.316  57.791  0.00  0.00    +0.000 C 
ATOM      8  C   UNL     1      47.205 -53.815  55.859  0.00  0.00    +0.000 C 
ATOM      9  C   UNL     1      49.373 -55.716  57.748  0.00  0.00    +0.000 C 
ATOM     10  C   UNL     1      49.823 -56.050  56.336  0.00  0.00    +0.000 C 
ATOM     11  C   UNL     1      49.865 -57.384  55.834  0.00  0.00    +0.000 C 
ATOM     12  C   UNL     1      46.567 -52.254  54.321  0.00  0.00    +0.000 C 
ATOM     13  C   UNL     1      49.861 -58.789  55.460  0.00  0.00    +0.000 C 
ATOM     14  C   UNL     1      46.882 -51.781  52.953  0.00  0.00    +0.000 C 
ATOM     15  C   UNL     1      47.617 -52.544  51.965  0.00  0.00    +0.000 C 
ATOM     16  C   UNL     1      49.956 -59.183  54.017  0.00  0.00    +0.000 C 
ATOM     17  C   UNL     1      47.333 -53.907  51.533  0.00  0.00    +0.000 C 
ATOM     18  C   UNL     1      48.725 -55.874  50.693  0.00  0.00    +0.000 C 
ATOM     19  C   UNL     1      48.349 -54.965  51.826  0.00  0.00    +0.000 C 
ATOM     20  C   UNL     1      49.420 -57.129  50.989  0.00  0.00    +0.000 C 
ATOM     21  C   UNL     1      50.160 -58.230  52.987  0.00  0.00    +0.000 C 
ATOM     22  C   UNL     1      50.361 -57.343  52.065  0.00  0.00    +0.000 C 
ATOM     23  C   UNL     1      49.859 -60.617  53.542  0.00  0.00    +0.000 C 
ATOM     24  C   UNL     1      45.874 -54.361  51.448  0.00  0.00    +0.000 C 
ATOM     25  C   UNL     1      48.483 -55.459  49.246  0.00  0.00    +0.000 C 
ATOM     26  C   UNL     1      51.545 -56.434  52.280  0.00  0.00    +0.000 C 
ENDROOT
BRANCH   9  27
ATOM     27  O   UNL     1      48.425 -56.701  58.162  0.00  0.00    +0.000 OA
ATOM     28  H   UNL     1      48.370 -57.363  57.449  0.00  0.00    +0.000 HD
ENDBRANCH   9  27
BRANCH  10  29
ATOM     29  O   UNL     1      50.234 -55.015  55.520  0.00  0.00    +0.000 OA
ATOM     30  H   UNL     1      51.152 -54.724  55.682  0.00  0.00    +0.000 HD
ENDBRANCH  10  29
BRANCH  14  31
ATOM     31  O   UNL     1      46.502 -50.502  52.588  0.00  0.00    +0.000 OA
ATOM     32  H   UNL     1      45.687 -50.526  52.042  0.00  0.00    +0.000 HD
ENDBRANCH  14  31
BRANCH  15  33
ATOM     33  O   UNL     1      48.299 -51.765  51.045  0.00  0.00    +0.000 OA
ATOM     34  C   UNL     1      47.672 -51.830  49.792  0.00  0.00    +0.000 C 
ENDBRANCH  15  33
BRANCH  20  35
ATOM     35  O   UNL     1      49.483 -58.128  49.981  0.00  0.00    +0.000 OA
BRANCH  35  37
ATOM     36  O   UNL     1      47.810 -59.538  50.794  0.00  0.00    +0.000 OA
ATOM     37  C   UNL     1      48.384 -58.923  49.915  0.00  0.00    +0.000 C 
ATOM     38  C   UNL     1      47.835 -59.105  48.548  0.00  0.00    +0.000 C 
ENDBRANCH  35  37
ENDBRANCH  20  35
BRANCH   6  39
ATOM     39  C   UNL     1      46.162 -54.451  58.052  0.00  0.00    +0.000 C 
BRANCH  39  41
ATOM     40  O   UNL     1      43.748 -55.236  58.302  0.00  0.00    +0.000 OA
ATOM     41  C   UNL     1      45.004 -55.261  57.579  0.00  0.00    +0.000 C 
ATOM     42  C   UNL     1      43.842 -54.474  57.175  0.00  0.00    +0.000 C 
ATOM     43  C   UNL     1      45.279 -56.733  57.116  0.00  0.00    +0.000 C 
BRANCH  42  44
ATOM     44  C   UNL     1      43.041 -54.820  56.036  0.00  0.00    +0.000 C 
ATOM     45  C   UNL     1      41.825 -55.696  56.205  0.00  0.00    +0.000 C 
BRANCH  44  46
ATOM     46  C   UNL     1      43.030 -53.947  54.915  0.00  0.00    +0.000 C 
ATOM     47  C   UNL     1      43.004 -53.294  53.910  0.00  0.00    +0.000 C 
ATOM     48  C   UNL     1      42.975 -52.582  52.550  0.00  0.00    +0.000 C 
ENDBRANCH  44  46
ENDBRANCH  42  44
ENDBRANCH  39  41
BRANCH  39  49
ATOM     49  O   UNL     1      46.345 -54.167  59.398  0.00  0.00    +0.000 OA
ATOM     50  H   UNL     1      46.641 -53.248  59.550  0.00  0.00    +0.000 HD
ENDBRANCH  39  49
ENDBRANCH   6  39
BRANCH   9  51
ATOM     51  C   UNL     1      50.546 -55.766  58.653  0.00  0.00    +0.000 C 
BRANCH  51  52
ATOM     52  O   UNL     1      51.588 -55.794  59.484  0.00  0.00    +0.000 OA
ATOM     53  H   UNL     1      52.340 -56.263  59.077  0.00  0.00    +0.000 HD
ENDBRANCH  51  52
ENDBRANCH   9  51
TORSDOF 13
ENDMDL
MODEL 7
REMARK VINA RESULT:      -6.0      5.663      9.749
REMARK  Name = 101808841_CandidaspongiolideA.pdbqt.pdb
REMARK  13 active torsions:
REMARK  status: ('A' for Active; 'I' for Inactive)
REMARK    1  A    between atoms: C_6  and  C_39
REMARK    2  A    between atoms: C_9  and  O_27
REMARK    3  A    between atoms: C_9  and  C_51
REMARK    4  A    between atoms: C_10  and  O_29
REMARK    5  A    between atoms: C_14  and  O_31
REMARK    6  A    between atoms: C_15  and  O_33
REMARK    7  A    between atoms: C_20  and  O_35
REMARK    8  A    between atoms: O_35  and  C_37
REMARK    9  A    between atoms: C_39  and  C_41
REMARK   10  A    between atoms: C_39  and  O_49
REMARK   11  A    between atoms: C_42  and  C_44
REMARK   12  A    between atoms: C_44  and  C_46
REMARK   13  A    between atoms: C_51  and  O_52
REMARK                            x       y       z     vdW  Elec       q    Type
REMARK                         _______ _______ _______ _____ _____    ______ ____
ROOT
ATOM      1  O   UNL     1      51.277 -43.875  44.753  0.00  0.00    +0.000 OA
ATOM      2  O   UNL     1      48.974 -45.774  47.647  0.00  0.00    +0.000 OA
ATOM      3  O   UNL     1      52.191 -45.841  43.966  0.00  0.00    +0.000 OA
ATOM      4  O   UNL     1      49.747 -39.684  50.058  0.00  0.00    +0.000 OA
ATOM      5  O   UNL     1      50.107 -41.288  44.576  0.00  0.00    +0.000 OA
ATOM      6  C   UNL     1      51.105 -44.821  47.332  0.00  0.00    +0.000 C 
ATOM      7  C   UNL     1      49.730 -44.840  47.923  0.00  0.00    +0.000 C 
ATOM      8  C   UNL     1      51.238 -44.343  45.998  0.00  0.00    +0.000 C 
ATOM      9  C   UNL     1      49.334 -43.604  48.775  0.00  0.00    +0.000 C 
ATOM     10  C   UNL     1      49.050 -42.409  47.882  0.00  0.00    +0.000 C 
ATOM     11  C   UNL     1      49.289 -41.064  48.293  0.00  0.00    +0.000 C 
ATOM     12  C   UNL     1      51.680 -44.743  43.796  0.00  0.00    +0.000 C 
ATOM     13  C   UNL     1      49.578 -39.751  48.846  0.00  0.00    +0.000 C 
ATOM     14  C   UNL     1      51.378 -44.224  42.442  0.00  0.00    +0.000 C 
ATOM     15  C   UNL     1      50.865 -42.898  42.161  0.00  0.00    +0.000 C 
ATOM     16  C   UNL     1      49.655 -38.556  47.944  0.00  0.00    +0.000 C 
ATOM     17  C   UNL     1      51.425 -41.635  42.626  0.00  0.00    +0.000 C 
ATOM     18  C   UNL     1      50.480 -39.342  43.231  0.00  0.00    +0.000 C 
ATOM     19  C   UNL     1      50.603 -40.802  43.559  0.00  0.00    +0.000 C 
ATOM     20  C   UNL     1      50.009 -38.419  44.266  0.00  0.00    +0.000 C 
ATOM     21  C   UNL     1      49.350 -38.634  46.562  0.00  0.00    +0.000 C 
ATOM     22  C   UNL     1      49.052 -38.726  45.304  0.00  0.00    +0.000 C 
ATOM     23  C   UNL     1      50.047 -37.177  48.430  0.00  0.00    +0.000 C 
ATOM     24  C   UNL     1      52.944 -41.506  42.748  0.00  0.00    +0.000 C 
ATOM     25  C   UNL     1      50.739 -38.836  41.817  0.00  0.00    +0.000 C 
ATOM     26  C   UNL     1      47.709 -39.338  44.994  0.00  0.00    +0.000 C 
ENDROOT
BRANCH   9  27
ATOM     27  O   UNL     1      50.416 -43.269  49.644  0.00  0.00    +0.000 OA
ATOM     28  H   UNL     1      50.056 -42.691  50.341  0.00  0.00    +0.000 HD
ENDBRANCH   9  27
BRANCH  10  29
ATOM     29  O   UNL     1      48.512 -42.640  46.632  0.00  0.00    +0.000 OA
ATOM     30  H   UNL     1      48.045 -43.494  46.554  0.00  0.00    +0.000 HD
ENDBRANCH  10  29
BRANCH  14  31
ATOM     31  O   UNL     1      51.540 -45.065  41.355  0.00  0.00    +0.000 OA
ATOM     32  H   UNL     1      52.083 -45.844  41.599  0.00  0.00    +0.000 HD
ENDBRANCH  14  31
BRANCH  15  33
ATOM     33  O   UNL     1      50.116 -42.818  40.999  0.00  0.00    +0.000 OA
ATOM     34  C   UNL     1      48.751 -42.967  41.288  0.00  0.00    +0.000 C 
ENDBRANCH  15  33
BRANCH  20  35
ATOM     35  O   UNL     1      50.201 -37.024  44.074  0.00  0.00    +0.000 OA
BRANCH  35  37
ATOM     36  O   UNL     1      48.315 -36.447  42.826  0.00  0.00    +0.000 OA
ATOM     37  C   UNL     1      49.065 -36.341  43.777  0.00  0.00    +0.000 C 
ATOM     38  C   UNL     1      48.723 -35.266  44.741  0.00  0.00    +0.000 C 
ENDBRANCH  35  37
ENDBRANCH  20  35
BRANCH   6  39
ATOM     39  C   UNL     1      52.228 -45.371  48.063  0.00  0.00    +0.000 C 
BRANCH  39  41
ATOM     40  O   UNL     1      54.376 -46.746  48.060  0.00  0.00    +0.000 OA
ATOM     41  C   UNL     1      53.437 -45.891  47.362  0.00  0.00    +0.000 C 
ATOM     42  C   UNL     1      53.476 -47.344  47.227  0.00  0.00    +0.000 C 
ATOM     43  C   UNL     1      54.247 -44.896  46.462  0.00  0.00    +0.000 C 
BRANCH  42  44
ATOM     44  C   UNL     1      53.955 -47.990  46.039  0.00  0.00    +0.000 C 
ATOM     45  C   UNL     1      55.425 -48.285  45.879  0.00  0.00    +0.000 C 
BRANCH  44  46
ATOM     46  C   UNL     1      53.068 -48.825  45.307  0.00  0.00    +0.000 C 
ATOM     47  C   UNL     1      52.387 -49.525  44.612  0.00  0.00    +0.000 C 
ATOM     48  C   UNL     1      51.601 -50.385  43.612  0.00  0.00    +0.000 C 
ENDBRANCH  44  46
ENDBRANCH  42  44
ENDBRANCH  39  41
BRANCH  39  49
ATOM     49  O   UNL     1      52.250 -45.068  49.417  0.00  0.00    +0.000 OA
ATOM     50  H   UNL     1      51.357 -44.912  49.780  0.00  0.00    +0.000 HD
ENDBRANCH  39  49
ENDBRANCH   6  39
BRANCH   9  51
ATOM     51  C   UNL     1      48.131 -43.892  49.592  0.00  0.00    +0.000 C 
BRANCH  51  52
ATOM     52  O   UNL     1      47.046 -44.125  50.330  0.00  0.00    +0.000 OA
ATOM     53  H   UNL     1      46.236 -43.967  49.811  0.00  0.00    +0.000 HD
ENDBRANCH  51  52
ENDBRANCH   9  51
TORSDOF 13
ENDMDL
MODEL 8
REMARK VINA RESULT:      -6.0      2.106      9.186
REMARK  Name = 101808841_CandidaspongiolideA.pdbqt.pdb
REMARK  13 active torsions:
REMARK  status: ('A' for Active; 'I' for Inactive)
REMARK    1  A    between atoms: C_6  and  C_39
REMARK    2  A    between atoms: C_9  and  O_27
REMARK    3  A    between atoms: C_9  and  C_51
REMARK    4  A    between atoms: C_10  and  O_29
REMARK    5  A    between atoms: C_14  and  O_31
REMARK    6  A    between atoms: C_15  and  O_33
REMARK    7  A    between atoms: C_20  and  O_35
REMARK    8  A    between atoms: O_35  and  C_37
REMARK    9  A    between atoms: C_39  and  C_41
REMARK   10  A    between atoms: C_39  and  O_49
REMARK   11  A    between atoms: C_42  and  C_44
REMARK   12  A    between atoms: C_44  and  C_46
REMARK   13  A    between atoms: C_51  and  O_52
REMARK                            x       y       z     vdW  Elec       q    Type
REMARK                         _______ _______ _______ _____ _____    ______ ____
ROOT
ATOM      1  O   UNL     1      46.256 -43.224  46.108  0.00  0.00    +0.000 OA
ATOM      2  O   UNL     1      50.392 -43.357  46.509  0.00  0.00    +0.000 OA
ATOM      3  O   UNL     1      46.317 -41.723  44.357  0.00  0.00    +0.000 OA
ATOM      4  O   UNL     1      48.218 -45.054  52.500  0.00  0.00    +0.000 OA
ATOM      5  O   UNL     1      45.383 -45.516  47.549  0.00  0.00    +0.000 OA
ATOM      6  C   UNL     1      48.511 -42.168  47.279  0.00  0.00    +0.000 C 
ATOM      7  C   UNL     1      49.650 -43.120  47.464  0.00  0.00    +0.000 C 
ATOM      8  C   UNL     1      47.327 -42.673  46.673  0.00  0.00    +0.000 C 
ATOM      9  C   UNL     1      49.743 -43.816  48.849  0.00  0.00    +0.000 C 
ATOM     10  C   UNL     1      48.680 -44.894  48.977  0.00  0.00    +0.000 C 
ATOM     11  C   UNL     1      48.085 -45.247  50.224  0.00  0.00    +0.000 C 
ATOM     12  C   UNL     1      45.893 -42.735  44.899  0.00  0.00    +0.000 C 
ATOM     13  C   UNL     1      47.571 -45.503  51.560  0.00  0.00    +0.000 C 
ATOM     14  C   UNL     1      44.911 -43.624  44.235  0.00  0.00    +0.000 C 
ATOM     15  C   UNL     1      44.295 -44.780  44.852  0.00  0.00    +0.000 C 
ATOM     16  C   UNL     1      46.305 -46.286  51.741  0.00  0.00    +0.000 C 
ATOM     17  C   UNL     1      43.603 -44.814  46.135  0.00  0.00    +0.000 C 
ATOM     18  C   UNL     1      43.266 -46.554  47.972  0.00  0.00    +0.000 C 
ATOM     19  C   UNL     1      44.198 -45.637  47.234  0.00  0.00    +0.000 C 
ATOM     20  C   UNL     1      43.685 -47.104  49.263  0.00  0.00    +0.000 C 
ATOM     21  C   UNL     1      45.630 -46.889  50.650  0.00  0.00    +0.000 C 
ATOM     22  C   UNL     1      45.038 -47.444  49.640  0.00  0.00    +0.000 C 
ATOM     23  C   UNL     1      45.655 -46.509  53.090  0.00  0.00    +0.000 C 
ATOM     24  C   UNL     1      42.781 -43.595  46.558  0.00  0.00    +0.000 C 
ATOM     25  C   UNL     1      41.945 -46.991  47.348  0.00  0.00    +0.000 C 
ATOM     26  C   UNL     1      45.904 -48.332  48.783  0.00  0.00    +0.000 C 
ENDROOT
BRANCH   9  27
ATOM     27  O   UNL     1      49.526 -42.846  49.875  0.00  0.00    +0.000 OA
ATOM     28  H   UNL     1      49.153 -43.319  50.641  0.00  0.00    +0.000 HD
ENDBRANCH   9  27
BRANCH  10  29
ATOM     29  O   UNL     1      48.300 -45.576  47.839  0.00  0.00    +0.000 OA
ATOM     30  H   UNL     1      49.047 -45.848  47.273  0.00  0.00    +0.000 HD
ENDBRANCH  10  29
BRANCH  14  31
ATOM     31  O   UNL     1      44.583 -43.382  42.913  0.00  0.00    +0.000 OA
ATOM     32  H   UNL     1      45.283 -42.854  42.474  0.00  0.00    +0.000 HD
ENDBRANCH  14  31
BRANCH  15  33
ATOM     33  O   UNL     1      43.918 -45.765  43.954  0.00  0.00    +0.000 OA
ATOM     34  C   UNL     1      44.931 -46.728  43.833  0.00  0.00    +0.000 C 
ENDBRANCH  15  33
BRANCH  20  35
ATOM     35  O   UNL     1      42.703 -47.691  50.105  0.00  0.00    +0.000 OA
BRANCH  35  37
ATOM     36  O   UNL     1      42.291 -45.689  51.230  0.00  0.00    +0.000 OA
ATOM     37  C   UNL     1      41.985 -46.797  50.833  0.00  0.00    +0.000 C 
ATOM     38  C   UNL     1      40.642 -47.273  51.244  0.00  0.00    +0.000 C 
ENDBRANCH  35  37
ENDBRANCH  20  35
BRANCH   6  39
ATOM     39  C   UNL     1      48.663 -40.766  47.611  0.00  0.00    +0.000 C 
BRANCH  39  41
ATOM     40  O   UNL     1      50.401 -40.336  45.796  0.00  0.00    +0.000 OA
ATOM     41  C   UNL     1      49.410 -39.829  46.724  0.00  0.00    +0.000 C 
ATOM     42  C   UNL     1      49.168 -40.030  45.298  0.00  0.00    +0.000 C 
ATOM     43  C   UNL     1      49.952 -38.500  47.352  0.00  0.00    +0.000 C 
BRANCH  42  44
ATOM     44  C   UNL     1      49.044 -38.932  44.381  0.00  0.00    +0.000 C 
ATOM     45  C   UNL     1      50.279 -38.275  43.818  0.00  0.00    +0.000 C 
BRANCH  44  46
ATOM     46  C   UNL     1      47.866 -38.828  43.594  0.00  0.00    +0.000 C 
ATOM     47  C   UNL     1      46.897 -38.640  42.914  0.00  0.00    +0.000 C 
ATOM     48  C   UNL     1      45.683 -38.258  42.054  0.00  0.00    +0.000 C 
ENDBRANCH  44  46
ENDBRANCH  42  44
ENDBRANCH  39  41
BRANCH  39  49
ATOM     49  O   UNL     1      47.799 -40.300  48.593  0.00  0.00    +0.000 OA
ATOM     50  H   UNL     1      47.788 -39.325  48.649  0.00  0.00    +0.000 HD
ENDBRANCH  39  49
ENDBRANCH   6  39
BRANCH   9  51
ATOM     51  C   UNL     1      51.078 -44.431  49.040  0.00  0.00    +0.000 C 
BRANCH  51  52
ATOM     52  O   UNL     1      52.286 -44.963  49.230  0.00  0.00    +0.000 OA
ATOM     53  H   UNL     1      52.927 -44.277  49.493  0.00  0.00    +0.000 HD
ENDBRANCH  51  52
ENDBRANCH   9  51
TORSDOF 13
ENDMDL
MODEL 9
REMARK VINA RESULT:      -6.0     26.250     29.056
REMARK  Name = 101808841_CandidaspongiolideA.pdbqt.pdb
REMARK  13 active torsions:
REMARK  status: ('A' for Active; 'I' for Inactive)
REMARK    1  A    between atoms: C_6  and  C_39
REMARK    2  A    between atoms: C_9  and  O_27
REMARK    3  A    between atoms: C_9  and  C_51
REMARK    4  A    between atoms: C_10  and  O_29
REMARK    5  A    between atoms: C_14  and  O_31
REMARK    6  A    between atoms: C_15  and  O_33
REMARK    7  A    between atoms: C_20  and  O_35
REMARK    8  A    between atoms: O_35  and  C_37
REMARK    9  A    between atoms: C_39  and  C_41
REMARK   10  A    between atoms: C_39  and  O_49
REMARK   11  A    between atoms: C_42  and  C_44
REMARK   12  A    between atoms: C_44  and  C_46
REMARK   13  A    between atoms: C_51  and  O_52
REMARK                            x       y       z     vdW  Elec       q    Type
REMARK                         _______ _______ _______ _____ _____    ______ ____
ROOT
ATOM      1  O   UNL     1      43.779 -36.053  75.263  0.00  0.00    +0.000 OA
ATOM      2  O   UNL     1      47.477 -35.005  76.848  0.00  0.00    +0.000 OA
ATOM      3  O   UNL     1      43.663 -38.036  76.434  0.00  0.00    +0.000 OA
ATOM      4  O   UNL     1      47.285 -31.739  71.121  0.00  0.00    +0.000 OA
ATOM      5  O   UNL     1      42.817 -33.608  74.170  0.00  0.00    +0.000 OA
ATOM      6  C   UNL     1      46.520 -36.177  75.043  0.00  0.00    +0.000 C 
ATOM      7  C   UNL     1      47.269 -35.024  75.633  0.00  0.00    +0.000 C 
ATOM      8  C   UNL     1      45.100 -36.154  75.139  0.00  0.00    +0.000 C 
ATOM      9  C   UNL     1      47.643 -33.877  74.654  0.00  0.00    +0.000 C 
ATOM     10  C   UNL     1      46.417 -33.046  74.312  0.00  0.00    +0.000 C 
ATOM     11  C   UNL     1      46.254 -32.394  73.055  0.00  0.00    +0.000 C 
ATOM     12  C   UNL     1      43.170 -36.998  76.015  0.00  0.00    +0.000 C 
ATOM     13  C   UNL     1      46.225 -31.783  71.735  0.00  0.00    +0.000 C 
ATOM     14  C   UNL     1      41.780 -36.606  76.345  0.00  0.00    +0.000 C 
ATOM     15  C   UNL     1      41.100 -35.445  75.807  0.00  0.00    +0.000 C 
ATOM     16  C   UNL     1      44.939 -31.242  71.186  0.00  0.00    +0.000 C 
ATOM     17  C   UNL     1      40.970 -35.090  74.399  0.00  0.00    +0.000 C 
ATOM     18  C   UNL     1      40.800 -32.910  73.083  0.00  0.00    +0.000 C 
ATOM     19  C   UNL     1      41.630 -33.834  73.926  0.00  0.00    +0.000 C 
ATOM     20  C   UNL     1      41.470 -31.868  72.301  0.00  0.00    +0.000 C 
ATOM     21  C   UNL     1      43.748 -31.205  71.953  0.00  0.00    +0.000 C 
ATOM     22  C   UNL     1      42.675 -31.167  72.678  0.00  0.00    +0.000 C 
ATOM     23  C   UNL     1      44.809 -30.683  69.785  0.00  0.00    +0.000 C 
ATOM     24  C   UNL     1      40.811 -36.212  73.371  0.00  0.00    +0.000 C 
ATOM     25  C   UNL     1      39.278 -32.980  73.116  0.00  0.00    +0.000 C 
ATOM     26  C   UNL     1      42.817 -30.493  74.020  0.00  0.00    +0.000 C 
ENDROOT
BRANCH   9  27
ATOM     27  O   UNL     1      48.154 -34.443  73.446  0.00  0.00    +0.000 OA
ATOM     28  H   UNL     1      48.735 -33.773  73.041  0.00  0.00    +0.000 HD
ENDBRANCH   9  27
BRANCH  10  29
ATOM     29  O   UNL     1      45.439 -32.898  75.275  0.00  0.00    +0.000 OA
ATOM     30  H   UNL     1      45.125 -33.742  75.653  0.00  0.00    +0.000 HD
ENDBRANCH  10  29
BRANCH  14  31
ATOM     31  O   UNL     1      41.077 -37.359  77.269  0.00  0.00    +0.000 OA
ATOM     32  H   UNL     1      40.661 -38.135  76.838  0.00  0.00    +0.000 HD
ENDBRANCH  14  31
BRANCH  15  33
ATOM     33  O   UNL     1      40.116 -34.933  76.637  0.00  0.00    +0.000 OA
ATOM     34  C   UNL     1      40.636 -33.901  77.431  0.00  0.00    +0.000 C 
ENDBRANCH  15  33
BRANCH  20  35
ATOM     35  O   UNL     1      40.742 -31.218  71.268  0.00  0.00    +0.000 OA
BRANCH  35  37
ATOM     36  O   UNL     1      39.674 -29.523  72.463  0.00  0.00    +0.000 OA
ATOM     37  C   UNL     1      40.373 -29.945  71.562  0.00  0.00    +0.000 C 
ATOM     38  C   UNL     1      40.859 -28.923  70.601  0.00  0.00    +0.000 C 
ENDBRANCH  35  37
ENDBRANCH  20  35
BRANCH   6  39
ATOM     39  C   UNL     1      47.231 -37.314  74.496  0.00  0.00    +0.000 C 
BRANCH  39  41
ATOM     40  O   UNL     1      49.400 -38.641  74.299  0.00  0.00    +0.000 OA
ATOM     41  C   UNL     1      48.533 -37.767  75.064  0.00  0.00    +0.000 C 
ATOM     42  C   UNL     1      49.705 -37.312  74.321  0.00  0.00    +0.000 C 
ATOM     43  C   UNL     1      48.560 -38.229  76.561  0.00  0.00    +0.000 C 
BRANCH  42  44
ATOM     44  C   UNL     1      50.910 -36.888  74.976  0.00  0.00    +0.000 C 
ATOM     45  C   UNL     1      51.926 -37.908  75.422  0.00  0.00    +0.000 C 
BRANCH  44  46
ATOM     46  C   UNL     1      51.407 -35.583  74.717  0.00  0.00    +0.000 C 
ATOM     47  C   UNL     1      51.922 -34.522  74.496  0.00  0.00    +0.000 C 
ATOM     48  C   UNL     1      52.708 -33.228  74.242  0.00  0.00    +0.000 C 
ENDBRANCH  44  46
ENDBRANCH  42  44
ENDBRANCH  39  41
BRANCH  39  49
ATOM     49  O   UNL     1      46.477 -38.134  73.669  0.00  0.00    +0.000 OA
ATOM     50  H   UNL     1      45.529 -38.129  73.901  0.00  0.00    +0.000 HD
ENDBRANCH  39  49
ENDBRANCH   6  39
BRANCH   9  51
ATOM     51  C   UNL     1      48.674 -32.994  75.248  0.00  0.00    +0.000 C 
BRANCH  51  52
ATOM     52  O   UNL     1      49.620 -32.219  75.779  0.00  0.00    +0.000 OA
ATOM     53  H   UNL     1      49.261 -31.700  76.523  0.00  0.00    +0.000 HD
ENDBRANCH  51  52
ENDBRANCH   9  51
TORSDOF 13
ENDMDL
