MODEL 1
REMARK VINA RESULT:      -7.2      0.000      0.000
REMARK  Name = 101808842_CandidaspongiolideB.pdbqt.pdb
REMARK  12 active torsions:
REMARK  status: ('A' for Active; 'I' for Inactive)
REMARK    1  A    between atoms: C_6  and  C_42
REMARK    2  A    between atoms: C_7  and  O_28
REMARK    3  A    between atoms: C_10  and  O_30
REMARK    4  A    between atoms: C_13  and  O_32
REMARK    5  A    between atoms: C_19  and  O_34
REMARK    6  A    between atoms: C_20  and  O_38
REMARK    7  A    between atoms: C_21  and  O_36
REMARK    8  A    between atoms: O_38  and  C_40
REMARK    9  A    between atoms: C_42  and  C_44
REMARK   10  A    between atoms: C_42  and  O_52
REMARK   11  A    between atoms: C_45  and  C_47
REMARK   12  A    between atoms: C_47  and  C_49
REMARK                            x       y       z     vdW  Elec       q    Type
REMARK                         _______ _______ _______ _____ _____    ______ ____
ROOT
ATOM      1  O   UNL     1      46.947 -42.705  51.880  0.00  0.00    +0.000 OA
ATOM      2  O   UNL     1      49.237 -48.099  48.292  0.00  0.00    +0.000 OA
ATOM      3  O   UNL     1      46.062 -45.979  50.147  0.00  0.00    +0.000 OA
ATOM      4  O   UNL     1      48.376 -46.164  47.377  0.00  0.00    +0.000 OA
ATOM      5  O   UNL     1      50.206 -43.836  47.360  0.00  0.00    +0.000 OA
ATOM      6  C   UNL     1      47.698 -47.610  50.526  0.00  0.00    +0.000 C 
ATOM      7  C   UNL     1      48.001 -45.218  51.460  0.00  0.00    +0.000 C 
ATOM      8  C   UNL     1      47.152 -46.231  50.662  0.00  0.00    +0.000 C 
ATOM      9  C   UNL     1      48.476 -47.916  49.372  0.00  0.00    +0.000 C 
ATOM     10  C   UNL     1      49.011 -44.508  50.537  0.00  0.00    +0.000 C 
ATOM     11  C   UNL     1      48.899 -43.086  50.492  0.00  0.00    +0.000 C 
ATOM     12  C   UNL     1      47.194 -44.031  51.892  0.00  0.00    +0.000 C 
ATOM     13  C   UNL     1      47.999 -42.039  51.068  0.00  0.00    +0.000 C 
ATOM     14  C   UNL     1      47.335 -41.208  49.960  0.00  0.00    +0.000 C 
ATOM     15  C   UNL     1      47.366 -41.635  48.600  0.00  0.00    +0.000 C 
ATOM     16  C   UNL     1      46.689 -39.836  50.130  0.00  0.00    +0.000 C 
ATOM     17  C   UNL     1      49.175 -47.090  47.381  0.00  0.00    +0.000 C 
ATOM     18  C   UNL     1      47.458 -42.071  47.381  0.00  0.00    +0.000 C 
ATOM     19  C   UNL     1      50.286 -47.201  46.407  0.00  0.00    +0.000 C 
ATOM     20  C   UNL     1      48.498 -41.614  46.489  0.00  0.00    +0.000 C 
ATOM     21  C   UNL     1      50.699 -46.068  45.602  0.00  0.00    +0.000 C 
ATOM     22  C   UNL     1      49.332 -42.453  45.631  0.00  0.00    +0.000 C 
ATOM     23  C   UNL     1      49.891 -44.914  45.239  0.00  0.00    +0.000 C 
ATOM     24  C   UNL     1      49.838 -43.753  46.183  0.00  0.00    +0.000 C 
ATOM     25  C   UNL     1      46.560 -43.215  47.008  0.00  0.00    +0.000 C 
ATOM     26  C   UNL     1      50.062 -41.828  44.443  0.00  0.00    +0.000 C 
ATOM     27  C   UNL     1      48.941 -45.030  44.052  0.00  0.00    +0.000 C 
ENDROOT
BRANCH   7  28
ATOM     28  O   UNL     1      48.689 -45.731  52.583  0.00  0.00    +0.000 OA
ATOM     29  H   UNL     1      49.010 -44.960  53.085  0.00  0.00    +0.000 HD
ENDBRANCH   7  28
BRANCH  10  30
ATOM     30  O   UNL     1      49.964 -45.185  49.822  0.00  0.00    +0.000 OA
ATOM     31  H   UNL     1      50.843 -45.119  50.251  0.00  0.00    +0.000 HD
ENDBRANCH  10  30
BRANCH  13  32
ATOM     32  O   UNL     1      48.782 -41.216  51.928  0.00  0.00    +0.000 OA
ATOM     33  H   UNL     1      48.530 -41.464  52.832  0.00  0.00    +0.000 HD
ENDBRANCH  13  32
BRANCH  19  34
ATOM     34  O   UNL     1      51.073 -48.335  46.319  0.00  0.00    +0.000 OA
ATOM     35  H   UNL     1      50.754 -48.974  45.648  0.00  0.00    +0.000 HD
ENDBRANCH  19  34
BRANCH  21  36
ATOM     36  O   UNL     1      51.827 -46.289  44.829  0.00  0.00    +0.000 OA
ATOM     37  C   UNL     1      52.908 -45.514  45.286  0.00  0.00    +0.000 C 
ENDBRANCH  21  36
BRANCH  20  38
ATOM     38  O   UNL     1      48.493 -40.222  46.234  0.00  0.00    +0.000 OA
BRANCH  38  40
ATOM     39  O   UNL     1      50.175 -40.033  47.836  0.00  0.00    +0.000 OA
ATOM     40  C   UNL     1      49.347 -39.576  47.070  0.00  0.00    +0.000 C 
ATOM     41  C   UNL     1      49.200 -38.100  47.102  0.00  0.00    +0.000 C 
ENDBRANCH  38  40
ENDBRANCH  20  38
BRANCH   6  42
ATOM     42  C   UNL     1      47.240 -48.628  51.445  0.00  0.00    +0.000 C 
BRANCH  42  44
ATOM     43  O   UNL     1      45.399 -50.202  52.172  0.00  0.00    +0.000 OA
ATOM     44  C   UNL     1      46.135 -49.561  51.101  0.00  0.00    +0.000 C 
ATOM     45  C   UNL     1      44.835 -49.104  51.582  0.00  0.00    +0.000 C 
ATOM     46  C   UNL     1      46.354 -50.595  49.947  0.00  0.00    +0.000 C 
BRANCH  45  47
ATOM     47  C   UNL     1      43.599 -49.300  50.886  0.00  0.00    +0.000 C 
ATOM     48  C   UNL     1      42.842 -50.595  51.033  0.00  0.00    +0.000 C 
BRANCH  47  49
ATOM     49  C   UNL     1      42.848 -48.185  50.434  0.00  0.00    +0.000 C 
ATOM     50  C   UNL     1      42.162 -47.264  50.092  0.00  0.00    +0.000 C 
ATOM     51  C   UNL     1      41.192 -46.141  49.715  0.00  0.00    +0.000 C 
ENDBRANCH  47  49
ENDBRANCH  45  47
ENDBRANCH  42  44
BRANCH  42  52
ATOM     52  O   UNL     1      47.923 -48.691  52.652  0.00  0.00    +0.000 OA
ATOM     53  H   UNL     1      48.882 -48.844  52.525  0.00  0.00    +0.000 HD
ENDBRANCH  42  52
ENDBRANCH   6  42
TORSDOF 12
ENDMDL
MODEL 2
REMARK VINA RESULT:      -7.1      1.797      2.827
REMARK  Name = 101808842_CandidaspongiolideB.pdbqt.pdb
REMARK  12 active torsions:
REMARK  status: ('A' for Active; 'I' for Inactive)
REMARK    1  A    between atoms: C_6  and  C_42
REMARK    2  A    between atoms: C_7  and  O_28
REMARK    3  A    between atoms: C_10  and  O_30
REMARK    4  A    between atoms: C_13  and  O_32
REMARK    5  A    between atoms: C_19  and  O_34
REMARK    6  A    between atoms: C_20  and  O_38
REMARK    7  A    between atoms: C_21  and  O_36
REMARK    8  A    between atoms: O_38  and  C_40
REMARK    9  A    between atoms: C_42  and  C_44
REMARK   10  A    between atoms: C_42  and  O_52
REMARK   11  A    between atoms: C_45  and  C_47
REMARK   12  A    between atoms: C_47  and  C_49
REMARK                            x       y       z     vdW  Elec       q    Type
REMARK                         _______ _______ _______ _____ _____    ______ ____
ROOT
ATOM      1  O   UNL     1      47.011 -42.912  51.790  0.00  0.00    +0.000 OA
ATOM      2  O   UNL     1      49.338 -48.494  48.528  0.00  0.00    +0.000 OA
ATOM      3  O   UNL     1      46.155 -46.305  50.287  0.00  0.00    +0.000 OA
ATOM      4  O   UNL     1      48.433 -46.636  47.502  0.00  0.00    +0.000 OA
ATOM      5  O   UNL     1      50.225 -44.287  47.306  0.00  0.00    +0.000 OA
ATOM      6  C   UNL     1      47.822 -47.883  50.748  0.00  0.00    +0.000 C 
ATOM      7  C   UNL     1      48.099 -45.430  51.520  0.00  0.00    +0.000 C 
ATOM      8  C   UNL     1      47.256 -46.506  50.802  0.00  0.00    +0.000 C 
ATOM      9  C   UNL     1      48.588 -48.252  49.606  0.00  0.00    +0.000 C 
ATOM     10  C   UNL     1      49.085 -44.767  50.538  0.00  0.00    +0.000 C 
ATOM     11  C   UNL     1      48.949 -43.353  50.401  0.00  0.00    +0.000 C 
ATOM     12  C   UNL     1      47.279 -44.231  51.885  0.00  0.00    +0.000 C 
ATOM     13  C   UNL     1      48.040 -42.285  50.921  0.00  0.00    +0.000 C 
ATOM     14  C   UNL     1      47.348 -41.538  49.771  0.00  0.00    +0.000 C 
ATOM     15  C   UNL     1      47.367 -42.053  48.441  0.00  0.00    +0.000 C 
ATOM     16  C   UNL     1      46.683 -40.168  49.860  0.00  0.00    +0.000 C 
ATOM     17  C   UNL     1      49.247 -47.547  47.554  0.00  0.00    +0.000 C 
ATOM     18  C   UNL     1      47.450 -42.566  47.253  0.00  0.00    +0.000 C 
ATOM     19  C   UNL     1      50.346 -47.706  46.573  0.00  0.00    +0.000 C 
ATOM     20  C   UNL     1      48.470 -42.153  46.317  0.00  0.00    +0.000 C 
ATOM     21  C   UNL     1      50.730 -46.622  45.690  0.00  0.00    +0.000 C 
ATOM     22  C   UNL     1      49.306 -43.034  45.503  0.00  0.00    +0.000 C 
ATOM     23  C   UNL     1      49.898 -45.506  45.265  0.00  0.00    +0.000 C 
ATOM     24  C   UNL     1      49.840 -44.287  46.132  0.00  0.00    +0.000 C 
ATOM     25  C   UNL     1      46.565 -43.746  46.968  0.00  0.00    +0.000 C 
ATOM     26  C   UNL     1      50.009 -42.476  44.267  0.00  0.00    +0.000 C 
ATOM     27  C   UNL     1      48.935 -45.714  44.102  0.00  0.00    +0.000 C 
ENDROOT
BRANCH   7  28
ATOM     28  O   UNL     1      48.811 -45.859  52.663  0.00  0.00    +0.000 OA
ATOM     29  H   UNL     1      49.694 -46.130  52.351  0.00  0.00    +0.000 HD
ENDBRANCH   7  28
BRANCH  10  30
ATOM     30  O   UNL     1      50.039 -45.475  49.854  0.00  0.00    +0.000 OA
ATOM     31  H   UNL     1      50.201 -45.088  48.968  0.00  0.00    +0.000 HD
ENDBRANCH  10  30
BRANCH  13  32
ATOM     32  O   UNL     1      48.822 -41.395  51.713  0.00  0.00    +0.000 OA
ATOM     33  H   UNL     1      49.747 -41.591  51.494  0.00  0.00    +0.000 HD
ENDBRANCH  13  32
BRANCH  19  34
ATOM     34  O   UNL     1      51.150 -48.830  46.548  0.00  0.00    +0.000 OA
ATOM     35  H   UNL     1      51.992 -48.713  47.033  0.00  0.00    +0.000 HD
ENDBRANCH  19  34
BRANCH  21  36
ATOM     36  O   UNL     1      51.851 -46.875  44.917  0.00  0.00    +0.000 OA
ATOM     37  C   UNL     1      52.922 -46.050  45.300  0.00  0.00    +0.000 C 
ENDBRANCH  21  36
BRANCH  20  38
ATOM     38  O   UNL     1      48.439 -40.780  45.972  0.00  0.00    +0.000 OA
BRANCH  38  40
ATOM     39  O   UNL     1      50.201 -40.440  47.458  0.00  0.00    +0.000 OA
ATOM     40  C   UNL     1      49.267 -40.063  46.775  0.00  0.00    +0.000 C 
ATOM     41  C   UNL     1      48.940 -38.620  46.887  0.00  0.00    +0.000 C 
ENDBRANCH  38  40
ENDBRANCH  20  38
BRANCH   6  42
ATOM     42  C   UNL     1      47.392 -48.845  51.738  0.00  0.00    +0.000 C 
BRANCH  42  44
ATOM     43  O   UNL     1      48.492 -51.009  51.029  0.00  0.00    +0.000 OA
ATOM     44  C   UNL     1      47.298 -50.298  51.437  0.00  0.00    +0.000 C 
ATOM     45  C   UNL     1      48.103 -51.118  52.336  0.00  0.00    +0.000 C 
ATOM     46  C   UNL     1      46.087 -50.815  50.592  0.00  0.00    +0.000 C 
BRANCH  45  47
ATOM     47  C   UNL     1      47.729 -52.420  52.800  0.00  0.00    +0.000 C 
ATOM     48  C   UNL     1      47.971 -53.632  51.936  0.00  0.00    +0.000 C 
BRANCH  47  49
ATOM     49  C   UNL     1      47.560 -52.665  54.186  0.00  0.00    +0.000 C 
ATOM     50  C   UNL     1      47.443 -52.809  55.370  0.00  0.00    +0.000 C 
ATOM     51  C   UNL     1      47.359 -52.891  56.897  0.00  0.00    +0.000 C 
ENDBRANCH  47  49
ENDBRANCH  45  47
ENDBRANCH  42  44
BRANCH  42  52
ATOM     52  O   UNL     1      47.106 -48.321  52.992  0.00  0.00    +0.000 OA
ATOM     53  H   UNL     1      47.365 -47.380  53.066  0.00  0.00    +0.000 HD
ENDBRANCH  42  52
ENDBRANCH   6  42
TORSDOF 12
ENDMDL
MODEL 3
REMARK VINA RESULT:      -7.0     16.245     20.259
REMARK  Name = 101808842_CandidaspongiolideB.pdbqt.pdb
REMARK  12 active torsions:
REMARK  status: ('A' for Active; 'I' for Inactive)
REMARK    1  A    between atoms: C_6  and  C_42
REMARK    2  A    between atoms: C_7  and  O_28
REMARK    3  A    between atoms: C_10  and  O_30
REMARK    4  A    between atoms: C_13  and  O_32
REMARK    5  A    between atoms: C_19  and  O_34
REMARK    6  A    between atoms: C_20  and  O_38
REMARK    7  A    between atoms: C_21  and  O_36
REMARK    8  A    between atoms: O_38  and  C_40
REMARK    9  A    between atoms: C_42  and  C_44
REMARK   10  A    between atoms: C_42  and  O_52
REMARK   11  A    between atoms: C_45  and  C_47
REMARK   12  A    between atoms: C_47  and  C_49
REMARK                            x       y       z     vdW  Elec       q    Type
REMARK                         _______ _______ _______ _____ _____    ______ ____
ROOT
ATOM      1  O   UNL     1      57.857 -51.465  57.889  0.00  0.00    +0.000 OA
ATOM      2  O   UNL     1      60.761 -48.702  63.470  0.00  0.00    +0.000 OA
ATOM      3  O   UNL     1      57.482 -49.033  60.796  0.00  0.00    +0.000 OA
ATOM      4  O   UNL     1      59.382 -50.552  63.468  0.00  0.00    +0.000 OA
ATOM      5  O   UNL     1      60.640 -53.080  62.577  0.00  0.00    +0.000 OA
ATOM      6  C   UNL     1      59.470 -47.861  61.185  0.00  0.00    +0.000 C 
ATOM      7  C   UNL     1      59.367 -49.681  59.351  0.00  0.00    +0.000 C 
ATOM      8  C   UNL     1      58.660 -48.885  60.469  0.00  0.00    +0.000 C 
ATOM      9  C   UNL     1      60.132 -48.243  62.386  0.00  0.00    +0.000 C 
ATOM     10  C   UNL     1      60.063 -50.929  59.928  0.00  0.00    +0.000 C 
ATOM     11  C   UNL     1      59.638 -52.174  59.375  0.00  0.00    +0.000 C 
ATOM     12  C   UNL     1      58.387 -50.352  58.438  0.00  0.00    +0.000 C 
ATOM     13  C   UNL     1      58.618 -52.641  58.385  0.00  0.00    +0.000 C 
ATOM     14  C   UNL     1      57.644 -53.643  59.024  0.00  0.00    +0.000 C 
ATOM     15  C   UNL     1      57.583 -53.811  60.439  0.00  0.00    +0.000 C 
ATOM     16  C   UNL     1      56.744 -54.622  58.278  0.00  0.00    +0.000 C 
ATOM     17  C   UNL     1      60.357 -49.937  63.876  0.00  0.00    +0.000 C 
ATOM     18  C   UNL     1      57.602 -53.930  61.731  0.00  0.00    +0.000 C 
ATOM     19  C   UNL     1      61.322 -50.506  64.845  0.00  0.00    +0.000 C 
ATOM     20  C   UNL     1      58.385 -54.951  62.387  0.00  0.00    +0.000 C 
ATOM     21  C   UNL     1      61.365 -51.929  65.120  0.00  0.00    +0.000 C 
ATOM     22  C   UNL     1      59.258 -54.761  63.544  0.00  0.00    +0.000 C 
ATOM     23  C   UNL     1      60.282 -52.885  64.942  0.00  0.00    +0.000 C 
ATOM     24  C   UNL     1      60.106 -53.524  63.599  0.00  0.00    +0.000 C 
ATOM     25  C   UNL     1      56.933 -52.838  62.516  0.00  0.00    +0.000 C 
ATOM     26  C   UNL     1      59.666 -55.967  64.387  0.00  0.00    +0.000 C 
ATOM     27  C   UNL     1      59.229 -53.009  66.037  0.00  0.00    +0.000 C 
ENDROOT
BRANCH   7  28
ATOM     28  O   UNL     1      60.297 -48.960  58.568  0.00  0.00    +0.000 OA
ATOM     29  H   UNL     1      59.903 -48.082  58.411  0.00  0.00    +0.000 HD
ENDBRANCH   7  28
BRANCH  10  30
ATOM     30  O   UNL     1      61.035 -50.857  60.892  0.00  0.00    +0.000 OA
ATOM     31  H   UNL     1      61.454 -51.731  61.040  0.00  0.00    +0.000 HD
ENDBRANCH  10  30
BRANCH  13  32
ATOM     32  O   UNL     1      59.312 -53.229  57.288  0.00  0.00    +0.000 OA
ATOM     33  H   UNL     1      60.256 -53.100  57.474  0.00  0.00    +0.000 HD
ENDBRANCH  13  32
BRANCH  19  34
ATOM     34  O   UNL     1      62.318 -49.741  65.423  0.00  0.00    +0.000 OA
ATOM     35  H   UNL     1      62.140 -48.779  65.377  0.00  0.00    +0.000 HD
ENDBRANCH  19  34
BRANCH  21  36
ATOM     36  O   UNL     1      62.398 -52.327  65.952  0.00  0.00    +0.000 OA
ATOM     37  C   UNL     1      63.304 -53.155  65.266  0.00  0.00    +0.000 C 
ENDBRANCH  21  36
BRANCH  20  38
ATOM     38  O   UNL     1      58.042 -56.279  62.039  0.00  0.00    +0.000 OA
BRANCH  38  40
ATOM     39  O   UNL     1      56.332 -56.609  63.587  0.00  0.00    +0.000 OA
ATOM     40  C   UNL     1      56.785 -56.577  62.458  0.00  0.00    +0.000 C 
ATOM     41  C   UNL     1      55.847 -56.992  61.386  0.00  0.00    +0.000 C 
ENDBRANCH  38  40
ENDBRANCH  20  38
BRANCH   6  42
ATOM     42  C   UNL     1      59.374 -46.482  60.757  0.00  0.00    +0.000 C 
BRANCH  42  44
ATOM     43  O   UNL     1      61.092 -44.728  60.154  0.00  0.00    +0.000 OA
ATOM     44  C   UNL     1      60.320 -45.894  59.774  0.00  0.00    +0.000 C 
ATOM     45  C   UNL     1      61.709 -45.947  60.218  0.00  0.00    +0.000 C 
ATOM     46  C   UNL     1      59.858 -45.733  58.287  0.00  0.00    +0.000 C 
BRANCH  45  47
ATOM     47  C   UNL     1      62.830 -46.159  59.353  0.00  0.00    +0.000 C 
ATOM     48  C   UNL     1      63.790 -45.033  59.066  0.00  0.00    +0.000 C 
BRANCH  47  49
ATOM     49  C   UNL     1      63.317 -47.470  59.121  0.00  0.00    +0.000 C 
ATOM     50  C   UNL     1      63.671 -48.592  58.891  0.00  0.00    +0.000 C 
ATOM     51  C   UNL     1      64.009 -50.047  58.555  0.00  0.00    +0.000 C 
ENDBRANCH  47  49
ENDBRANCH  45  47
ENDBRANCH  42  44
BRANCH  42  52
ATOM     52  O   UNL     1      58.320 -45.762  61.305  0.00  0.00    +0.000 OA
ATOM     53  H   UNL     1      58.166 -44.919  60.833  0.00  0.00    +0.000 HD
ENDBRANCH  42  52
ENDBRANCH   6  42
TORSDOF 12
ENDMDL
MODEL 4
REMARK VINA RESULT:      -6.9      1.805      2.545
REMARK  Name = 101808842_CandidaspongiolideB.pdbqt.pdb
REMARK  12 active torsions:
REMARK  status: ('A' for Active; 'I' for Inactive)
REMARK    1  A    between atoms: C_6  and  C_42
REMARK    2  A    between atoms: C_7  and  O_28
REMARK    3  A    between atoms: C_10  and  O_30
REMARK    4  A    between atoms: C_13  and  O_32
REMARK    5  A    between atoms: C_19  and  O_34
REMARK    6  A    between atoms: C_20  and  O_38
REMARK    7  A    between atoms: C_21  and  O_36
REMARK    8  A    between atoms: O_38  and  C_40
REMARK    9  A    between atoms: C_42  and  C_44
REMARK   10  A    between atoms: C_42  and  O_52
REMARK   11  A    between atoms: C_45  and  C_47
REMARK   12  A    between atoms: C_47  and  C_49
REMARK                            x       y       z     vdW  Elec       q    Type
REMARK                         _______ _______ _______ _____ _____    ______ ____
ROOT
ATOM      1  O   UNL     1      46.906 -42.662  51.654  0.00  0.00    +0.000 OA
ATOM      2  O   UNL     1      49.005 -47.360  47.101  0.00  0.00    +0.000 OA
ATOM      3  O   UNL     1      45.900 -45.488  49.309  0.00  0.00    +0.000 OA
ATOM      4  O   UNL     1      48.250 -45.244  46.575  0.00  0.00    +0.000 OA
ATOM      5  O   UNL     1      50.186 -43.050  47.027  0.00  0.00    +0.000 OA
ATOM      6  C   UNL     1      47.452 -47.240  49.375  0.00  0.00    +0.000 C 
ATOM      7  C   UNL     1      47.849 -45.093  50.761  0.00  0.00    +0.000 C 
ATOM      8  C   UNL     1      46.968 -45.889  49.774  0.00  0.00    +0.000 C 
ATOM      9  C   UNL     1      48.234 -47.354  48.191  0.00  0.00    +0.000 C 
ATOM     10  C   UNL     1      48.907 -44.267  50.003  0.00  0.00    +0.000 C 
ATOM     11  C   UNL     1      48.861 -42.860  50.234  0.00  0.00    +0.000 C 
ATOM     12  C   UNL     1      47.091 -43.975  51.410  0.00  0.00    +0.000 C 
ATOM     13  C   UNL     1      48.001 -41.903  50.997  0.00  0.00    +0.000 C 
ATOM     14  C   UNL     1      47.395 -40.841  50.067  0.00  0.00    +0.000 C 
ATOM     15  C   UNL     1      47.430 -40.996  48.649  0.00  0.00    +0.000 C 
ATOM     16  C   UNL     1      46.811 -39.498  50.496  0.00  0.00    +0.000 C 
ATOM     17  C   UNL     1      49.005 -46.191  46.404  0.00  0.00    +0.000 C 
ATOM     18  C   UNL     1      47.523 -41.190  47.370  0.00  0.00    +0.000 C 
ATOM     19  C   UNL     1      50.126 -46.165  45.436  0.00  0.00    +0.000 C 
ATOM     20  C   UNL     1      48.598 -40.620  46.592  0.00  0.00    +0.000 C 
ATOM     21  C   UNL     1      50.606 -44.918  44.871  0.00  0.00    +0.000 C 
ATOM     22  C   UNL     1      49.407 -41.316  45.594  0.00  0.00    +0.000 C 
ATOM     23  C   UNL     1      49.858 -43.677  44.734  0.00  0.00    +0.000 C 
ATOM     24  C   UNL     1      49.843 -42.721  45.886  0.00  0.00    +0.000 C 
ATOM     25  C   UNL     1      46.579 -42.195  46.774  0.00  0.00    +0.000 C 
ATOM     26  C   UNL     1      50.186 -40.507  44.557  0.00  0.00    +0.000 C 
ATOM     27  C   UNL     1      48.925 -43.514  43.539  0.00  0.00    +0.000 C 
ENDROOT
BRANCH   7  28
ATOM     28  O   UNL     1      48.493 -45.848  51.767  0.00  0.00    +0.000 OA
ATOM     29  H   UNL     1      47.788 -46.210  52.334  0.00  0.00    +0.000 HD
ENDBRANCH   7  28
BRANCH  10  30
ATOM     30  O   UNL     1      49.839 -44.838  49.176  0.00  0.00    +0.000 OA
ATOM     31  H   UNL     1      50.678 -44.330  49.183  0.00  0.00    +0.000 HD
ENDBRANCH  10  30
BRANCH  13  32
ATOM     32  O   UNL     1      48.807 -41.302  52.007  0.00  0.00    +0.000 OA
ATOM     33  H   UNL     1      48.936 -41.986  52.682  0.00  0.00    +0.000 HD
ENDBRANCH  13  32
BRANCH  19  34
ATOM     34  O   UNL     1      50.861 -47.296  45.134  0.00  0.00    +0.000 OA
ATOM     35  H   UNL     1      50.336 -47.987  44.679  0.00  0.00    +0.000 HD
ENDBRANCH  19  34
BRANCH  21  36
ATOM     36  O   UNL     1      51.735 -45.039  44.079  0.00  0.00    +0.000 OA
ATOM     37  C   UNL     1      52.881 -44.605  44.769  0.00  0.00    +0.000 C 
ENDBRANCH  21  36
BRANCH  20  38
ATOM     38  O   UNL     1      48.662 -39.206  46.614  0.00  0.00    +0.000 OA
BRANCH  38  40
ATOM     39  O   UNL     1      50.400 -39.387  48.157  0.00  0.00    +0.000 OA
ATOM     40  C   UNL     1      49.521 -38.777  47.575  0.00  0.00    +0.000 C 
ATOM     41  C   UNL     1      49.310 -37.381  48.030  0.00  0.00    +0.000 C 
ENDBRANCH  38  40
ENDBRANCH  20  38
BRANCH   6  42
ATOM     42  C   UNL     1      46.931 -48.394  50.074  0.00  0.00    +0.000 C 
BRANCH  42  44
ATOM     43  O   UNL     1      47.313 -48.291  52.572  0.00  0.00    +0.000 OA
ATOM     44  C   UNL     1      47.577 -48.932  51.300  0.00  0.00    +0.000 C 
ATOM     45  C   UNL     1      46.616 -49.431  52.277  0.00  0.00    +0.000 C 
ATOM     46  C   UNL     1      49.088 -49.334  51.239  0.00  0.00    +0.000 C 
BRANCH  45  47
ATOM     47  C   UNL     1      46.833 -50.567  53.122  0.00  0.00    +0.000 C 
ATOM     48  C   UNL     1      46.766 -50.422  54.621  0.00  0.00    +0.000 C 
BRANCH  47  49
ATOM     49  C   UNL     1      46.666 -51.880  52.613  0.00  0.00    +0.000 C 
ATOM     50  C   UNL     1      46.533 -52.964  52.120  0.00  0.00    +0.000 C 
ATOM     51  C   UNL     1      46.360 -54.293  51.381  0.00  0.00    +0.000 C 
ENDBRANCH  47  49
ENDBRANCH  45  47
ENDBRANCH  42  44
BRANCH  42  52
ATOM     52  O   UNL     1      45.771 -48.940  49.539  0.00  0.00    +0.000 OA
ATOM     53  H   UNL     1      45.902 -49.256  48.622  0.00  0.00    +0.000 HD
ENDBRANCH  42  52
ENDBRANCH   6  42
TORSDOF 12
ENDMDL
MODEL 5
REMARK VINA RESULT:      -6.7      2.383      9.368
REMARK  Name = 101808842_CandidaspongiolideB.pdbqt.pdb
REMARK  12 active torsions:
REMARK  status: ('A' for Active; 'I' for Inactive)
REMARK    1  A    between atoms: C_6  and  C_42
REMARK    2  A    between atoms: C_7  and  O_28
REMARK    3  A    between atoms: C_10  and  O_30
REMARK    4  A    between atoms: C_13  and  O_32
REMARK    5  A    between atoms: C_19  and  O_34
REMARK    6  A    between atoms: C_20  and  O_38
REMARK    7  A    between atoms: C_21  and  O_36
REMARK    8  A    between atoms: O_38  and  C_40
REMARK    9  A    between atoms: C_42  and  C_44
REMARK   10  A    between atoms: C_42  and  O_52
REMARK   11  A    between atoms: C_45  and  C_47
REMARK   12  A    between atoms: C_47  and  C_49
REMARK                            x       y       z     vdW  Elec       q    Type
REMARK                         _______ _______ _______ _____ _____    ______ ____
ROOT
ATOM      1  O   UNL     1      48.052 -49.429  53.095  0.00  0.00    +0.000 OA
ATOM      2  O   UNL     1      45.383 -45.526  48.110  0.00  0.00    +0.000 OA
ATOM      3  O   UNL     1      48.263 -48.341  49.452  0.00  0.00    +0.000 OA
ATOM      4  O   UNL     1      44.827 -47.729  48.514  0.00  0.00    +0.000 OA
ATOM      5  O   UNL     1      43.002 -48.185  50.801  0.00  0.00    +0.000 OA
ATOM      6  C   UNL     1      47.849 -46.048  49.225  0.00  0.00    +0.000 C 
ATOM      7  C   UNL     1      47.693 -47.177  51.546  0.00  0.00    +0.000 C 
ATOM      8  C   UNL     1      47.959 -47.297  50.030  0.00  0.00    +0.000 C 
ATOM      9  C   UNL     1      46.601 -45.753  48.606  0.00  0.00    +0.000 C 
ATOM     10  C   UNL     1      46.193 -47.355  51.851  0.00  0.00    +0.000 C 
ATOM     11  C   UNL     1      45.874 -48.423  52.742  0.00  0.00    +0.000 C 
ATOM     12  C   UNL     1      48.233 -48.353  52.301  0.00  0.00    +0.000 C 
ATOM     13  C   UNL     1      46.613 -49.510  53.456  0.00  0.00    +0.000 C 
ATOM     14  C   UNL     1      46.071 -50.895  53.070  0.00  0.00    +0.000 C 
ATOM     15  C   UNL     1      45.207 -51.061  51.947  0.00  0.00    +0.000 C 
ATOM     16  C   UNL     1      46.273 -52.189  53.851  0.00  0.00    +0.000 C 
ATOM     17  C   UNL     1      44.531 -46.584  48.203  0.00  0.00    +0.000 C 
ATOM     18  C   UNL     1      44.404 -51.132  50.931  0.00  0.00    +0.000 C 
ATOM     19  C   UNL     1      43.136 -46.149  47.959  0.00  0.00    +0.000 C 
ATOM     20  C   UNL     1      42.969 -51.105  51.094  0.00  0.00    +0.000 C 
ATOM     21  C   UNL     1      42.009 -46.954  48.389  0.00  0.00    +0.000 C 
ATOM     22  C   UNL     1      42.024 -50.302  50.320  0.00  0.00    +0.000 C 
ATOM     23  C   UNL     1      42.002 -48.389  48.629  0.00  0.00    +0.000 C 
ATOM     24  C   UNL     1      42.403 -48.890  49.982  0.00  0.00    +0.000 C 
ATOM     25  C   UNL     1      45.034 -51.042  49.570  0.00  0.00    +0.000 C 
ATOM     26  C   UNL     1      40.548 -50.691  50.294  0.00  0.00    +0.000 C 
ATOM     27  C   UNL     1      41.836 -49.328  47.439  0.00  0.00    +0.000 C 
ENDROOT
BRANCH   7  28
ATOM     28  O   UNL     1      48.149 -45.992  52.166  0.00  0.00    +0.000 OA
ATOM     29  H   UNL     1      48.590 -46.264  52.991  0.00  0.00    +0.000 HD
ENDBRANCH   7  28
BRANCH  10  30
ATOM     30  O   UNL     1      45.227 -46.538  51.322  0.00  0.00    +0.000 OA
ATOM     31  H   UNL     1      45.477 -46.227  50.426  0.00  0.00    +0.000 HD
ENDBRANCH  10  30
BRANCH  13  32
ATOM     32  O   UNL     1      46.482 -49.280  54.856  0.00  0.00    +0.000 OA
ATOM     33  H   UNL     1      45.528 -49.273  55.033  0.00  0.00    +0.000 HD
ENDBRANCH  13  32
BRANCH  19  34
ATOM     34  O   UNL     1      42.836 -44.901  47.445  0.00  0.00    +0.000 OA
ATOM     35  H   UNL     1      42.078 -44.912  46.825  0.00  0.00    +0.000 HD
ENDBRANCH  19  34
BRANCH  21  36
ATOM     36  O   UNL     1      40.771 -46.362  48.203  0.00  0.00    +0.000 OA
ATOM     37  C   UNL     1      40.157 -46.082  49.437  0.00  0.00    +0.000 C 
ENDBRANCH  21  36
BRANCH  20  38
ATOM     38  O   UNL     1      42.441 -52.159  51.878  0.00  0.00    +0.000 OA
BRANCH  38  40
ATOM     39  O   UNL     1      42.365 -53.725  50.154  0.00  0.00    +0.000 OA
ATOM     40  C   UNL     1      42.653 -53.359  51.279  0.00  0.00    +0.000 C 
ATOM     41  C   UNL     1      43.263 -54.396  52.146  0.00  0.00    +0.000 C 
ENDBRANCH  38  40
ENDBRANCH  20  38
BRANCH   6  42
ATOM     42  C   UNL     1      49.057 -45.311  48.926  0.00  0.00    +0.000 C 
BRANCH  42  44
ATOM     43  O   UNL     1      50.224 -43.135  48.382  0.00  0.00    +0.000 OA
ATOM     44  C   UNL     1      49.117 -43.828  49.008  0.00  0.00    +0.000 C 
ATOM     45  C   UNL     1      49.037 -43.182  47.702  0.00  0.00    +0.000 C 
ATOM     46  C   UNL     1      48.793 -43.136  50.374  0.00  0.00    +0.000 C 
BRANCH  45  47
ATOM     47  C   UNL     1      48.377 -41.936  47.453  0.00  0.00    +0.000 C 
ATOM     48  C   UNL     1      46.872 -41.875  47.387  0.00  0.00    +0.000 C 
BRANCH  47  49
ATOM     49  C   UNL     1      49.041 -40.710  47.708  0.00  0.00    +0.000 C 
ATOM     50  C   UNL     1      49.544 -39.642  47.916  0.00  0.00    +0.000 C 
ATOM     51  C   UNL     1      50.079 -38.226  48.147  0.00  0.00    +0.000 C 
ENDBRANCH  47  49
ENDBRANCH  45  47
ENDBRANCH  42  44
BRANCH  42  52
ATOM     52  O   UNL     1      50.159 -46.086  48.588  0.00  0.00    +0.000 OA
ATOM     53  H   UNL     1      49.949 -46.741  47.892  0.00  0.00    +0.000 HD
ENDBRANCH  42  52
ENDBRANCH   6  42
TORSDOF 12
ENDMDL
MODEL 6
REMARK VINA RESULT:      -6.6      7.435     13.340
REMARK  Name = 101808842_CandidaspongiolideB.pdbqt.pdb
REMARK  12 active torsions:
REMARK  status: ('A' for Active; 'I' for Inactive)
REMARK    1  A    between atoms: C_6  and  C_42
REMARK    2  A    between atoms: C_7  and  O_28
REMARK    3  A    between atoms: C_10  and  O_30
REMARK    4  A    between atoms: C_13  and  O_32
REMARK    5  A    between atoms: C_19  and  O_34
REMARK    6  A    between atoms: C_20  and  O_38
REMARK    7  A    between atoms: C_21  and  O_36
REMARK    8  A    between atoms: O_38  and  C_40
REMARK    9  A    between atoms: C_42  and  C_44
REMARK   10  A    between atoms: C_42  and  O_52
REMARK   11  A    between atoms: C_45  and  C_47
REMARK   12  A    between atoms: C_47  and  C_49
REMARK                            x       y       z     vdW  Elec       q    Type
REMARK                         _______ _______ _______ _____ _____    ______ ____
ROOT
ATOM      1  O   UNL     1      43.718 -53.961  56.348  0.00  0.00    +0.000 OA
ATOM      2  O   UNL     1      49.766 -53.210  53.175  0.00  0.00    +0.000 OA
ATOM      3  O   UNL     1      46.770 -51.750  55.803  0.00  0.00    +0.000 OA
ATOM      4  O   UNL     1      49.474 -54.090  55.287  0.00  0.00    +0.000 OA
ATOM      5  O   UNL     1      48.498 -56.884  55.383  0.00  0.00    +0.000 OA
ATOM      6  C   UNL     1      47.446 -51.773  53.562  0.00  0.00    +0.000 C 
ATOM      7  C   UNL     1      45.463 -53.239  54.341  0.00  0.00    +0.000 C 
ATOM      8  C   UNL     1      46.571 -52.220  54.682  0.00  0.00    +0.000 C 
ATOM      9  C   UNL     1      48.669 -52.469  53.343  0.00  0.00    +0.000 C 
ATOM     10  C   UNL     1      45.997 -54.681  54.452  0.00  0.00    +0.000 C 
ATOM     11  C   UNL     1      45.302 -55.518  55.376  0.00  0.00    +0.000 C 
ATOM     12  C   UNL     1      44.406 -53.291  55.402  0.00  0.00    +0.000 C 
ATOM     13  C   UNL     1      44.183 -55.372  56.358  0.00  0.00    +0.000 C 
ATOM     14  C   UNL     1      44.638 -55.747  57.776  0.00  0.00    +0.000 C 
ATOM     15  C   UNL     1      46.022 -55.893  58.092  0.00  0.00    +0.000 C 
ATOM     16  C   UNL     1      43.729 -56.108  58.946  0.00  0.00    +0.000 C 
ATOM     17  C   UNL     1      50.025 -54.072  54.196  0.00  0.00    +0.000 C 
ATOM     18  C   UNL     1      47.295 -56.035  58.299  0.00  0.00    +0.000 C 
ATOM     19  C   UNL     1      51.031 -55.078  53.783  0.00  0.00    +0.000 C 
ATOM     20  C   UNL     1      47.935 -57.328  58.230  0.00  0.00    +0.000 C 
ATOM     21  C   UNL     1      51.187 -56.327  54.502  0.00  0.00    +0.000 C 
ATOM     22  C   UNL     1      49.182 -57.640  57.535  0.00  0.00    +0.000 C 
ATOM     23  C   UNL     1      50.825 -56.589  55.887  0.00  0.00    +0.000 C 
ATOM     24  C   UNL     1      49.423 -57.015  56.192  0.00  0.00    +0.000 C 
ATOM     25  C   UNL     1      48.101 -54.773  58.415  0.00  0.00    +0.000 C 
ATOM     26  C   UNL     1      49.956 -58.904  57.904  0.00  0.00    +0.000 C 
ATOM     27  C   UNL     1      51.800 -56.180  56.986  0.00  0.00    +0.000 C 
ENDROOT
BRANCH   7  28
ATOM     28  O   UNL     1      44.837 -53.079  53.084  0.00  0.00    +0.000 OA
ATOM     29  H   UNL     1      44.791 -53.967  52.684  0.00  0.00    +0.000 HD
ENDBRANCH   7  28
BRANCH  10  30
ATOM     30  O   UNL     1      47.053 -55.139  53.708  0.00  0.00    +0.000 OA
ATOM     31  H   UNL     1      46.850 -56.008  53.302  0.00  0.00    +0.000 HD
ENDBRANCH  10  30
BRANCH  13  32
ATOM     32  O   UNL     1      43.112 -56.207  55.925  0.00  0.00    +0.000 OA
ATOM     33  H   UNL     1      43.258 -56.352  54.976  0.00  0.00    +0.000 HD
ENDBRANCH  13  32
BRANCH  19  34
ATOM     34  O   UNL     1      51.765 -54.946  52.619  0.00  0.00    +0.000 OA
ATOM     35  H   UNL     1      52.626 -54.501  52.755  0.00  0.00    +0.000 HD
ENDBRANCH  19  34
BRANCH  21  36
ATOM     36  O   UNL     1      52.078 -57.218  53.927  0.00  0.00    +0.000 OA
ATOM     37  C   UNL     1      51.410 -58.362  53.454  0.00  0.00    +0.000 C 
ENDBRANCH  21  36
BRANCH  20  38
ATOM     38  O   UNL     1      47.444 -58.284  59.151  0.00  0.00    +0.000 OA
BRANCH  38  40
ATOM     39  O   UNL     1      48.622 -57.524  61.014  0.00  0.00    +0.000 OA
ATOM     40  C   UNL     1      47.605 -57.849  60.428  0.00  0.00    +0.000 C 
ATOM     41  C   UNL     1      46.369 -57.834  61.248  0.00  0.00    +0.000 C 
ENDBRANCH  38  40
ENDBRANCH  20  38
BRANCH   6  42
ATOM     42  C   UNL     1      47.129 -50.531  52.892  0.00  0.00    +0.000 C 
BRANCH  42  44
ATOM     43  O   UNL     1      45.738 -51.549  51.043  0.00  0.00    +0.000 OA
ATOM     44  C   UNL     1      46.622 -50.495  51.495  0.00  0.00    +0.000 C 
ATOM     45  C   UNL     1      45.171 -50.362  51.420  0.00  0.00    +0.000 C 
ATOM     46  C   UNL     1      47.618 -50.139  50.342  0.00  0.00    +0.000 C 
BRANCH  45  47
ATOM     47  C   UNL     1      44.476 -49.620  50.412  0.00  0.00    +0.000 C 
ATOM     48  C   UNL     1      44.116 -50.273  49.102  0.00  0.00    +0.000 C 
BRANCH  47  49
ATOM     49  C   UNL     1      43.731 -48.465  50.760  0.00  0.00    +0.000 C 
ATOM     50  C   UNL     1      43.159 -47.453  51.050  0.00  0.00    +0.000 C 
ATOM     51  C   UNL     1      42.538 -46.105  51.430  0.00  0.00    +0.000 C 
ENDBRANCH  47  49
ENDBRANCH  45  47
ENDBRANCH  42  44
BRANCH  42  52
ATOM     52  O   UNL     1      47.302 -49.383  53.655  0.00  0.00    +0.000 OA
ATOM     53  H   UNL     1      47.872 -48.726  53.207  0.00  0.00    +0.000 HD
ENDBRANCH  42  52
ENDBRANCH   6  42
TORSDOF 12
ENDMDL
MODEL 7
REMARK VINA RESULT:      -6.6      9.362     14.575
REMARK  Name = 101808842_CandidaspongiolideB.pdbqt.pdb
REMARK  12 active torsions:
REMARK  status: ('A' for Active; 'I' for Inactive)
REMARK    1  A    between atoms: C_6  and  C_42
REMARK    2  A    between atoms: C_7  and  O_28
REMARK    3  A    between atoms: C_10  and  O_30
REMARK    4  A    between atoms: C_13  and  O_32
REMARK    5  A    between atoms: C_19  and  O_34
REMARK    6  A    between atoms: C_20  and  O_38
REMARK    7  A    between atoms: C_21  and  O_36
REMARK    8  A    between atoms: O_38  and  C_40
REMARK    9  A    between atoms: C_42  and  C_44
REMARK   10  A    between atoms: C_42  and  O_52
REMARK   11  A    between atoms: C_45  and  C_47
REMARK   12  A    between atoms: C_47  and  C_49
REMARK                            x       y       z     vdW  Elec       q    Type
REMARK                         _______ _______ _______ _____ _____    ______ ____
ROOT
ATOM      1  O   UNL     1      50.660 -55.807  56.419  0.00  0.00    +0.000 OA
ATOM      2  O   UNL     1      44.356 -57.081  58.838  0.00  0.00    +0.000 OA
ATOM      3  O   UNL     1      48.146 -55.207  59.216  0.00  0.00    +0.000 OA
ATOM      4  O   UNL     1      44.941 -55.260  57.547  0.00  0.00    +0.000 OA
ATOM      5  O   UNL     1      45.256 -55.796  54.652  0.00  0.00    +0.000 OA
ATOM      6  C   UNL     1      46.964 -57.161  59.729  0.00  0.00    +0.000 C 
ATOM      7  C   UNL     1      48.692 -57.150  57.806  0.00  0.00    +0.000 C 
ATOM      8  C   UNL     1      47.958 -56.390  58.931  0.00  0.00    +0.000 C 
ATOM      9  C   UNL     1      45.599 -57.125  59.322  0.00  0.00    +0.000 C 
ATOM     10  C   UNL     1      47.890 -57.083  56.491  0.00  0.00    +0.000 C 
ATOM     11  C   UNL     1      48.579 -56.501  55.385  0.00  0.00    +0.000 C 
ATOM     12  C   UNL     1      49.933 -56.434  57.366  0.00  0.00    +0.000 C 
ATOM     13  C   UNL     1      49.904 -55.853  55.140  0.00  0.00    +0.000 C 
ATOM     14  C   UNL     1      49.731 -54.425  54.602  0.00  0.00    +0.000 C 
ATOM     15  C   UNL     1      48.468 -53.764  54.657  0.00  0.00    +0.000 C 
ATOM     16  C   UNL     1      50.790 -53.605  53.871  0.00  0.00    +0.000 C 
ATOM     17  C   UNL     1      44.163 -56.147  57.866  0.00  0.00    +0.000 C 
ATOM     18  C   UNL     1      47.284 -53.237  54.716  0.00  0.00    +0.000 C 
ATOM     19  C   UNL     1      42.887 -56.396  57.155  0.00  0.00    +0.000 C 
ATOM     20  C   UNL     1      46.372 -53.295  53.598  0.00  0.00    +0.000 C 
ATOM     21  C   UNL     1      42.631 -55.829  55.845  0.00  0.00    +0.000 C 
ATOM     22  C   UNL     1      44.957 -53.656  53.653  0.00  0.00    +0.000 C 
ATOM     23  C   UNL     1      43.246 -54.642  55.273  0.00  0.00    +0.000 C 
ATOM     24  C   UNL     1      44.547 -54.790  54.547  0.00  0.00    +0.000 C 
ATOM     25  C   UNL     1      46.835 -52.743  56.062  0.00  0.00    +0.000 C 
ATOM     26  C   UNL     1      44.030 -53.256  52.507  0.00  0.00    +0.000 C 
ATOM     27  C   UNL     1      42.682 -53.275  55.645  0.00  0.00    +0.000 C 
ENDROOT
BRANCH   7  28
ATOM     28  O   UNL     1      49.017 -58.499  58.075  0.00  0.00    +0.000 OA
ATOM     29  H   UNL     1      49.904 -58.648  57.700  0.00  0.00    +0.000 HD
ENDBRANCH   7  28
BRANCH  10  30
ATOM     30  O   UNL     1      46.611 -57.563  56.379  0.00  0.00    +0.000 OA
ATOM     31  H   UNL     1      46.143 -57.534  57.240  0.00  0.00    +0.000 HD
ENDBRANCH  10  30
BRANCH  13  32
ATOM     32  O   UNL     1      50.624 -56.665  54.217  0.00  0.00    +0.000 OA
ATOM     33  H   UNL     1      51.429 -56.169  54.001  0.00  0.00    +0.000 HD
ENDBRANCH  13  32
BRANCH  19  34
ATOM     34  O   UNL     1      41.944 -57.288  57.631  0.00  0.00    +0.000 OA
ATOM     35  H   UNL     1      41.211 -56.853  58.115  0.00  0.00    +0.000 HD
ENDBRANCH  19  34
BRANCH  21  36
ATOM     36  O   UNL     1      41.450 -56.249  55.254  0.00  0.00    +0.000 OA
ATOM     37  C   UNL     1      41.709 -57.007  54.099  0.00  0.00    +0.000 C 
ENDBRANCH  21  36
BRANCH  20  38
ATOM     38  O   UNL     1      46.841 -52.674  52.416  0.00  0.00    +0.000 OA
BRANCH  38  40
ATOM     39  O   UNL     1      46.225 -50.498  52.981  0.00  0.00    +0.000 OA
ATOM     40  C   UNL     1      47.021 -51.341  52.610  0.00  0.00    +0.000 C 
ATOM     41  C   UNL     1      48.366 -50.829  52.250  0.00  0.00    +0.000 C 
ENDBRANCH  38  40
ENDBRANCH  20  38
BRANCH   6  42
ATOM     42  C   UNL     1      47.381 -57.726  60.993  0.00  0.00    +0.000 C 
BRANCH  42  44
ATOM     43  O   UNL     1      46.680 -58.641  63.243  0.00  0.00    +0.000 OA
ATOM     44  C   UNL     1      46.483 -58.583  61.809  0.00  0.00    +0.000 C 
ATOM     45  C   UNL     1      45.690 -57.824  62.771  0.00  0.00    +0.000 C 
ATOM     46  C   UNL     1      46.131 -60.016  61.288  0.00  0.00    +0.000 C 
BRANCH  45  47
ATOM     47  C   UNL     1      44.345 -58.142  63.144  0.00  0.00    +0.000 C 
ATOM     48  C   UNL     1      44.017 -58.490  64.574  0.00  0.00    +0.000 C 
BRANCH  47  49
ATOM     49  C   UNL     1      43.259 -57.715  62.340  0.00  0.00    +0.000 C 
ATOM     50  C   UNL     1      42.299 -57.370  61.711  0.00  0.00    +0.000 C 
ATOM     51  C   UNL     1      41.002 -56.979  60.997  0.00  0.00    +0.000 C 
ENDBRANCH  47  49
ENDBRANCH  45  47
ENDBRANCH  42  44
BRANCH  42  52
ATOM     52  O   UNL     1      48.686 -57.436  61.371  0.00  0.00    +0.000 OA
ATOM     53  H   UNL     1      49.328 -57.628  60.657  0.00  0.00    +0.000 HD
ENDBRANCH  42  52
ENDBRANCH   6  42
TORSDOF 12
ENDMDL
MODEL 8
REMARK VINA RESULT:      -6.6      3.292      9.266
REMARK  Name = 101808842_CandidaspongiolideB.pdbqt.pdb
REMARK  12 active torsions:
REMARK  status: ('A' for Active; 'I' for Inactive)
REMARK    1  A    between atoms: C_6  and  C_42
REMARK    2  A    between atoms: C_7  and  O_28
REMARK    3  A    between atoms: C_10  and  O_30
REMARK    4  A    between atoms: C_13  and  O_32
REMARK    5  A    between atoms: C_19  and  O_34
REMARK    6  A    between atoms: C_20  and  O_38
REMARK    7  A    between atoms: C_21  and  O_36
REMARK    8  A    between atoms: O_38  and  C_40
REMARK    9  A    between atoms: C_42  and  C_44
REMARK   10  A    between atoms: C_42  and  O_52
REMARK   11  A    between atoms: C_45  and  C_47
REMARK   12  A    between atoms: C_47  and  C_49
REMARK                            x       y       z     vdW  Elec       q    Type
REMARK                         _______ _______ _______ _____ _____    ______ ____
ROOT
ATOM      1  O   UNL     1      48.109 -49.498  53.112  0.00  0.00    +0.000 OA
ATOM      2  O   UNL     1      46.221 -45.372  47.951  0.00  0.00    +0.000 OA
ATOM      3  O   UNL     1      48.651 -48.501  49.476  0.00  0.00    +0.000 OA
ATOM      4  O   UNL     1      45.374 -47.481  48.344  0.00  0.00    +0.000 OA
ATOM      5  O   UNL     1      43.385 -47.672  50.529  0.00  0.00    +0.000 OA
ATOM      6  C   UNL     1      48.539 -46.178  49.207  0.00  0.00    +0.000 C 
ATOM      7  C   UNL     1      48.118 -47.243  51.525  0.00  0.00    +0.000 C 
ATOM      8  C   UNL     1      48.449 -47.418  50.027  0.00  0.00    +0.000 C 
ATOM      9  C   UNL     1      47.373 -45.740  48.517  0.00  0.00    +0.000 C 
ATOM     10  C   UNL     1      46.593 -47.229  51.747  0.00  0.00    +0.000 C 
ATOM     11  C   UNL     1      46.096 -48.235  52.629  0.00  0.00    +0.000 C 
ATOM     12  C   UNL     1      48.465 -48.465  52.320  0.00  0.00    +0.000 C 
ATOM     13  C   UNL     1      46.653 -49.395  53.392  0.00  0.00    +0.000 C 
ATOM     14  C   UNL     1      45.965 -50.706  52.988  0.00  0.00    +0.000 C 
ATOM     15  C   UNL     1      45.149 -50.781  51.821  0.00  0.00    +0.000 C 
ATOM     16  C   UNL     1      45.961 -52.004  53.791  0.00  0.00    +0.000 C 
ATOM     17  C   UNL     1      45.240 -46.314  48.007  0.00  0.00    +0.000 C 
ATOM     18  C   UNL     1      44.399 -50.768  50.762  0.00  0.00    +0.000 C 
ATOM     19  C   UNL     1      43.926 -45.713  47.681  0.00  0.00    +0.000 C 
ATOM     20  C   UNL     1      42.972 -50.561  50.845  0.00  0.00    +0.000 C 
ATOM     21  C   UNL     1      42.686 -46.365  48.055  0.00  0.00    +0.000 C 
ATOM     22  C   UNL     1      42.179 -49.659  50.013  0.00  0.00    +0.000 C 
ATOM     23  C   UNL     1      42.487 -47.785  48.306  0.00  0.00    +0.000 C 
ATOM     24  C   UNL     1      42.748 -48.310  49.684  0.00  0.00    +0.000 C 
ATOM     25  C   UNL     1      45.108 -50.778  49.437  0.00  0.00    +0.000 C 
ATOM     26  C   UNL     1      40.668 -49.862  49.907  0.00  0.00    +0.000 C 
ATOM     27  C   UNL     1      42.269 -48.713  47.117  0.00  0.00    +0.000 C 
ENDROOT
BRANCH   7  28
ATOM     28  O   UNL     1      48.684 -46.114  52.159  0.00  0.00    +0.000 OA
ATOM     29  H   UNL     1      49.364 -45.770  51.552  0.00  0.00    +0.000 HD
ENDBRANCH   7  28
BRANCH  10  30
ATOM     30  O   UNL     1      45.767 -46.307  51.158  0.00  0.00    +0.000 OA
ATOM     31  H   UNL     1      45.912 -46.268  50.190  0.00  0.00    +0.000 HD
ENDBRANCH  10  30
BRANCH  13  32
ATOM     32  O   UNL     1      46.477 -49.128  54.780  0.00  0.00    +0.000 OA
ATOM     33  H   UNL     1      45.524 -49.215  54.946  0.00  0.00    +0.000 HD
ENDBRANCH  13  32
BRANCH  19  34
ATOM     34  O   UNL     1      43.813 -44.445  47.141  0.00  0.00    +0.000 OA
ATOM     35  H   UNL     1      44.237 -44.362  46.262  0.00  0.00    +0.000 HD
ENDBRANCH  19  34
BRANCH  21  36
ATOM     36  O   UNL     1      41.543 -45.627  47.795  0.00  0.00    +0.000 OA
ATOM     37  C   UNL     1      40.598 -45.785  48.824  0.00  0.00    +0.000 C 
ENDBRANCH  21  36
BRANCH  20  38
ATOM     38  O   UNL     1      42.275 -51.529  51.607  0.00  0.00    +0.000 OA
BRANCH  38  40
ATOM     39  O   UNL     1      42.103 -53.128  49.921  0.00  0.00    +0.000 OA
ATOM     40  C   UNL     1      42.390 -52.760  51.045  0.00  0.00    +0.000 C 
ATOM     41  C   UNL     1      42.874 -53.825  51.958  0.00  0.00    +0.000 C 
ENDBRANCH  38  40
ENDBRANCH  20  38
BRANCH   6  42
ATOM     42  C   UNL     1      49.844 -45.601  48.969  0.00  0.00    +0.000 C 
BRANCH  42  44
ATOM     43  O   UNL     1      51.101 -47.376  47.679  0.00  0.00    +0.000 OA
ATOM     44  C   UNL     1      51.056 -46.441  48.785  0.00  0.00    +0.000 C 
ATOM     45  C   UNL     1      51.745 -46.179  47.525  0.00  0.00    +0.000 C 
ATOM     46  C   UNL     1      51.706 -47.111  50.041  0.00  0.00    +0.000 C 
BRANCH  45  47
ATOM     47  C   UNL     1      53.166 -46.218  47.354  0.00  0.00    +0.000 C 
ATOM     48  C   UNL     1      54.037 -45.175  48.006  0.00  0.00    +0.000 C 
BRANCH  47  49
ATOM     49  C   UNL     1      53.808 -47.425  46.981  0.00  0.00    +0.000 C 
ATOM     50  C   UNL     1      54.332 -48.433  46.601  0.00  0.00    +0.000 C 
ATOM     51  C   UNL     1      54.946 -49.704  46.007  0.00  0.00    +0.000 C 
ENDBRANCH  47  49
ENDBRANCH  45  47
ENDBRANCH  42  44
BRANCH  42  52
ATOM     52  O   UNL     1      49.876 -44.215  48.894  0.00  0.00    +0.000 OA
ATOM     53  H   UNL     1      49.618 -43.888  48.009  0.00  0.00    +0.000 HD
ENDBRANCH  42  52
ENDBRANCH   6  42
TORSDOF 12
ENDMDL
MODEL 9
REMARK VINA RESULT:      -6.6      7.000     12.641
REMARK  Name = 101808842_CandidaspongiolideB.pdbqt.pdb
REMARK  12 active torsions:
REMARK  status: ('A' for Active; 'I' for Inactive)
REMARK    1  A    between atoms: C_6  and  C_42
REMARK    2  A    between atoms: C_7  and  O_28
REMARK    3  A    between atoms: C_10  and  O_30
REMARK    4  A    between atoms: C_13  and  O_32
REMARK    5  A    between atoms: C_19  and  O_34
REMARK    6  A    between atoms: C_20  and  O_38
REMARK    7  A    between atoms: C_21  and  O_36
REMARK    8  A    between atoms: O_38  and  C_40
REMARK    9  A    between atoms: C_42  and  C_44
REMARK   10  A    between atoms: C_42  and  O_52
REMARK   11  A    between atoms: C_45  and  C_47
REMARK   12  A    between atoms: C_47  and  C_49
REMARK                            x       y       z     vdW  Elec       q    Type
REMARK                         _______ _______ _______ _____ _____    ______ ____
ROOT
ATOM      1  O   UNL     1      42.974 -57.023  55.172  0.00  0.00    +0.000 OA
ATOM      2  O   UNL     1      47.026 -51.476  55.322  0.00  0.00    +0.000 OA
ATOM      3  O   UNL     1      46.539 -55.693  55.338  0.00  0.00    +0.000 OA
ATOM      4  O   UNL     1      46.428 -52.633  53.418  0.00  0.00    +0.000 OA
ATOM      5  O   UNL     1      43.694 -52.106  52.411  0.00  0.00    +0.000 OA
ATOM      6  C   UNL     1      46.682 -53.819  56.734  0.00  0.00    +0.000 C 
ATOM      7  C   UNL     1      44.395 -54.942  56.290  0.00  0.00    +0.000 C 
ATOM      8  C   UNL     1      45.919 -54.898  56.046  0.00  0.00    +0.000 C 
ATOM      9  C   UNL     1      46.909 -52.601  56.031  0.00  0.00    +0.000 C 
ATOM     10  C   UNL     1      43.656 -54.051  55.272  0.00  0.00    +0.000 C 
ATOM     11  C   UNL     1      42.687 -54.721  54.466  0.00  0.00    +0.000 C 
ATOM     12  C   UNL     1      43.809 -56.270  55.918  0.00  0.00    +0.000 C 
ATOM     13  C   UNL     1      42.201 -56.123  54.277  0.00  0.00    +0.000 C 
ATOM     14  C   UNL     1      42.380 -56.580  52.822  0.00  0.00    +0.000 C 
ATOM     15  C   UNL     1      43.192 -55.841  51.912  0.00  0.00    +0.000 C 
ATOM     16  C   UNL     1      41.666 -57.751  52.153  0.00  0.00    +0.000 C 
ATOM     17  C   UNL     1      46.662 -51.593  54.016  0.00  0.00    +0.000 C 
ATOM     18  C   UNL     1      43.923 -55.104  51.134  0.00  0.00    +0.000 C 
ATOM     19  C   UNL     1      46.491 -50.254  53.404  0.00  0.00    +0.000 C 
ATOM     20  C   UNL     1      43.342 -54.094  50.279  0.00  0.00    +0.000 C 
ATOM     21  C   UNL     1      45.729 -50.075  52.184  0.00  0.00    +0.000 C 
ATOM     22  C   UNL     1      43.818 -52.722  50.114  0.00  0.00    +0.000 C 
ATOM     23  C   UNL     1      45.467 -51.079  51.163  0.00  0.00    +0.000 C 
ATOM     24  C   UNL     1      44.284 -51.979  51.332  0.00  0.00    +0.000 C 
ATOM     25  C   UNL     1      45.411 -55.212  51.309  0.00  0.00    +0.000 C 
ATOM     26  C   UNL     1      43.397 -51.920  48.884  0.00  0.00    +0.000 C 
ATOM     27  C   UNL     1      46.534 -51.340  50.105  0.00  0.00    +0.000 C 
ENDROOT
BRANCH   7  28
ATOM     28  O   UNL     1      43.964 -54.604  57.592  0.00  0.00    +0.000 OA
ATOM     29  H   UNL     1      43.810 -53.642  57.590  0.00  0.00    +0.000 HD
ENDBRANCH   7  28
BRANCH  10  30
ATOM     30  O   UNL     1      43.892 -52.706  55.156  0.00  0.00    +0.000 OA
ATOM     31  H   UNL     1      43.361 -52.195  55.803  0.00  0.00    +0.000 HD
ENDBRANCH  10  30
BRANCH  13  32
ATOM     32  O   UNL     1      40.831 -56.166  54.664  0.00  0.00    +0.000 OA
ATOM     33  H   UNL     1      40.794 -55.762  55.547  0.00  0.00    +0.000 HD
ENDBRANCH  13  32
BRANCH  19  34
ATOM     34  O   UNL     1      46.919 -49.100  54.034  0.00  0.00    +0.000 OA
ATOM     35  H   UNL     1      46.348 -48.326  53.849  0.00  0.00    +0.000 HD
ENDBRANCH  19  34
BRANCH  21  36
ATOM     36  O   UNL     1      45.552 -48.756  51.800  0.00  0.00    +0.000 OA
ATOM     37  C   UNL     1      44.315 -48.582  51.156  0.00  0.00    +0.000 C 
ENDBRANCH  21  36
BRANCH  20  38
ATOM     38  O   UNL     1      42.414 -54.582  49.328  0.00  0.00    +0.000 OA
BRANCH  38  40
ATOM     39  O   UNL     1      43.975 -55.239  47.727  0.00  0.00    +0.000 OA
ATOM     40  C   UNL     1      43.019 -55.429  48.456  0.00  0.00    +0.000 C 
ATOM     41  C   UNL     1      42.376 -56.760  48.323  0.00  0.00    +0.000 C 
ENDBRANCH  38  40
ENDBRANCH  20  38
BRANCH   6  42
ATOM     42  C   UNL     1      47.341 -54.128  57.983  0.00  0.00    +0.000 C 
BRANCH  42  44
ATOM     43  O   UNL     1      49.257 -55.192  59.243  0.00  0.00    +0.000 OA
ATOM     44  C   UNL     1      48.764 -54.556  58.040  0.00  0.00    +0.000 C 
ATOM     45  C   UNL     1      48.918 -55.999  58.192  0.00  0.00    +0.000 C 
ATOM     46  C   UNL     1      49.864 -53.588  57.490  0.00  0.00    +0.000 C 
BRANCH  45  47
ATOM     47  C   UNL     1      49.966 -56.770  57.595  0.00  0.00    +0.000 C 
ATOM     48  C   UNL     1      49.920 -57.103  56.125  0.00  0.00    +0.000 C 
BRANCH  47  49
ATOM     49  C   UNL     1      51.239 -56.848  58.214  0.00  0.00    +0.000 C 
ATOM     50  C   UNL     1      52.340 -56.877  58.685  0.00  0.00    +0.000 C 
ATOM     51  C   UNL     1      53.789 -56.865  59.181  0.00  0.00    +0.000 C 
ENDBRANCH  47  49
ENDBRANCH  45  47
ENDBRANCH  42  44
BRANCH  42  52
ATOM     52  O   UNL     1      46.563 -53.967  59.122  0.00  0.00    +0.000 OA
ATOM     53  H   UNL     1      46.532 -54.780  59.665  0.00  0.00    +0.000 HD
ENDBRANCH  42  52
ENDBRANCH   6  42
TORSDOF 12
ENDMDL
