MODEL 1
REMARK VINA RESULT:      -6.7      0.000      0.000
REMARK  Name = 102471178_CandidaspongiolideCore.pdbqt.pdb
REMARK  13 active torsions:
REMARK  status: ('A' for Active; 'I' for Inactive)
REMARK    1  A    between atoms: C_6  and  C_39
REMARK    2  A    between atoms: C_8  and  O_27
REMARK    3  A    between atoms: C_8  and  C_51
REMARK    4  A    between atoms: C_10  and  O_29
REMARK    5  A    between atoms: C_15  and  O_31
REMARK    6  A    between atoms: C_16  and  O_33
REMARK    7  A    between atoms: C_21  and  O_35
REMARK    8  A    between atoms: O_35  and  C_37
REMARK    9  A    between atoms: C_39  and  C_41
REMARK   10  A    between atoms: C_39  and  O_49
REMARK   11  A    between atoms: C_42  and  C_44
REMARK   12  A    between atoms: C_44  and  C_46
REMARK   13  A    between atoms: C_51  and  O_52
REMARK                            x       y       z     vdW  Elec       q    Type
REMARK                         _______ _______ _______ _____ _____    ______ ____
ROOT
ATOM      1  O   UNL     1      45.341 -45.909  50.845  0.00  0.00    +0.000 OA
ATOM      2  O   UNL     1      46.686 -46.662  49.141  0.00  0.00    +0.000 OA
ATOM      3  O   UNL     1      47.735 -48.537  44.689  0.00  0.00    +0.000 OA
ATOM      4  O   UNL     1      46.365 -43.969  51.382  0.00  0.00    +0.000 OA
ATOM      5  O   UNL     1      49.508 -45.068  50.239  0.00  0.00    +0.000 OA
ATOM      6  C   UNL     1      44.337 -47.147  49.162  0.00  0.00    +0.000 C 
ATOM      7  C   UNL     1      44.344 -48.337  48.382  0.00  0.00    +0.000 C 
ATOM      8  C   UNL     1      44.217 -49.608  47.665  0.00  0.00    +0.000 C 
ATOM      9  C   UNL     1      45.594 -46.551  49.686  0.00  0.00    +0.000 C 
ATOM     10  C   UNL     1      44.591 -49.481  46.204  0.00  0.00    +0.000 C 
ATOM     11  C   UNL     1      45.698 -48.733  45.720  0.00  0.00    +0.000 C 
ATOM     12  C   UNL     1      46.853 -47.960  45.315  0.00  0.00    +0.000 C 
ATOM     13  C   UNL     1      46.365 -45.194  51.347  0.00  0.00    +0.000 C 
ATOM     14  C   UNL     1      46.971 -46.519  45.695  0.00  0.00    +0.000 C 
ATOM     15  C   UNL     1      47.358 -45.955  52.146  0.00  0.00    +0.000 C 
ATOM     16  C   UNL     1      47.969 -47.201  51.729  0.00  0.00    +0.000 C 
ATOM     17  C   UNL     1      49.185 -47.326  50.936  0.00  0.00    +0.000 C 
ATOM     18  C   UNL     1      48.252 -45.959  45.921  0.00  0.00    +0.000 C 
ATOM     19  C   UNL     1      49.759 -46.686  48.521  0.00  0.00    +0.000 C 
ATOM     20  C   UNL     1      45.772 -45.692  46.137  0.00  0.00    +0.000 C 
ATOM     21  C   UNL     1      50.012 -45.640  47.536  0.00  0.00    +0.000 C 
ATOM     22  C   UNL     1      49.508 -46.263  49.937  0.00  0.00    +0.000 C 
ATOM     23  C   UNL     1      49.446 -45.533  46.199  0.00  0.00    +0.000 C 
ATOM     24  C   UNL     1      50.273 -48.328  51.309  0.00  0.00    +0.000 C 
ATOM     25  C   UNL     1      49.470 -48.101  48.040  0.00  0.00    +0.000 C 
ATOM     26  C   UNL     1      50.191 -44.874  45.066  0.00  0.00    +0.000 C 
ENDROOT
BRANCH   8  27
ATOM     27  O   UNL     1      42.836 -49.966  47.752  0.00  0.00    +0.000 OA
ATOM     28  H   UNL     1      42.821 -50.725  48.370  0.00  0.00    +0.000 HD
ENDBRANCH   8  27
BRANCH  10  29
ATOM     29  O   UNL     1      43.821 -50.189  45.295  0.00  0.00    +0.000 OA
ATOM     30  H   UNL     1      42.892 -50.268  45.580  0.00  0.00    +0.000 HD
ENDBRANCH  10  29
BRANCH  15  31
ATOM     31  O   UNL     1      48.105 -45.255  53.080  0.00  0.00    +0.000 OA
ATOM     32  H   UNL     1      47.516 -44.789  53.711  0.00  0.00    +0.000 HD
ENDBRANCH  15  31
BRANCH  16  33
ATOM     33  O   UNL     1      47.677 -48.294  52.525  0.00  0.00    +0.000 OA
ATOM     34  C   UNL     1      46.692 -49.077  51.895  0.00  0.00    +0.000 C 
ENDBRANCH  16  33
BRANCH  21  35
ATOM     35  O   UNL     1      51.052 -44.743  47.889  0.00  0.00    +0.000 OA
BRANCH  35  37
ATOM     36  O   UNL     1      52.803 -45.643  49.153  0.00  0.00    +0.000 OA
ATOM     37  C   UNL     1      52.242 -45.368  48.108  0.00  0.00    +0.000 C 
ATOM     38  C   UNL     1      52.941 -45.814  46.874  0.00  0.00    +0.000 C 
ENDBRANCH  35  37
ENDBRANCH  21  35
BRANCH   6  39
ATOM     39  C   UNL     1      43.067 -46.485  49.354  0.00  0.00    +0.000 C 
BRANCH  39  41
ATOM     40  O   UNL     1      40.750 -46.842  50.357  0.00  0.00    +0.000 OA
ATOM     41  C   UNL     1      42.189 -46.864  50.496  0.00  0.00    +0.000 C 
ATOM     42  C   UNL     1      41.381 -48.044  50.202  0.00  0.00    +0.000 C 
ATOM     43  C   UNL     1      42.580 -46.404  51.946  0.00  0.00    +0.000 C 
BRANCH  42  44
ATOM     44  C   UNL     1      41.076 -49.074  51.149  0.00  0.00    +0.000 C 
ATOM     45  C   UNL     1      39.755 -49.064  51.883  0.00  0.00    +0.000 C 
BRANCH  44  46
ATOM     46  C   UNL     1      41.741 -50.325  51.092  0.00  0.00    +0.000 C 
ATOM     47  C   UNL     1      42.280 -51.392  51.002  0.00  0.00    +0.000 C 
ATOM     48  C   UNL     1      42.942 -52.764  50.820  0.00  0.00    +0.000 C 
ENDBRANCH  44  46
ENDBRANCH  42  44
ENDBRANCH  39  41
BRANCH  39  49
ATOM     49  O   UNL     1      42.695 -45.553  48.400  0.00  0.00    +0.000 OA
ATOM     50  H   UNL     1      43.097 -44.671  48.518  0.00  0.00    +0.000 HD
ENDBRANCH  39  49
ENDBRANCH   6  39
BRANCH   8  51
ATOM     51  C   UNL     1      44.998 -50.681  48.302  0.00  0.00    +0.000 C 
BRANCH  51  52
ATOM     52  O   UNL     1      45.730 -51.623  48.899  0.00  0.00    +0.000 OA
ATOM     53  H   UNL     1      45.814 -52.414  48.330  0.00  0.00    +0.000 HD
ENDBRANCH  51  52
ENDBRANCH   8  51
TORSDOF 13
ENDMDL
MODEL 2
REMARK VINA RESULT:      -6.3      2.122      6.016
REMARK  Name = 102471178_CandidaspongiolideCore.pdbqt.pdb
REMARK  13 active torsions:
REMARK  status: ('A' for Active; 'I' for Inactive)
REMARK    1  A    between atoms: C_6  and  C_39
REMARK    2  A    between atoms: C_8  and  O_27
REMARK    3  A    between atoms: C_8  and  C_51
REMARK    4  A    between atoms: C_10  and  O_29
REMARK    5  A    between atoms: C_15  and  O_31
REMARK    6  A    between atoms: C_16  and  O_33
REMARK    7  A    between atoms: C_21  and  O_35
REMARK    8  A    between atoms: O_35  and  C_37
REMARK    9  A    between atoms: C_39  and  C_41
REMARK   10  A    between atoms: C_39  and  O_49
REMARK   11  A    between atoms: C_42  and  C_44
REMARK   12  A    between atoms: C_44  and  C_46
REMARK   13  A    between atoms: C_51  and  O_52
REMARK                            x       y       z     vdW  Elec       q    Type
REMARK                         _______ _______ _______ _____ _____    ______ ____
ROOT
ATOM      1  O   UNL     1      46.810 -50.799  48.306  0.00  0.00    +0.000 OA
ATOM      2  O   UNL     1      46.194 -48.699  49.002  0.00  0.00    +0.000 OA
ATOM      3  O   UNL     1      43.664 -45.354  51.621  0.00  0.00    +0.000 OA
ATOM      4  O   UNL     1      49.061 -50.640  48.386  0.00  0.00    +0.000 OA
ATOM      5  O   UNL     1      49.042 -47.154  47.904  0.00  0.00    +0.000 OA
ATOM      6  C   UNL     1      44.829 -50.609  49.495  0.00  0.00    +0.000 C 
ATOM      7  C   UNL     1      43.571 -49.960  49.631  0.00  0.00    +0.000 C 
ATOM      8  C   UNL     1      42.206 -49.434  49.720  0.00  0.00    +0.000 C 
ATOM      9  C   UNL     1      46.010 -49.908  48.926  0.00  0.00    +0.000 C 
ATOM     10  C   UNL     1      42.030 -48.497  50.895  0.00  0.00    +0.000 C 
ATOM     11  C   UNL     1      42.979 -47.516  51.291  0.00  0.00    +0.000 C 
ATOM     12  C   UNL     1      43.993 -46.536  51.616  0.00  0.00    +0.000 C 
ATOM     13  C   UNL     1      47.993 -50.318  47.879  0.00  0.00    +0.000 C 
ATOM     14  C   UNL     1      45.399 -46.962  51.888  0.00  0.00    +0.000 C 
ATOM     15  C   UNL     1      47.978 -49.627  46.566  0.00  0.00    +0.000 C 
ATOM     16  C   UNL     1      47.024 -48.606  46.185  0.00  0.00    +0.000 C 
ATOM     17  C   UNL     1      47.170 -47.176  46.427  0.00  0.00    +0.000 C 
ATOM     18  C   UNL     1      46.469 -46.099  51.548  0.00  0.00    +0.000 C 
ATOM     19  C   UNL     1      47.231 -45.772  48.570  0.00  0.00    +0.000 C 
ATOM     20  C   UNL     1      45.761 -48.397  52.246  0.00  0.00    +0.000 C 
ATOM     21  C   UNL     1      47.942 -45.379  49.782  0.00  0.00    +0.000 C 
ATOM     22  C   UNL     1      47.920 -46.720  47.637  0.00  0.00    +0.000 C 
ATOM     23  C   UNL     1      47.405 -45.301  51.133  0.00  0.00    +0.000 C 
ATOM     24  C   UNL     1      46.857 -46.153  45.339  0.00  0.00    +0.000 C 
ATOM     25  C   UNL     1      45.747 -45.454  48.447  0.00  0.00    +0.000 C 
ATOM     26  C   UNL     1      47.936 -44.323  52.150  0.00  0.00    +0.000 C 
ENDROOT
BRANCH   8  27
ATOM     27  O   UNL     1      41.364 -50.572  49.915  0.00  0.00    +0.000 OA
ATOM     28  H   UNL     1      40.616 -50.427  49.301  0.00  0.00    +0.000 HD
ENDBRANCH   8  27
BRANCH  10  29
ATOM     29  O   UNL     1      40.834 -48.580  51.591  0.00  0.00    +0.000 OA
ATOM     30  H   UNL     1      40.060 -48.463  51.009  0.00  0.00    +0.000 HD
ENDBRANCH  10  29
BRANCH  15  31
ATOM     31  O   UNL     1      49.165 -49.573  45.853  0.00  0.00    +0.000 OA
ATOM     32  H   UNL     1      49.733 -48.846  46.187  0.00  0.00    +0.000 HD
ENDBRANCH  15  31
BRANCH  16  33
ATOM     33  O   UNL     1      46.199 -48.936  45.125  0.00  0.00    +0.000 OA
ATOM     34  C   UNL     1      44.930 -49.289  45.616  0.00  0.00    +0.000 C 
ENDBRANCH  16  33
BRANCH  21  35
ATOM     35  O   UNL     1      49.244 -44.864  49.557  0.00  0.00    +0.000 OA
BRANCH  35  37
ATOM     36  O   UNL     1      48.677 -42.632  49.145  0.00  0.00    +0.000 OA
ATOM     37  C   UNL     1      49.238 -43.681  48.883  0.00  0.00    +0.000 C 
ATOM     38  C   UNL     1      50.078 -43.664  47.658  0.00  0.00    +0.000 C 
ENDBRANCH  35  37
ENDBRANCH  21  35
BRANCH   6  39
ATOM     39  C   UNL     1      44.945 -51.953  50.013  0.00  0.00    +0.000 C 
BRANCH  39  41
ATOM     40  O   UNL     1      46.328 -53.428  51.566  0.00  0.00    +0.000 OA
ATOM     41  C   UNL     1      45.609 -52.197  51.324  0.00  0.00    +0.000 C 
ATOM     42  C   UNL     1      47.057 -52.335  51.191  0.00  0.00    +0.000 C 
ATOM     43  C   UNL     1      44.885 -51.747  52.643  0.00  0.00    +0.000 C 
BRANCH  42  44
ATOM     44  C   UNL     1      48.008 -51.824  52.131  0.00  0.00    +0.000 C 
ATOM     45  C   UNL     1      48.672 -52.753  53.121  0.00  0.00    +0.000 C 
BRANCH  44  46
ATOM     46  C   UNL     1      48.686 -50.604  51.879  0.00  0.00    +0.000 C 
ATOM     47  C   UNL     1      49.236 -49.570  51.623  0.00  0.00    +0.000 C 
ATOM     48  C   UNL     1      49.894 -48.238  51.239  0.00  0.00    +0.000 C 
ENDBRANCH  44  46
ENDBRANCH  42  44
ENDBRANCH  39  41
BRANCH  39  49
ATOM     49  O   UNL     1      44.476 -52.978  49.207  0.00  0.00    +0.000 OA
ATOM     50  H   UNL     1      44.161 -53.763  49.694  0.00  0.00    +0.000 HD
ENDBRANCH  39  49
ENDBRANCH   6  39
BRANCH   8  51
ATOM     51  C   UNL     1      41.786 -48.775  48.472  0.00  0.00    +0.000 C 
BRANCH  51  52
ATOM     52  O   UNL     1      41.449 -48.172  47.332  0.00  0.00    +0.000 OA
ATOM     53  H   UNL     1      41.657 -48.738  46.561  0.00  0.00    +0.000 HD
ENDBRANCH  51  52
ENDBRANCH   8  51
TORSDOF 13
ENDMDL
MODEL 3
REMARK VINA RESULT:      -6.2      3.069      7.628
REMARK  Name = 102471178_CandidaspongiolideCore.pdbqt.pdb
REMARK  13 active torsions:
REMARK  status: ('A' for Active; 'I' for Inactive)
REMARK    1  A    between atoms: C_6  and  C_39
REMARK    2  A    between atoms: C_8  and  O_27
REMARK    3  A    between atoms: C_8  and  C_51
REMARK    4  A    between atoms: C_10  and  O_29
REMARK    5  A    between atoms: C_15  and  O_31
REMARK    6  A    between atoms: C_16  and  O_33
REMARK    7  A    between atoms: C_21  and  O_35
REMARK    8  A    between atoms: O_35  and  C_37
REMARK    9  A    between atoms: C_39  and  C_41
REMARK   10  A    between atoms: C_39  and  O_49
REMARK   11  A    between atoms: C_42  and  C_44
REMARK   12  A    between atoms: C_44  and  C_46
REMARK   13  A    between atoms: C_51  and  O_52
REMARK                            x       y       z     vdW  Elec       q    Type
REMARK                         _______ _______ _______ _____ _____    ______ ____
ROOT
ATOM      1  O   UNL     1      46.942 -48.419  52.024  0.00  0.00    +0.000 OA
ATOM      2  O   UNL     1      45.095 -49.113  50.847  0.00  0.00    +0.000 OA
ATOM      3  O   UNL     1      42.000 -52.364  48.775  0.00  0.00    +0.000 OA
ATOM      4  O   UNL     1      46.019 -46.917  53.435  0.00  0.00    +0.000 OA
ATOM      5  O   UNL     1      43.346 -46.201  51.260  0.00  0.00    +0.000 OA
ATOM      6  C   UNL     1      46.918 -50.612  51.270  0.00  0.00    +0.000 C 
ATOM      7  C   UNL     1      46.741 -51.501  50.174  0.00  0.00    +0.000 C 
ATOM      8  C   UNL     1      46.722 -52.442  49.051  0.00  0.00    +0.000 C 
ATOM      9  C   UNL     1      46.193 -49.316  51.349  0.00  0.00    +0.000 C 
ATOM     10  C   UNL     1      45.480 -53.306  49.050  0.00  0.00    +0.000 C 
ATOM     11  C   UNL     1      44.172 -52.833  49.338  0.00  0.00    +0.000 C 
ATOM     12  C   UNL     1      42.873 -52.265  49.631  0.00  0.00    +0.000 C 
ATOM     13  C   UNL     1      46.336 -47.249  52.298  0.00  0.00    +0.000 C 
ATOM     14  C   UNL     1      42.634 -51.545  50.919  0.00  0.00    +0.000 C 
ATOM     15  C   UNL     1      46.352 -46.238  51.212  0.00  0.00    +0.000 C 
ATOM     16  C   UNL     1      45.994 -46.505  49.834  0.00  0.00    +0.000 C 
ATOM     17  C   UNL     1      44.651 -46.421  49.276  0.00  0.00    +0.000 C 
ATOM     18  C   UNL     1      41.710 -50.472  50.958  0.00  0.00    +0.000 C 
ATOM     19  C   UNL     1      42.509 -47.769  49.688  0.00  0.00    +0.000 C 
ATOM     20  C   UNL     1      43.544 -51.712  52.127  0.00  0.00    +0.000 C 
ATOM     21  C   UNL     1      41.405 -48.112  50.577  0.00  0.00    +0.000 C 
ATOM     22  C   UNL     1      43.482 -46.729  50.155  0.00  0.00    +0.000 C 
ATOM     23  C   UNL     1      40.919 -49.445  50.906  0.00  0.00    +0.000 C 
ATOM     24  C   UNL     1      44.391 -45.740  47.936  0.00  0.00    +0.000 C 
ATOM     25  C   UNL     1      42.798 -48.662  48.489  0.00  0.00    +0.000 C 
ATOM     26  C   UNL     1      39.476 -49.706  51.255  0.00  0.00    +0.000 C 
ENDROOT
BRANCH   8  27
ATOM     27  O   UNL     1      47.863 -53.284  49.233  0.00  0.00    +0.000 OA
ATOM     28  H   UNL     1      48.576 -52.670  49.504  0.00  0.00    +0.000 HD
ENDBRANCH   8  27
BRANCH  10  29
ATOM     29  O   UNL     1      45.641 -54.635  48.692  0.00  0.00    +0.000 OA
ATOM     30  H   UNL     1      45.232 -55.243  49.336  0.00  0.00    +0.000 HD
ENDBRANCH  10  29
BRANCH  15  31
ATOM     31  O   UNL     1      46.227 -44.905  51.571  0.00  0.00    +0.000 OA
ATOM     32  H   UNL     1      45.786 -44.397  50.856  0.00  0.00    +0.000 HD
ENDBRANCH  15  31
BRANCH  16  33
ATOM     33  O   UNL     1      47.017 -46.342  48.918  0.00  0.00    +0.000 OA
ATOM     34  C   UNL     1      47.536 -47.602  48.572  0.00  0.00    +0.000 C 
ENDBRANCH  16  33
BRANCH  21  35
ATOM     35  O   UNL     1      40.642 -47.002  51.018  0.00  0.00    +0.000 OA
BRANCH  35  37
ATOM     36  O   UNL     1      38.496 -46.806  50.107  0.00  0.00    +0.000 OA
ATOM     37  C   UNL     1      39.699 -46.614  50.115  0.00  0.00    +0.000 C 
ATOM     38  C   UNL     1      40.221 -45.800  48.988  0.00  0.00    +0.000 C 
ENDBRANCH  35  37
ENDBRANCH  21  35
BRANCH   6  39
ATOM     39  C   UNL     1      47.765 -51.053  52.355  0.00  0.00    +0.000 C 
BRANCH  39  41
ATOM     40  O   UNL     1      46.405 -52.727  53.716  0.00  0.00    +0.000 OA
ATOM     41  C   UNL     1      47.162 -51.496  53.644  0.00  0.00    +0.000 C 
ATOM     42  C   UNL     1      47.715 -52.768  54.102  0.00  0.00    +0.000 C 
ATOM     43  C   UNL     1      46.513 -50.426  54.592  0.00  0.00    +0.000 C 
BRANCH  42  44
ATOM     44  C   UNL     1      47.989 -53.086  55.471  0.00  0.00    +0.000 C 
ATOM     45  C   UNL     1      46.873 -53.082  56.490  0.00  0.00    +0.000 C 
BRANCH  44  46
ATOM     46  C   UNL     1      49.140 -53.836  55.820  0.00  0.00    +0.000 C 
ATOM     47  C   UNL     1      50.086 -54.510  56.120  0.00  0.00    +0.000 C 
ATOM     48  C   UNL     1      51.254 -55.431  56.496  0.00  0.00    +0.000 C 
ENDBRANCH  44  46
ENDBRANCH  42  44
ENDBRANCH  39  41
BRANCH  39  49
ATOM     49  O   UNL     1      49.133 -50.974  52.155  0.00  0.00    +0.000 OA
ATOM     50  H   UNL     1      49.668 -51.419  52.840  0.00  0.00    +0.000 HD
ENDBRANCH  39  49
ENDBRANCH   6  39
BRANCH   8  51
ATOM     51  C   UNL     1      46.872 -51.758  47.756  0.00  0.00    +0.000 C 
BRANCH  51  52
ATOM     52  O   UNL     1      46.972 -51.114  46.592  0.00  0.00    +0.000 OA
ATOM     53  H   UNL     1      47.908 -51.030  46.319  0.00  0.00    +0.000 HD
ENDBRANCH  51  52
ENDBRANCH   8  51
TORSDOF 13
ENDMDL
MODEL 4
REMARK VINA RESULT:      -6.2      2.138      7.648
REMARK  Name = 102471178_CandidaspongiolideCore.pdbqt.pdb
REMARK  13 active torsions:
REMARK  status: ('A' for Active; 'I' for Inactive)
REMARK    1  A    between atoms: C_6  and  C_39
REMARK    2  A    between atoms: C_8  and  O_27
REMARK    3  A    between atoms: C_8  and  C_51
REMARK    4  A    between atoms: C_10  and  O_29
REMARK    5  A    between atoms: C_15  and  O_31
REMARK    6  A    between atoms: C_16  and  O_33
REMARK    7  A    between atoms: C_21  and  O_35
REMARK    8  A    between atoms: O_35  and  C_37
REMARK    9  A    between atoms: C_39  and  C_41
REMARK   10  A    between atoms: C_39  and  O_49
REMARK   11  A    between atoms: C_42  and  C_44
REMARK   12  A    between atoms: C_44  and  C_46
REMARK   13  A    between atoms: C_51  and  O_52
REMARK                            x       y       z     vdW  Elec       q    Type
REMARK                         _______ _______ _______ _____ _____    ______ ____
ROOT
ATOM      1  O   UNL     1      49.987 -46.539  50.121  0.00  0.00    +0.000 OA
ATOM      2  O   UNL     1      48.078 -46.276  48.871  0.00  0.00    +0.000 OA
ATOM      3  O   UNL     1      45.336 -44.735  45.058  0.00  0.00    +0.000 OA
ATOM      4  O   UNL     1      49.899 -48.745  50.591  0.00  0.00    +0.000 OA
ATOM      5  O   UNL     1      46.392 -48.878  50.320  0.00  0.00    +0.000 OA
ATOM      6  C   UNL     1      50.019 -44.932  48.451  0.00  0.00    +0.000 C 
ATOM      7  C   UNL     1      49.388 -43.799  47.864  0.00  0.00    +0.000 C 
ATOM      8  C   UNL     1      48.864 -42.543  47.321  0.00  0.00    +0.000 C 
ATOM      9  C   UNL     1      49.236 -45.987  49.146  0.00  0.00    +0.000 C 
ATOM     10  C   UNL     1      48.205 -42.734  45.973  0.00  0.00    +0.000 C 
ATOM     11  C   UNL     1      47.357 -43.824  45.640  0.00  0.00    +0.000 C 
ATOM     12  C   UNL     1      46.494 -44.960  45.391  0.00  0.00    +0.000 C 
ATOM     13  C   UNL     1      49.450 -47.613  50.728  0.00  0.00    +0.000 C 
ATOM     14  C   UNL     1      47.001 -46.352  45.583  0.00  0.00    +0.000 C 
ATOM     15  C   UNL     1      48.487 -47.329  51.821  0.00  0.00    +0.000 C 
ATOM     16  C   UNL     1      47.386 -46.393  51.725  0.00  0.00    +0.000 C 
ATOM     17  C   UNL     1      46.048 -46.704  51.239  0.00  0.00    +0.000 C 
ATOM     18  C   UNL     1      46.108 -47.370  46.001  0.00  0.00    +0.000 C 
ATOM     19  C   UNL     1      45.151 -47.398  48.940  0.00  0.00    +0.000 C 
ATOM     20  C   UNL     1      48.487 -46.679  45.635  0.00  0.00    +0.000 C 
ATOM     21  C   UNL     1      45.050 -48.413  47.897  0.00  0.00    +0.000 C 
ATOM     22  C   UNL     1      45.886 -47.761  50.194  0.00  0.00    +0.000 C 
ATOM     23  C   UNL     1      45.259 -48.233  46.467  0.00  0.00    +0.000 C 
ATOM     24  C   UNL     1      44.804 -46.213  51.974  0.00  0.00    +0.000 C 
ATOM     25  C   UNL     1      44.781 -45.959  48.610  0.00  0.00    +0.000 C 
ATOM     26  C   UNL     1      44.540 -49.071  45.442  0.00  0.00    +0.000 C 
ENDROOT
BRANCH   8  27
ATOM     27  O   UNL     1      49.999 -41.690  47.157  0.00  0.00    +0.000 OA
ATOM     28  H   UNL     1      50.665 -42.050  47.777  0.00  0.00    +0.000 HD
ENDBRANCH   8  27
BRANCH  10  29
ATOM     29  O   UNL     1      48.412 -41.743  45.026  0.00  0.00    +0.000 OA
ATOM     30  H   UNL     1      49.359 -41.610  44.833  0.00  0.00    +0.000 HD
ENDBRANCH  10  29
BRANCH  15  31
ATOM     31  O   UNL     1      48.304 -48.305  52.788  0.00  0.00    +0.000 OA
ATOM     32  H   UNL     1      47.472 -48.145  53.284  0.00  0.00    +0.000 HD
ENDBRANCH  15  31
BRANCH  16  33
ATOM     33  O   UNL     1      47.457 -45.310  52.582  0.00  0.00    +0.000 OA
ATOM     34  C   UNL     1      47.906 -44.183  51.871  0.00  0.00    +0.000 C 
ENDBRANCH  16  33
BRANCH  21  35
ATOM     35  O   UNL     1      44.527 -49.656  48.338  0.00  0.00    +0.000 OA
BRANCH  35  37
ATOM     36  O   UNL     1      42.250 -49.146  48.168  0.00  0.00    +0.000 OA
ATOM     37  C   UNL     1      43.232 -49.571  48.750  0.00  0.00    +0.000 C 
ATOM     38  C   UNL     1      42.980 -50.116  50.109  0.00  0.00    +0.000 C 
ENDBRANCH  35  37
ENDBRANCH  21  35
BRANCH   6  39
ATOM     39  C   UNL     1      51.446 -45.067  48.269  0.00  0.00    +0.000 C 
BRANCH  39  41
ATOM     40  O   UNL     1      53.329 -46.257  47.028  0.00  0.00    +0.000 OA
ATOM     41  C   UNL     1      51.988 -45.715  47.043  0.00  0.00    +0.000 C 
ATOM     42  C   UNL     1      52.299 -47.126  47.255  0.00  0.00    +0.000 C 
ATOM     43  C   UNL     1      51.664 -45.087  45.640  0.00  0.00    +0.000 C 
BRANCH  42  44
ATOM     44  C   UNL     1      52.082 -48.158  46.287  0.00  0.00    +0.000 C 
ATOM     45  C   UNL     1      53.238 -48.689  45.471  0.00  0.00    +0.000 C 
BRANCH  44  46
ATOM     46  C   UNL     1      50.951 -49.008  46.381  0.00  0.00    +0.000 C 
ATOM     47  C   UNL     1      49.998 -49.736  46.413  0.00  0.00    +0.000 C 
ATOM     48  C   UNL     1      48.795 -50.687  46.386  0.00  0.00    +0.000 C 
ENDBRANCH  44  46
ENDBRANCH  42  44
ENDBRANCH  39  41
BRANCH  39  49
ATOM     49  O   UNL     1      52.254 -44.633  49.308  0.00  0.00    +0.000 OA
ATOM     50  H   UNL     1      53.028 -44.109  49.026  0.00  0.00    +0.000 HD
ENDBRANCH  39  49
ENDBRANCH   6  39
BRANCH   8  51
ATOM     51  C   UNL     1      47.938 -41.882  48.255  0.00  0.00    +0.000 C 
BRANCH  51  52
ATOM     52  O   UNL     1      47.110 -41.313  49.132  0.00  0.00    +0.000 OA
ATOM     53  H   UNL     1      47.608 -40.884  49.857  0.00  0.00    +0.000 HD
ENDBRANCH  51  52
ENDBRANCH   8  51
TORSDOF 13
ENDMDL
MODEL 5
REMARK VINA RESULT:      -6.0     16.560     21.162
REMARK  Name = 102471178_CandidaspongiolideCore.pdbqt.pdb
REMARK  13 active torsions:
REMARK  status: ('A' for Active; 'I' for Inactive)
REMARK    1  A    between atoms: C_6  and  C_39
REMARK    2  A    between atoms: C_8  and  O_27
REMARK    3  A    between atoms: C_8  and  C_51
REMARK    4  A    between atoms: C_10  and  O_29
REMARK    5  A    between atoms: C_15  and  O_31
REMARK    6  A    between atoms: C_16  and  O_33
REMARK    7  A    between atoms: C_21  and  O_35
REMARK    8  A    between atoms: O_35  and  C_37
REMARK    9  A    between atoms: C_39  and  C_41
REMARK   10  A    between atoms: C_39  and  O_49
REMARK   11  A    between atoms: C_42  and  C_44
REMARK   12  A    between atoms: C_44  and  C_46
REMARK   13  A    between atoms: C_51  and  O_52
REMARK                            x       y       z     vdW  Elec       q    Type
REMARK                         _______ _______ _______ _____ _____    ______ ____
ROOT
ATOM      1  O   UNL     1      60.201 -47.664  61.208  0.00  0.00    +0.000 OA
ATOM      2  O   UNL     1      60.776 -49.789  61.861  0.00  0.00    +0.000 OA
ATOM      3  O   UNL     1      63.824 -53.525  62.954  0.00  0.00    +0.000 OA
ATOM      4  O   UNL     1      58.675 -47.123  62.781  0.00  0.00    +0.000 OA
ATOM      5  O   UNL     1      57.782 -50.476  63.369  0.00  0.00    +0.000 OA
ATOM      6  C   UNL     1      62.377 -48.353  60.800  0.00  0.00    +0.000 C 
ATOM      7  C   UNL     1      63.237 -49.341  60.247  0.00  0.00    +0.000 C 
ATOM      8  C   UNL     1      64.158 -50.249  59.557  0.00  0.00    +0.000 C 
ATOM      9  C   UNL     1      61.046 -48.704  61.362  0.00  0.00    +0.000 C 
ATOM     10  C   UNL     1      64.955 -51.098  60.524  0.00  0.00    +0.000 C 
ATOM     11  C   UNL     1      64.418 -51.708  61.689  0.00  0.00    +0.000 C 
ATOM     12  C   UNL     1      63.786 -52.304  62.848  0.00  0.00    +0.000 C 
ATOM     13  C   UNL     1      59.005 -47.794  61.811  0.00  0.00    +0.000 C 
ATOM     14  C   UNL     1      63.074 -51.449  63.846  0.00  0.00    +0.000 C 
ATOM     15  C   UNL     1      57.978 -48.560  61.061  0.00  0.00    +0.000 C 
ATOM     16  C   UNL     1      58.204 -49.850  60.442  0.00  0.00    +0.000 C 
ATOM     17  C   UNL     1      58.040 -51.143  61.094  0.00  0.00    +0.000 C 
ATOM     18  C   UNL     1      61.955 -51.969  64.540  0.00  0.00    +0.000 C 
ATOM     19  C   UNL     1      59.278 -52.286  63.025  0.00  0.00    +0.000 C 
ATOM     20  C   UNL     1      63.310 -49.949  63.949  0.00  0.00    +0.000 C 
ATOM     21  C   UNL     1      59.576 -52.346  64.452  0.00  0.00    +0.000 C 
ATOM     22  C   UNL     1      58.299 -51.251  62.562  0.00  0.00    +0.000 C 
ATOM     23  C   UNL     1      60.886 -52.475  65.075  0.00  0.00    +0.000 C 
ATOM     24  C   UNL     1      57.324 -52.296  60.397  0.00  0.00    +0.000 C 
ATOM     25  C   UNL     1      60.166 -53.049  62.052  0.00  0.00    +0.000 C 
ATOM     26  C   UNL     1      61.075 -53.160  66.404  0.00  0.00    +0.000 C 
ENDROOT
BRANCH   8  27
ATOM     27  O   UNL     1      65.062 -49.409  58.836  0.00  0.00    +0.000 OA
ATOM     28  H   UNL     1      65.839 -49.979  58.668  0.00  0.00    +0.000 HD
ENDBRANCH   8  27
BRANCH  10  29
ATOM     29  O   UNL     1      66.285 -51.328  60.209  0.00  0.00    +0.000 OA
ATOM     30  H   UNL     1      66.550 -52.251  60.379  0.00  0.00    +0.000 HD
ENDBRANCH  10  29
BRANCH  15  31
ATOM     31  O   UNL     1      56.647 -48.307  61.350  0.00  0.00    +0.000 OA
ATOM     32  H   UNL     1      56.098 -48.392  60.541  0.00  0.00    +0.000 HD
ENDBRANCH  15  31
BRANCH  16  33
ATOM     33  O   UNL     1      58.081 -49.873  59.064  0.00  0.00    +0.000 OA
ATOM     34  C   UNL     1      59.351 -49.714  58.482  0.00  0.00    +0.000 C 
ENDBRANCH  16  33
BRANCH  21  35
ATOM     35  O   UNL     1      58.434 -52.456  65.285  0.00  0.00    +0.000 OA
BRANCH  35  37
ATOM     36  O   UNL     1      58.169 -54.775  65.132  0.00  0.00    +0.000 OA
ATOM     37  C   UNL     1      57.762 -53.627  65.112  0.00  0.00    +0.000 C 
ATOM     38  C   UNL     1      56.298 -53.475  64.903  0.00  0.00    +0.000 C 
ENDBRANCH  35  37
ENDBRANCH  21  35
BRANCH   6  39
ATOM     39  C   UNL     1      62.880 -47.000  60.879  0.00  0.00    +0.000 C 
BRANCH  39  41
ATOM     40  O   UNL     1      63.068 -44.679  59.841  0.00  0.00    +0.000 OA
ATOM     41  C   UNL     1      62.755 -46.085  59.710  0.00  0.00    +0.000 C 
ATOM     42  C   UNL     1      64.037 -45.497  59.331  0.00  0.00    +0.000 C 
ATOM     43  C   UNL     1      61.543 -46.261  58.727  0.00  0.00    +0.000 C 
BRANCH  42  44
ATOM     44  C   UNL     1      64.454 -45.263  57.982  0.00  0.00    +0.000 C 
ATOM     45  C   UNL     1      64.914 -43.887  57.557  0.00  0.00    +0.000 C 
BRANCH  44  46
ATOM     46  C   UNL     1      64.884 -46.338  57.165  0.00  0.00    +0.000 C 
ATOM     47  C   UNL     1      65.271 -47.215  56.444  0.00  0.00    +0.000 C 
ATOM     48  C   UNL     1      65.809 -48.289  55.489  0.00  0.00    +0.000 C 
ENDBRANCH  44  46
ENDBRANCH  42  44
ENDBRANCH  39  41
BRANCH  39  49
ATOM     49  O   UNL     1      63.529 -46.640  62.048  0.00  0.00    +0.000 OA
ATOM     50  H   UNL     1      63.518 -45.682  62.237  0.00  0.00    +0.000 HD
ENDBRANCH  39  49
ENDBRANCH   6  39
BRANCH   8  51
ATOM     51  C   UNL     1      63.462 -51.102  58.579  0.00  0.00    +0.000 C 
BRANCH  51  52
ATOM     52  O   UNL     1      62.845 -51.910  57.717  0.00  0.00    +0.000 OA
ATOM     53  H   UNL     1      61.975 -52.195  58.065  0.00  0.00    +0.000 HD
ENDBRANCH  51  52
ENDBRANCH   8  51
TORSDOF 13
ENDMDL
MODEL 6
REMARK VINA RESULT:      -6.0      3.997      8.866
REMARK  Name = 102471178_CandidaspongiolideCore.pdbqt.pdb
REMARK  13 active torsions:
REMARK  status: ('A' for Active; 'I' for Inactive)
REMARK    1  A    between atoms: C_6  and  C_39
REMARK    2  A    between atoms: C_8  and  O_27
REMARK    3  A    between atoms: C_8  and  C_51
REMARK    4  A    between atoms: C_10  and  O_29
REMARK    5  A    between atoms: C_15  and  O_31
REMARK    6  A    between atoms: C_16  and  O_33
REMARK    7  A    between atoms: C_21  and  O_35
REMARK    8  A    between atoms: O_35  and  C_37
REMARK    9  A    between atoms: C_39  and  C_41
REMARK   10  A    between atoms: C_39  and  O_49
REMARK   11  A    between atoms: C_42  and  C_44
REMARK   12  A    between atoms: C_44  and  C_46
REMARK   13  A    between atoms: C_51  and  O_52
REMARK                            x       y       z     vdW  Elec       q    Type
REMARK                         _______ _______ _______ _____ _____    ______ ____
ROOT
ATOM      1  O   UNL     1      49.612 -44.908  45.097  0.00  0.00    +0.000 OA
ATOM      2  O   UNL     1      48.735 -43.449  46.638  0.00  0.00    +0.000 OA
ATOM      3  O   UNL     1      47.109 -41.975  51.068  0.00  0.00    +0.000 OA
ATOM      4  O   UNL     1      51.196 -43.620  44.131  0.00  0.00    +0.000 OA
ATOM      5  O   UNL     1      49.509 -40.621  44.873  0.00  0.00    +0.000 OA
ATOM      6  C   UNL     1      48.813 -45.805  47.079  0.00  0.00    +0.000 C 
ATOM      7  C   UNL     1      47.736 -45.898  48.005  0.00  0.00    +0.000 C 
ATOM      8  C   UNL     1      46.606 -46.150  48.902  0.00  0.00    +0.000 C 
ATOM      9  C   UNL     1      49.044 -44.576  46.274  0.00  0.00    +0.000 C 
ATOM     10  C   UNL     1      46.784 -45.481  50.248  0.00  0.00    +0.000 C 
ATOM     11  C   UNL     1      47.296 -44.168  50.431  0.00  0.00    +0.000 C 
ATOM     12  C   UNL     1      47.813 -42.819  50.525  0.00  0.00    +0.000 C 
ATOM     13  C   UNL     1      50.014 -43.873  44.336  0.00  0.00    +0.000 C 
ATOM     14  C   UNL     1      49.141 -42.474  49.934  0.00  0.00    +0.000 C 
ATOM     15  C   UNL     1      48.968 -43.239  43.495  0.00  0.00    +0.000 C 
ATOM     16  C   UNL     1      47.661 -42.838  43.972  0.00  0.00    +0.000 C 
ATOM     17  C   UNL     1      47.332 -41.545  44.560  0.00  0.00    +0.000 C 
ATOM     18  C   UNL     1      49.361 -41.172  49.421  0.00  0.00    +0.000 C 
ATOM     19  C   UNL     1      48.052 -40.389  46.732  0.00  0.00    +0.000 C 
ATOM     20  C   UNL     1      50.179 -43.533  49.589  0.00  0.00    +0.000 C 
ATOM     21  C   UNL     1      49.100 -39.734  47.505  0.00  0.00    +0.000 C 
ATOM     22  C   UNL     1      48.382 -40.815  45.334  0.00  0.00    +0.000 C 
ATOM     23  C   UNL     1      49.467 -39.992  48.891  0.00  0.00    +0.000 C 
ATOM     24  C   UNL     1      46.072 -40.788  44.153  0.00  0.00    +0.000 C 
ATOM     25  C   UNL     1      46.798 -40.873  47.447  0.00  0.00    +0.000 C 
ATOM     26  C   UNL     1      50.041 -38.919  49.780  0.00  0.00    +0.000 C 
ENDROOT
BRANCH   8  27
ATOM     27  O   UNL     1      46.575 -47.566  49.098  0.00  0.00    +0.000 OA
ATOM     28  H   UNL     1      45.646 -47.756  49.341  0.00  0.00    +0.000 HD
ENDBRANCH   8  27
BRANCH  10  29
ATOM     29  O   UNL     1      46.368 -46.191  51.362  0.00  0.00    +0.000 OA
ATOM     30  H   UNL     1      46.296 -45.626  52.154  0.00  0.00    +0.000 HD
ENDBRANCH  10  29
BRANCH  15  31
ATOM     31  O   UNL     1      49.380 -42.557  42.360  0.00  0.00    +0.000 OA
ATOM     32  H   UNL     1      49.930 -41.783  42.606  0.00  0.00    +0.000 HD
ENDBRANCH  15  31
BRANCH  16  33
ATOM     33  O   UNL     1      46.594 -43.504  43.397  0.00  0.00    +0.000 OA
ATOM     34  C   UNL     1      46.068 -44.424  44.321  0.00  0.00    +0.000 C 
ENDBRANCH  16  33
BRANCH  21  35
ATOM     35  O   UNL     1      49.691 -38.616  46.862  0.00  0.00    +0.000 OA
BRANCH  35  37
ATOM     36  O   UNL     1      47.949 -37.487  45.784  0.00  0.00    +0.000 OA
ATOM     37  C   UNL     1      48.807 -37.604  46.640  0.00  0.00    +0.000 C 
ATOM     38  C   UNL     1      48.885 -36.490  47.620  0.00  0.00    +0.000 C 
ENDBRANCH  35  37
ENDBRANCH  21  35
BRANCH   6  39
ATOM     39  C   UNL     1      49.732 -46.918  47.012  0.00  0.00    +0.000 C 
BRANCH  39  41
ATOM     40  O   UNL     1      52.073 -47.834  47.440  0.00  0.00    +0.000 OA
ATOM     41  C   UNL     1      51.052 -46.842  47.698  0.00  0.00    +0.000 C 
ATOM     42  C   UNL     1      52.153 -46.654  46.756  0.00  0.00    +0.000 C 
ATOM     43  C   UNL     1      51.105 -46.419  49.209  0.00  0.00    +0.000 C 
BRANCH  42  44
ATOM     44  C   UNL     1      53.295 -45.827  47.001  0.00  0.00    +0.000 C 
ATOM     45  C   UNL     1      54.164 -46.071  48.213  0.00  0.00    +0.000 C 
BRANCH  44  46
ATOM     46  C   UNL     1      53.903 -45.106  45.941  0.00  0.00    +0.000 C 
ATOM     47  C   UNL     1      54.401 -44.531  45.014  0.00  0.00    +0.000 C 
ATOM     48  C   UNL     1      55.003 -43.840  43.784  0.00  0.00    +0.000 C 
ENDBRANCH  44  46
ENDBRANCH  42  44
ENDBRANCH  39  41
BRANCH  39  49
ATOM     49  O   UNL     1      49.351 -48.000  46.236  0.00  0.00    +0.000 OA
ATOM     50  H   UNL     1      48.516 -48.422  46.514  0.00  0.00    +0.000 HD
ENDBRANCH  39  49
ENDBRANCH   6  39
BRANCH   8  51
ATOM     51  C   UNL     1      45.323 -45.754  48.299  0.00  0.00    +0.000 C 
BRANCH  51  52
ATOM     52  O   UNL     1      44.176 -45.353  47.749  0.00  0.00    +0.000 OA
ATOM     53  H   UNL     1      44.135 -44.376  47.698  0.00  0.00    +0.000 HD
ENDBRANCH  51  52
ENDBRANCH   8  51
TORSDOF 13
ENDMDL
MODEL 7
REMARK VINA RESULT:      -5.9      4.028      7.906
REMARK  Name = 102471178_CandidaspongiolideCore.pdbqt.pdb
REMARK  13 active torsions:
REMARK  status: ('A' for Active; 'I' for Inactive)
REMARK    1  A    between atoms: C_6  and  C_39
REMARK    2  A    between atoms: C_8  and  O_27
REMARK    3  A    between atoms: C_8  and  C_51
REMARK    4  A    between atoms: C_10  and  O_29
REMARK    5  A    between atoms: C_15  and  O_31
REMARK    6  A    between atoms: C_16  and  O_33
REMARK    7  A    between atoms: C_21  and  O_35
REMARK    8  A    between atoms: O_35  and  C_37
REMARK    9  A    between atoms: C_39  and  C_41
REMARK   10  A    between atoms: C_39  and  O_49
REMARK   11  A    between atoms: C_42  and  C_44
REMARK   12  A    between atoms: C_44  and  C_46
REMARK   13  A    between atoms: C_51  and  O_52
REMARK                            x       y       z     vdW  Elec       q    Type
REMARK                         _______ _______ _______ _____ _____    ______ ____
ROOT
ATOM      1  O   UNL     1      49.760 -44.750  45.323  0.00  0.00    +0.000 OA
ATOM      2  O   UNL     1      48.787 -43.207  46.719  0.00  0.00    +0.000 OA
ATOM      3  O   UNL     1      46.880 -41.488  50.944  0.00  0.00    +0.000 OA
ATOM      4  O   UNL     1      51.406 -43.516  44.392  0.00  0.00    +0.000 OA
ATOM      5  O   UNL     1      49.681 -40.483  44.851  0.00  0.00    +0.000 OA
ATOM      6  C   UNL     1      48.832 -45.534  47.296  0.00  0.00    +0.000 C 
ATOM      7  C   UNL     1      47.697 -45.577  48.154  0.00  0.00    +0.000 C 
ATOM      8  C   UNL     1      46.510 -45.780  48.989  0.00  0.00    +0.000 C 
ATOM      9  C   UNL     1      49.118 -44.353  46.440  0.00  0.00    +0.000 C 
ATOM     10  C   UNL     1      46.602 -45.036  50.303  0.00  0.00    +0.000 C 
ATOM     11  C   UNL     1      47.104 -43.714  50.445  0.00  0.00    +0.000 C 
ATOM     12  C   UNL     1      47.616 -42.361  50.496  0.00  0.00    +0.000 C 
ATOM     13  C   UNL     1      50.213 -43.759  44.532  0.00  0.00    +0.000 C 
ATOM     14  C   UNL     1      48.981 -42.047  49.974  0.00  0.00    +0.000 C 
ATOM     15  C   UNL     1      49.226 -43.175  43.591  0.00  0.00    +0.000 C 
ATOM     16  C   UNL     1      47.891 -42.749  43.958  0.00  0.00    +0.000 C 
ATOM     17  C   UNL     1      47.527 -41.427  44.450  0.00  0.00    +0.000 C 
ATOM     18  C   UNL     1      49.236 -40.776  49.404  0.00  0.00    +0.000 C 
ATOM     19  C   UNL     1      48.106 -40.149  46.595  0.00  0.00    +0.000 C 
ATOM     20  C   UNL     1      50.037 -43.122  49.758  0.00  0.00    +0.000 C 
ATOM     21  C   UNL     1      49.103 -39.449  47.397  0.00  0.00    +0.000 C 
ATOM     22  C   UNL     1      48.526 -40.652  45.248  0.00  0.00    +0.000 C 
ATOM     23  C   UNL     1      49.379 -39.628  48.816  0.00  0.00    +0.000 C 
ATOM     24  C   UNL     1      46.297 -40.695  43.920  0.00  0.00    +0.000 C 
ATOM     25  C   UNL     1      46.807 -40.594  47.253  0.00  0.00    +0.000 C 
ATOM     26  C   UNL     1      49.896 -38.506  49.678  0.00  0.00    +0.000 C 
ENDROOT
BRANCH   8  27
ATOM     27  O   UNL     1      46.464 -47.183  49.261  0.00  0.00    +0.000 OA
ATOM     28  H   UNL     1      47.369 -47.498  49.062  0.00  0.00    +0.000 HD
ENDBRANCH   8  27
BRANCH  10  29
ATOM     29  O   UNL     1      46.113 -45.683  51.427  0.00  0.00    +0.000 OA
ATOM     30  H   UNL     1      46.811 -46.167  51.907  0.00  0.00    +0.000 HD
ENDBRANCH  10  29
BRANCH  15  31
ATOM     31  O   UNL     1      49.711 -42.557  42.449  0.00  0.00    +0.000 OA
ATOM     32  H   UNL     1      49.532 -43.109  41.658  0.00  0.00    +0.000 HD
ENDBRANCH  15  31
BRANCH  16  33
ATOM     33  O   UNL     1      46.862 -43.449  43.353  0.00  0.00    +0.000 OA
ATOM     34  C   UNL     1      46.311 -44.356  44.276  0.00  0.00    +0.000 C 
ENDBRANCH  16  33
BRANCH  21  35
ATOM     35  O   UNL     1      49.737 -38.368  46.732  0.00  0.00    +0.000 OA
BRANCH  35  37
ATOM     36  O   UNL     1      48.417 -36.542  47.363  0.00  0.00    +0.000 OA
ATOM     37  C   UNL     1      48.911 -37.301  46.548  0.00  0.00    +0.000 C 
ATOM     38  C   UNL     1      48.598 -37.000  45.127  0.00  0.00    +0.000 C 
ENDBRANCH  35  37
ENDBRANCH  21  35
BRANCH   6  39
ATOM     39  C   UNL     1      49.751 -46.648  47.352  0.00  0.00    +0.000 C 
BRANCH  39  41
ATOM     40  O   UNL     1      50.425 -46.037  49.735  0.00  0.00    +0.000 OA
ATOM     41  C   UNL     1      50.601 -46.859  48.558  0.00  0.00    +0.000 C 
ATOM     42  C   UNL     1      49.816 -47.260  49.722  0.00  0.00    +0.000 C 
ATOM     43  C   UNL     1      52.126 -47.183  48.371  0.00  0.00    +0.000 C 
BRANCH  42  44
ATOM     44  C   UNL     1      50.243 -48.218  50.696  0.00  0.00    +0.000 C 
ATOM     45  C   UNL     1      51.303 -47.852  51.708  0.00  0.00    +0.000 C 
BRANCH  44  46
ATOM     46  C   UNL     1      49.411 -49.313  51.042  0.00  0.00    +0.000 C 
ATOM     47  C   UNL     1      48.727 -50.264  51.298  0.00  0.00    +0.000 C 
ATOM     48  C   UNL     1      47.890 -51.520  51.578  0.00  0.00    +0.000 C 
ENDBRANCH  44  46
ENDBRANCH  42  44
ENDBRANCH  39  41
BRANCH  39  49
ATOM     49  O   UNL     1      49.843 -47.443  46.222  0.00  0.00    +0.000 OA
ATOM     50  H   UNL     1      50.443 -47.098  45.533  0.00  0.00    +0.000 HD
ENDBRANCH  39  49
ENDBRANCH   6  39
BRANCH   8  51
ATOM     51  C   UNL     1      45.270 -45.420  48.281  0.00  0.00    +0.000 C 
BRANCH  51  52
ATOM     52  O   UNL     1      44.168 -45.102  47.603  0.00  0.00    +0.000 OA
ATOM     53  H   UNL     1      44.355 -44.413  46.933  0.00  0.00    +0.000 HD
ENDBRANCH  51  52
ENDBRANCH   8  51
TORSDOF 13
ENDMDL
MODEL 8
REMARK VINA RESULT:      -5.9      3.410      7.040
REMARK  Name = 102471178_CandidaspongiolideCore.pdbqt.pdb
REMARK  13 active torsions:
REMARK  status: ('A' for Active; 'I' for Inactive)
REMARK    1  A    between atoms: C_6  and  C_39
REMARK    2  A    between atoms: C_8  and  O_27
REMARK    3  A    between atoms: C_8  and  C_51
REMARK    4  A    between atoms: C_10  and  O_29
REMARK    5  A    between atoms: C_15  and  O_31
REMARK    6  A    between atoms: C_16  and  O_33
REMARK    7  A    between atoms: C_21  and  O_35
REMARK    8  A    between atoms: O_35  and  C_37
REMARK    9  A    between atoms: C_39  and  C_41
REMARK   10  A    between atoms: C_39  and  O_49
REMARK   11  A    between atoms: C_42  and  C_44
REMARK   12  A    between atoms: C_44  and  C_46
REMARK   13  A    between atoms: C_51  and  O_52
REMARK                            x       y       z     vdW  Elec       q    Type
REMARK                         _______ _______ _______ _____ _____    ______ ____
ROOT
ATOM      1  O   UNL     1      47.921 -47.012  46.693  0.00  0.00    +0.000 OA
ATOM      2  O   UNL     1      47.701 -44.894  47.555  0.00  0.00    +0.000 OA
ATOM      3  O   UNL     1      48.047 -41.332  50.966  0.00  0.00    +0.000 OA
ATOM      4  O   UNL     1      48.853 -46.569  44.684  0.00  0.00    +0.000 OA
ATOM      5  O   UNL     1      47.463 -43.340  44.516  0.00  0.00    +0.000 OA
ATOM      6  C   UNL     1      48.109 -46.771  48.991  0.00  0.00    +0.000 C 
ATOM      7  C   UNL     1      47.543 -46.264  50.193  0.00  0.00    +0.000 C 
ATOM      8  C   UNL     1      46.926 -45.901  51.472  0.00  0.00    +0.000 C 
ATOM      9  C   UNL     1      47.895 -46.097  47.683  0.00  0.00    +0.000 C 
ATOM     10  C   UNL     1      47.622 -44.729  52.130  0.00  0.00    +0.000 C 
ATOM     11  C   UNL     1      48.079 -43.575  51.439  0.00  0.00    +0.000 C 
ATOM     12  C   UNL     1      48.501 -42.430  50.660  0.00  0.00    +0.000 C 
ATOM     13  C   UNL     1      47.892 -46.514  45.443  0.00  0.00    +0.000 C 
ATOM     14  C   UNL     1      49.422 -42.603  49.496  0.00  0.00    +0.000 C 
ATOM     15  C   UNL     1      46.549 -46.177  44.908  0.00  0.00    +0.000 C 
ATOM     16  C   UNL     1      45.551 -45.405  45.619  0.00  0.00    +0.000 C 
ATOM     17  C   UNL     1      45.426 -43.953  45.594  0.00  0.00    +0.000 C 
ATOM     18  C   UNL     1      49.318 -41.730  48.386  0.00  0.00    +0.000 C 
ATOM     19  C   UNL     1      46.934 -42.063  46.446  0.00  0.00    +0.000 C 
ATOM     20  C   UNL     1      50.276 -43.850  49.311  0.00  0.00    +0.000 C 
ATOM     21  C   UNL     1      48.170 -41.300  46.311  0.00  0.00    +0.000 C 
ATOM     22  C   UNL     1      46.658 -43.125  45.424  0.00  0.00    +0.000 C 
ATOM     23  C   UNL     1      49.112 -40.953  47.367  0.00  0.00    +0.000 C 
ATOM     24  C   UNL     1      44.068 -43.278  45.426  0.00  0.00    +0.000 C 
ATOM     25  C   UNL     1      46.142 -41.967  47.742  0.00  0.00    +0.000 C 
ATOM     26  C   UNL     1      49.943 -39.697  47.316  0.00  0.00    +0.000 C 
ENDROOT
BRANCH   8  27
ATOM     27  O   UNL     1      47.071 -47.048  52.312  0.00  0.00    +0.000 OA
ATOM     28  H   UNL     1      46.669 -46.777  53.162  0.00  0.00    +0.000 HD
ENDBRANCH   8  27
BRANCH  10  29
ATOM     29  O   UNL     1      47.771 -44.780  53.507  0.00  0.00    +0.000 OA
ATOM     30  H   UNL     1      47.704 -43.898  53.918  0.00  0.00    +0.000 HD
ENDBRANCH  10  29
BRANCH  15  31
ATOM     31  O   UNL     1      46.389 -46.160  43.531  0.00  0.00    +0.000 OA
ATOM     32  H   UNL     1      46.676 -47.014  43.142  0.00  0.00    +0.000 HD
ENDBRANCH  15  31
BRANCH  16  33
ATOM     33  O   UNL     1      44.384 -46.085  45.920  0.00  0.00    +0.000 OA
ATOM     34  C   UNL     1      44.357 -46.374  47.296  0.00  0.00    +0.000 C 
ENDBRANCH  16  33
BRANCH  21  35
ATOM     35  O   UNL     1      48.355 -40.704  45.038  0.00  0.00    +0.000 OA
BRANCH  35  37
ATOM     36  O   UNL     1      47.204 -38.697  45.383  0.00  0.00    +0.000 OA
ATOM     37  C   UNL     1      47.449 -39.723  44.773  0.00  0.00    +0.000 C 
ATOM     38  C   UNL     1      46.667 -39.924  43.526  0.00  0.00    +0.000 C 
ENDBRANCH  35  37
ENDBRANCH  21  35
BRANCH   6  39
ATOM     39  C   UNL     1      48.979 -47.921  49.097  0.00  0.00    +0.000 C 
BRANCH  39  41
ATOM     40  O   UNL     1      47.149 -49.394  50.089  0.00  0.00    +0.000 OA
ATOM     41  C   UNL     1      48.553 -49.113  49.882  0.00  0.00    +0.000 C 
ATOM     42  C   UNL     1      47.783 -50.057  49.076  0.00  0.00    +0.000 C 
ATOM     43  C   UNL     1      49.359 -49.508  51.170  0.00  0.00    +0.000 C 
BRANCH  42  44
ATOM     44  C   UNL     1      47.882 -51.481  49.182  0.00  0.00    +0.000 C 
ATOM     45  C   UNL     1      47.014 -52.232  50.166  0.00  0.00    +0.000 C 
BRANCH  44  46
ATOM     46  C   UNL     1      48.408 -52.249  48.112  0.00  0.00    +0.000 C 
ATOM     47  C   UNL     1      48.808 -52.916  47.200  0.00  0.00    +0.000 C 
ATOM     48  C   UNL     1      49.251 -53.786  46.016  0.00  0.00    +0.000 C 
ENDBRANCH  44  46
ENDBRANCH  42  44
ENDBRANCH  39  41
BRANCH  39  49
ATOM     49  O   UNL     1      50.225 -47.821  48.501  0.00  0.00    +0.000 OA
ATOM     50  H   UNL     1      50.627 -46.933  48.550  0.00  0.00    +0.000 HD
ENDBRANCH  39  49
ENDBRANCH   6  39
BRANCH   8  51
ATOM     51  C   UNL     1      45.486 -45.628  51.332  0.00  0.00    +0.000 C 
BRANCH  51  52
ATOM     52  O   UNL     1      44.175 -45.424  51.200  0.00  0.00    +0.000 OA
ATOM     53  H   UNL     1      43.696 -46.273  51.108  0.00  0.00    +0.000 HD
ENDBRANCH  51  52
ENDBRANCH   8  51
TORSDOF 13
ENDMDL
MODEL 9
REMARK VINA RESULT:      -5.9     16.142     20.147
REMARK  Name = 102471178_CandidaspongiolideCore.pdbqt.pdb
REMARK  13 active torsions:
REMARK  status: ('A' for Active; 'I' for Inactive)
REMARK    1  A    between atoms: C_6  and  C_39
REMARK    2  A    between atoms: C_8  and  O_27
REMARK    3  A    between atoms: C_8  and  C_51
REMARK    4  A    between atoms: C_10  and  O_29
REMARK    5  A    between atoms: C_15  and  O_31
REMARK    6  A    between atoms: C_16  and  O_33
REMARK    7  A    between atoms: C_21  and  O_35
REMARK    8  A    between atoms: O_35  and  C_37
REMARK    9  A    between atoms: C_39  and  C_41
REMARK   10  A    between atoms: C_39  and  O_49
REMARK   11  A    between atoms: C_42  and  C_44
REMARK   12  A    between atoms: C_44  and  C_46
REMARK   13  A    between atoms: C_51  and  O_52
REMARK                            x       y       z     vdW  Elec       q    Type
REMARK                         _______ _______ _______ _____ _____    ______ ____
ROOT
ATOM      1  O   UNL     1      63.363 -49.806  58.904  0.00  0.00    +0.000 OA
ATOM      2  O   UNL     1      61.558 -51.173  59.293  0.00  0.00    +0.000 OA
ATOM      3  O   UNL     1      56.816 -52.286  60.135  0.00  0.00    +0.000 OA
ATOM      4  O   UNL     1      64.349 -50.870  57.174  0.00  0.00    +0.000 OA
ATOM      5  O   UNL     1      63.046 -54.009  58.087  0.00  0.00    +0.000 OA
ATOM      6  C   UNL     1      61.422 -48.812  59.692  0.00  0.00    +0.000 C 
ATOM      7  C   UNL     1      60.390 -48.806  60.671  0.00  0.00    +0.000 C 
ATOM      8  C   UNL     1      59.399 -48.663  61.740  0.00  0.00    +0.000 C 
ATOM      9  C   UNL     1      62.093 -50.071  59.273  0.00  0.00    +0.000 C 
ATOM     10  C   UNL     1      58.014 -49.078  61.294  0.00  0.00    +0.000 C 
ATOM     11  C   UNL     1      57.735 -50.218  60.493  0.00  0.00    +0.000 C 
ATOM     12  C   UNL     1      57.540 -51.404  59.687  0.00  0.00    +0.000 C 
ATOM     13  C   UNL     1      64.035 -50.837  58.358  0.00  0.00    +0.000 C 
ATOM     14  C   UNL     1      58.243 -51.553  58.376  0.00  0.00    +0.000 C 
ATOM     15  C   UNL     1      64.657 -51.787  59.313  0.00  0.00    +0.000 C 
ATOM     16  C   UNL     1      63.978 -52.373  60.451  0.00  0.00    +0.000 C 
ATOM     17  C   UNL     1      63.200 -53.605  60.432  0.00  0.00    +0.000 C 
ATOM     18  C   UNL     1      58.615 -52.843  57.926  0.00  0.00    +0.000 C 
ATOM     19  C   UNL     1      61.008 -54.260  59.277  0.00  0.00    +0.000 C 
ATOM     20  C   UNL     1      58.839 -50.366  57.632  0.00  0.00    +0.000 C 
ATOM     21  C   UNL     1      60.294 -54.568  58.043  0.00  0.00    +0.000 C 
ATOM     22  C   UNL     1      62.477 -53.984  59.180  0.00  0.00    +0.000 C 
ATOM     23  C   UNL     1      59.006 -54.041  57.614  0.00  0.00    +0.000 C 
ATOM     24  C   UNL     1      63.354 -54.655  61.529  0.00  0.00    +0.000 C 
ATOM     25  C   UNL     1      60.209 -53.944  60.534  0.00  0.00    +0.000 C 
ATOM     26  C   UNL     1      58.069 -54.833  56.738  0.00  0.00    +0.000 C 
ENDROOT
BRANCH   8  27
ATOM     27  O   UNL     1      59.375 -47.270  62.062  0.00  0.00    +0.000 OA
ATOM     28  H   UNL     1      58.456 -47.105  62.352  0.00  0.00    +0.000 HD
ENDBRANCH   8  27
BRANCH  10  29
ATOM     29  O   UNL     1      56.952 -48.313  61.750  0.00  0.00    +0.000 OA
ATOM     30  H   UNL     1      56.412 -47.957  61.019  0.00  0.00    +0.000 HD
ENDBRANCH  10  29
BRANCH  15  31
ATOM     31  O   UNL     1      65.741 -52.528  58.871  0.00  0.00    +0.000 OA
ATOM     32  H   UNL     1      65.473 -53.455  58.693  0.00  0.00    +0.000 HD
ENDBRANCH  15  31
BRANCH  16  33
ATOM     33  O   UNL     1      64.496 -52.029  61.687  0.00  0.00    +0.000 OA
ATOM     34  C   UNL     1      63.673 -51.055  62.281  0.00  0.00    +0.000 C 
ENDBRANCH  16  33
BRANCH  21  35
ATOM     35  O   UNL     1      60.862 -55.623  57.285  0.00  0.00    +0.000 OA
BRANCH  35  37
ATOM     36  O   UNL     1      59.837 -57.413  58.389  0.00  0.00    +0.000 OA
ATOM     37  C   UNL     1      60.795 -56.827  57.917  0.00  0.00    +0.000 C 
ATOM     38  C   UNL     1      62.091 -57.549  58.011  0.00  0.00    +0.000 C 
ENDBRANCH  35  37
ENDBRANCH  21  35
BRANCH   6  39
ATOM     39  C   UNL     1      61.737 -47.557  59.049  0.00  0.00    +0.000 C 
BRANCH  39  41
ATOM     40  O   UNL     1      62.488 -46.469  61.229  0.00  0.00    +0.000 OA
ATOM     41  C   UNL     1      62.015 -46.344  59.868  0.00  0.00    +0.000 C 
ATOM     42  C   UNL     1      63.420 -46.250  60.254  0.00  0.00    +0.000 C 
ATOM     43  C   UNL     1      61.047 -45.112  59.763  0.00  0.00    +0.000 C 
BRANCH  42  44
ATOM     44  C   UNL     1      64.163 -45.028  60.316  0.00  0.00    +0.000 C 
ATOM     45  C   UNL     1      64.891 -44.645  61.583  0.00  0.00    +0.000 C 
BRANCH  44  46
ATOM     46  C   UNL     1      64.619 -44.401  59.128  0.00  0.00    +0.000 C 
ATOM     47  C   UNL     1      64.988 -43.910  58.098  0.00  0.00    +0.000 C 
ATOM     48  C   UNL     1      65.423 -43.332  56.746  0.00  0.00    +0.000 C 
ENDBRANCH  44  46
ENDBRANCH  42  44
ENDBRANCH  39  41
BRANCH  39  49
ATOM     49  O   UNL     1      61.696 -47.534  57.665  0.00  0.00    +0.000 OA
ATOM     50  H   UNL     1      61.138 -46.827  57.289  0.00  0.00    +0.000 HD
ENDBRANCH  39  49
ENDBRANCH   6  39
BRANCH   8  51
ATOM     51  C   UNL     1      59.787 -49.397  62.956  0.00  0.00    +0.000 C 
BRANCH  51  52
ATOM     52  O   UNL     1      60.167 -50.086  64.032  0.00  0.00    +0.000 OA
ATOM     53  H   UNL     1      61.117 -50.317  63.983  0.00  0.00    +0.000 HD
ENDBRANCH  51  52
ENDBRANCH   8  51
TORSDOF 13
ENDMDL
