MODEL 1
REMARK VINA RESULT:      -7.2      0.000      0.000
REMARK  Name = 10288191_Binimetinib.pdbqt.pdb
REMARK  6 active torsions:
REMARK  status: ('A' for Active; 'I' for Inactive)
REMARK    1  A    between atoms: C_6  and  N_21
REMARK    2  A    between atoms: C_7  and  C_14
REMARK    3  A    between atoms: N_13  and  O_16
REMARK    4  A    between atoms: O_16  and  C_17
REMARK    5  A    between atoms: C_18  and  O_19
REMARK    6  A    between atoms: N_21  and  C_25
REMARK                            x       y       z     vdW  Elec       q    Type
REMARK                         _______ _______ _______ _____ _____    ______ ____
ROOT
ATOM      1  F   UNL     1      50.058 -40.622  47.172  0.00  0.00    +0.000 F 
ATOM      2  N   UNL     1      49.186 -37.274  50.080  0.00  0.00    +0.000 N 
ATOM      3  N   UNL     1      50.027 -37.833  48.118  0.00  0.00    +0.000 NA
ATOM      4  C   UNL     1      48.992 -38.623  49.998  0.00  0.00    +0.000 A 
ATOM      5  C   UNL     1      49.524 -38.953  48.755  0.00  0.00    +0.000 A 
ATOM      6  C   UNL     1      48.914 -41.299  49.163  0.00  0.00    +0.000 A 
ATOM      7  C   UNL     1      48.399 -40.911  50.428  0.00  0.00    +0.000 A 
ATOM      8  C   UNL     1      48.433 -39.571  50.856  0.00  0.00    +0.000 A 
ATOM      9  C   UNL     1      49.485 -40.299  48.341  0.00  0.00    +0.000 A 
ATOM     10  C   UNL     1      49.804 -36.833  48.949  0.00  0.00    +0.000 A 
ATOM     11  C   UNL     1      48.789 -36.445  51.170  0.00  0.00    +0.000 C 
ENDROOT
BRANCH   7  14
ATOM     12  O   UNL     1      46.643 -41.834  51.706  0.00  0.00    +0.000 OA
ATOM     13  N   UNL     1      48.682 -42.899  51.829  0.00  0.00    +0.000 N 
ATOM     14  C   UNL     1      47.823 -41.918  51.376  0.00  0.00    +0.000 C 
ATOM     15  H   UNL     1      49.685 -42.763  51.851  0.00  0.00    +0.000 HD
BRANCH  13  16
ATOM     16  O   UNL     1      48.178 -43.639  52.921  0.00  0.00    +0.000 OA
BRANCH  16  17
ATOM     17  C   UNL     1      47.927 -44.862  52.458  0.00  0.00    +0.000 C 
ATOM     18  C   UNL     1      47.650 -46.269  51.919  0.00  0.00    +0.000 C 
BRANCH  18  19
ATOM     19  O   UNL     1      47.417 -47.490  51.448  0.00  0.00    +0.000 OA
ATOM     20  H   UNL     1      48.102 -48.105  51.759  0.00  0.00    +0.000 HD
ENDBRANCH  18  19
ENDBRANCH  16  17
ENDBRANCH  13  16
ENDBRANCH   7  14
BRANCH   6  21
ATOM     21  N   UNL     1      48.826 -42.649  48.736  0.00  0.00    +0.000 N 
ATOM     22  H   UNL     1      47.929 -42.874  48.280  0.00  0.00    +0.000 HD
BRANCH  21  25
ATOM     23 BR   UNL     1      52.993 -46.819  47.174  0.00  0.00    +0.000 Br
ATOM     24  F   UNL     1      49.416 -43.221  46.103  0.00  0.00    +0.000 F 
ATOM     25  C   UNL     1      49.825 -43.591  48.410  0.00  0.00    +0.000 A 
ATOM     26  C   UNL     1      50.085 -43.883  47.061  0.00  0.00    +0.000 A 
ATOM     27  C   UNL     1      50.529 -44.318  49.372  0.00  0.00    +0.000 A 
ATOM     28  C   UNL     1      51.024 -44.836  46.680  0.00  0.00    +0.000 A 
ATOM     29  C   UNL     1      51.475 -45.277  49.010  0.00  0.00    +0.000 A 
ATOM     30  C   UNL     1      51.715 -45.527  47.665  0.00  0.00    +0.000 A 
ENDBRANCH  21  25
ENDBRANCH   6  21
TORSDOF 6
ENDMDL
MODEL 2
REMARK VINA RESULT:      -6.9      4.225      6.336
REMARK  Name = 10288191_Binimetinib.pdbqt.pdb
REMARK  6 active torsions:
REMARK  status: ('A' for Active; 'I' for Inactive)
REMARK    1  A    between atoms: C_6  and  N_21
REMARK    2  A    between atoms: C_7  and  C_14
REMARK    3  A    between atoms: N_13  and  O_16
REMARK    4  A    between atoms: O_16  and  C_17
REMARK    5  A    between atoms: C_18  and  O_19
REMARK    6  A    between atoms: N_21  and  C_25
REMARK                            x       y       z     vdW  Elec       q    Type
REMARK                         _______ _______ _______ _____ _____    ______ ____
ROOT
ATOM      1  F   UNL     1      47.236 -44.467  52.387  0.00  0.00    +0.000 F 
ATOM      2  N   UNL     1      48.289 -40.883  49.842  0.00  0.00    +0.000 N 
ATOM      3  N   UNL     1      47.136 -41.641  51.565  0.00  0.00    +0.000 NA
ATOM      4  C   UNL     1      48.618 -42.206  49.918  0.00  0.00    +0.000 A 
ATOM      5  C   UNL     1      47.885 -42.662  51.010  0.00  0.00    +0.000 A 
ATOM      6  C   UNL     1      48.833 -44.903  50.658  0.00  0.00    +0.000 A 
ATOM      7  C   UNL     1      49.547 -44.390  49.543  0.00  0.00    +0.000 A 
ATOM      8  C   UNL     1      49.446 -43.039  49.163  0.00  0.00    +0.000 A 
ATOM      9  C   UNL     1      47.994 -44.018  51.375  0.00  0.00    +0.000 A 
ATOM     10  C   UNL     1      47.407 -40.576  50.834  0.00  0.00    +0.000 A 
ATOM     11  C   UNL     1      48.802 -39.955  48.889  0.00  0.00    +0.000 C 
ENDROOT
BRANCH   7  14
ATOM     12  O   UNL     1      49.923 -46.243  48.131  0.00  0.00    +0.000 OA
ATOM     13  N   UNL     1      51.752 -44.932  48.627  0.00  0.00    +0.000 N 
ATOM     14  C   UNL     1      50.417 -45.274  48.702  0.00  0.00    +0.000 C 
ATOM     15  H   UNL     1      52.206 -44.387  49.349  0.00  0.00    +0.000 HD
BRANCH  13  16
ATOM     16  O   UNL     1      52.568 -45.940  48.068  0.00  0.00    +0.000 OA
BRANCH  16  17
ATOM     17  C   UNL     1      53.565 -45.312  47.449  0.00  0.00    +0.000 C 
ATOM     18  C   UNL     1      54.722 -44.597  46.744  0.00  0.00    +0.000 C 
BRANCH  18  19
ATOM     19  O   UNL     1      55.731 -43.982  46.136  0.00  0.00    +0.000 OA
ATOM     20  H   UNL     1      55.847 -43.088  46.500  0.00  0.00    +0.000 HD
ENDBRANCH  18  19
ENDBRANCH  16  17
ENDBRANCH  13  16
ENDBRANCH   7  14
BRANCH   6  21
ATOM     21  N   UNL     1      48.987 -46.258  51.047  0.00  0.00    +0.000 N 
ATOM     22  H   UNL     1      49.845 -46.429  51.593  0.00  0.00    +0.000 HD
BRANCH  21  25
ATOM     23 BR   UNL     1      45.073 -50.877  51.779  0.00  0.00    +0.000 Br
ATOM     24  F   UNL     1      49.593 -48.467  52.584  0.00  0.00    +0.000 F 
ATOM     25  C   UNL     1      48.042 -47.290  51.227  0.00  0.00    +0.000 A 
ATOM     26  C   UNL     1      48.388 -48.417  51.993  0.00  0.00    +0.000 A 
ATOM     27  C   UNL     1      46.787 -47.290  50.615  0.00  0.00    +0.000 A 
ATOM     28  C   UNL     1      47.516 -49.486  52.167  0.00  0.00    +0.000 A 
ATOM     29  C   UNL     1      45.899 -48.353  50.778  0.00  0.00    +0.000 A 
ATOM     30  C   UNL     1      46.271 -49.443  51.555  0.00  0.00    +0.000 A 
ENDBRANCH  21  25
ENDBRANCH   6  21
TORSDOF 6
ENDMDL
MODEL 3
REMARK VINA RESULT:      -6.8      5.937      8.310
REMARK  Name = 10288191_Binimetinib.pdbqt.pdb
REMARK  6 active torsions:
REMARK  status: ('A' for Active; 'I' for Inactive)
REMARK    1  A    between atoms: C_6  and  N_21
REMARK    2  A    between atoms: C_7  and  C_14
REMARK    3  A    between atoms: N_13  and  O_16
REMARK    4  A    between atoms: O_16  and  C_17
REMARK    5  A    between atoms: C_18  and  O_19
REMARK    6  A    between atoms: N_21  and  C_25
REMARK                            x       y       z     vdW  Elec       q    Type
REMARK                         _______ _______ _______ _____ _____    ______ ____
ROOT
ATOM      1  F   UNL     1      45.684 -45.076  51.782  0.00  0.00    +0.000 F 
ATOM      2  N   UNL     1      42.179 -47.784  50.880  0.00  0.00    +0.000 N 
ATOM      3  N   UNL     1      42.900 -45.706  51.056  0.00  0.00    +0.000 NA
ATOM      4  C   UNL     1      43.502 -47.907  51.197  0.00  0.00    +0.000 A 
ATOM      5  C   UNL     1      43.936 -46.589  51.298  0.00  0.00    +0.000 A 
ATOM      6  C   UNL     1      46.189 -47.415  51.831  0.00  0.00    +0.000 A 
ATOM      7  C   UNL     1      45.691 -48.741  51.729  0.00  0.00    +0.000 A 
ATOM      8  C   UNL     1      44.345 -48.999  51.412  0.00  0.00    +0.000 A 
ATOM      9  C   UNL     1      45.286 -46.347  51.620  0.00  0.00    +0.000 A 
ATOM     10  C   UNL     1      41.851 -46.465  50.803  0.00  0.00    +0.000 A 
ATOM     11  C   UNL     1      41.280 -48.865  50.644  0.00  0.00    +0.000 C 
ENDROOT
BRANCH   7  14
ATOM     12  O   UNL     1      47.331 -50.319  51.104  0.00  0.00    +0.000 OA
ATOM     13  N   UNL     1      46.469 -50.511  53.232  0.00  0.00    +0.000 N 
ATOM     14  C   UNL     1      46.573 -49.925  51.986  0.00  0.00    +0.000 C 
ATOM     15  H   UNL     1      45.631 -50.427  53.794  0.00  0.00    +0.000 HD
BRANCH  13  16
ATOM     16  O   UNL     1      47.097 -51.772  53.322  0.00  0.00    +0.000 OA
BRANCH  16  17
ATOM     17  C   UNL     1      47.128 -52.082  54.616  0.00  0.00    +0.000 C 
ATOM     18  C   UNL     1      47.154 -52.447  56.105  0.00  0.00    +0.000 C 
BRANCH  18  19
ATOM     19  O   UNL     1      47.171 -52.771  57.393  0.00  0.00    +0.000 OA
ATOM     20  H   UNL     1      47.387 -53.713  57.499  0.00  0.00    +0.000 HD
ENDBRANCH  18  19
ENDBRANCH  16  17
ENDBRANCH  13  16
ENDBRANCH   7  14
BRANCH   6  21
ATOM     21  N   UNL     1      47.561 -47.183  52.107  0.00  0.00    +0.000 N 
ATOM     22  H   UNL     1      47.861 -47.560  53.020  0.00  0.00    +0.000 HD
BRANCH  21  25
ATOM     23 BR   UNL     1      52.454 -46.225  48.596  0.00  0.00    +0.000 Br
ATOM     24  F   UNL     1      49.799 -48.790  52.237  0.00  0.00    +0.000 F 
ATOM     25  C   UNL     1      48.660 -46.957  51.252  0.00  0.00    +0.000 A 
ATOM     26  C   UNL     1      49.798 -47.774  51.359  0.00  0.00    +0.000 A 
ATOM     27  C   UNL     1      48.711 -45.901  50.340  0.00  0.00    +0.000 A 
ATOM     28  C   UNL     1      50.929 -47.570  50.576  0.00  0.00    +0.000 A 
ATOM     29  C   UNL     1      49.835 -45.680  49.545  0.00  0.00    +0.000 A 
ATOM     30  C   UNL     1      50.936 -46.519  49.670  0.00  0.00    +0.000 A 
ENDBRANCH  21  25
ENDBRANCH   6  21
TORSDOF 6
ENDMDL
MODEL 4
REMARK VINA RESULT:      -6.8      3.788      5.735
REMARK  Name = 10288191_Binimetinib.pdbqt.pdb
REMARK  6 active torsions:
REMARK  status: ('A' for Active; 'I' for Inactive)
REMARK    1  A    between atoms: C_6  and  N_21
REMARK    2  A    between atoms: C_7  and  C_14
REMARK    3  A    between atoms: N_13  and  O_16
REMARK    4  A    between atoms: O_16  and  C_17
REMARK    5  A    between atoms: C_18  and  O_19
REMARK    6  A    between atoms: N_21  and  C_25
REMARK                            x       y       z     vdW  Elec       q    Type
REMARK                         _______ _______ _______ _____ _____    ______ ____
ROOT
ATOM      1  F   UNL     1      50.258 -40.534  44.568  0.00  0.00    +0.000 F 
ATOM      2  N   UNL     1      49.534 -36.085  44.225  0.00  0.00    +0.000 N 
ATOM      3  N   UNL     1      49.913 -37.975  43.150  0.00  0.00    +0.000 NA
ATOM      4  C   UNL     1      49.604 -37.029  45.209  0.00  0.00    +0.000 A 
ATOM      5  C   UNL     1      49.839 -38.210  44.511  0.00  0.00    +0.000 A 
ATOM      6  C   UNL     1      49.854 -39.423  46.649  0.00  0.00    +0.000 A 
ATOM      7  C   UNL     1      49.629 -38.188  47.314  0.00  0.00    +0.000 A 
ATOM      8  C   UNL     1      49.502 -36.982  46.600  0.00  0.00    +0.000 A 
ATOM      9  C   UNL     1      49.966 -39.409  45.239  0.00  0.00    +0.000 A 
ATOM     10  C   UNL     1      49.721 -36.677  43.013  0.00  0.00    +0.000 A 
ATOM     11  C   UNL     1      49.283 -34.696  44.426  0.00  0.00    +0.000 C 
ENDROOT
BRANCH   7  14
ATOM     12  O   UNL     1      50.390 -38.689  49.491  0.00  0.00    +0.000 OA
ATOM     13  N   UNL     1      48.500 -37.381  49.331  0.00  0.00    +0.000 N 
ATOM     14  C   UNL     1      49.547 -38.112  48.808  0.00  0.00    +0.000 C 
ATOM     15  H   UNL     1      47.645 -37.226  48.811  0.00  0.00    +0.000 HD
BRANCH  13  16
ATOM     16  O   UNL     1      48.305 -37.575  50.715  0.00  0.00    +0.000 OA
BRANCH  16  17
ATOM     17  C   UNL     1      47.235 -36.855  51.046  0.00  0.00    +0.000 C 
ATOM     18  C   UNL     1      45.996 -36.032  51.415  0.00  0.00    +0.000 C 
BRANCH  18  19
ATOM     19  O   UNL     1      44.918 -35.322  51.730  0.00  0.00    +0.000 OA
ATOM     20  H   UNL     1      45.178 -34.491  52.161  0.00  0.00    +0.000 HD
ENDBRANCH  18  19
ENDBRANCH  16  17
ENDBRANCH  13  16
ENDBRANCH   7  14
BRANCH   6  21
ATOM     21  N   UNL     1      49.933 -40.631  47.388  0.00  0.00    +0.000 N 
ATOM     22  H   UNL     1      50.572 -40.573  48.196  0.00  0.00    +0.000 HD
BRANCH  21  25
ATOM     23 BR   UNL     1      46.178 -45.385  48.089  0.00  0.00    +0.000 Br
ATOM     24  F   UNL     1      49.348 -41.687  49.868  0.00  0.00    +0.000 F 
ATOM     25  C   UNL     1      49.028 -41.706  47.517  0.00  0.00    +0.000 A 
ATOM     26  C   UNL     1      48.770 -42.242  48.790  0.00  0.00    +0.000 A 
ATOM     27  C   UNL     1      48.422 -42.328  46.423  0.00  0.00    +0.000 A 
ATOM     28  C   UNL     1      47.925 -43.331  48.975  0.00  0.00    +0.000 A 
ATOM     29  C   UNL     1      47.571 -43.420  46.588  0.00  0.00    +0.000 A 
ATOM     30  C   UNL     1      47.328 -43.913  47.864  0.00  0.00    +0.000 A 
ENDBRANCH  21  25
ENDBRANCH   6  21
TORSDOF 6
ENDMDL
MODEL 5
REMARK VINA RESULT:      -6.5      4.287      7.589
REMARK  Name = 10288191_Binimetinib.pdbqt.pdb
REMARK  6 active torsions:
REMARK  status: ('A' for Active; 'I' for Inactive)
REMARK    1  A    between atoms: C_6  and  N_21
REMARK    2  A    between atoms: C_7  and  C_14
REMARK    3  A    between atoms: N_13  and  O_16
REMARK    4  A    between atoms: O_16  and  C_17
REMARK    5  A    between atoms: C_18  and  O_19
REMARK    6  A    between atoms: N_21  and  C_25
REMARK                            x       y       z     vdW  Elec       q    Type
REMARK                         _______ _______ _______ _____ _____    ______ ____
ROOT
ATOM      1  F   UNL     1      49.106 -48.974  50.324  0.00  0.00    +0.000 F 
ATOM      2  N   UNL     1      50.713 -45.698  47.658  0.00  0.00    +0.000 N 
ATOM      3  N   UNL     1      50.678 -47.860  48.097  0.00  0.00    +0.000 NA
ATOM      4  C   UNL     1      49.866 -45.816  48.722  0.00  0.00    +0.000 A 
ATOM      5  C   UNL     1      49.855 -47.184  48.979  0.00  0.00    +0.000 A 
ATOM      6  C   UNL     1      48.284 -46.783  50.827  0.00  0.00    +0.000 A 
ATOM      7  C   UNL     1      48.343 -45.395  50.532  0.00  0.00    +0.000 A 
ATOM      8  C   UNL     1      49.133 -44.900  49.478  0.00  0.00    +0.000 A 
ATOM      9  C   UNL     1      49.061 -47.664  50.038  0.00  0.00    +0.000 A 
ATOM     10  C   UNL     1      51.180 -46.928  47.309  0.00  0.00    +0.000 A 
ATOM     11  C   UNL     1      51.046 -44.480  46.996  0.00  0.00    +0.000 C 
ENDROOT
BRANCH   7  14
ATOM     12  O   UNL     1      46.411 -44.606  51.635  0.00  0.00    +0.000 OA
ATOM     13  N   UNL     1      48.283 -43.267  51.741  0.00  0.00    +0.000 N 
ATOM     14  C   UNL     1      47.588 -44.393  51.351  0.00  0.00    +0.000 C 
ATOM     15  H   UNL     1      49.090 -42.932  51.228  0.00  0.00    +0.000 HD
BRANCH  13  16
ATOM     16  O   UNL     1      47.463 -42.240  52.255  0.00  0.00    +0.000 OA
BRANCH  16  17
ATOM     17  C   UNL     1      47.621 -41.195  51.446  0.00  0.00    +0.000 C 
ATOM     18  C   UNL     1      47.813 -39.999  50.507  0.00  0.00    +0.000 C 
BRANCH  18  19
ATOM     19  O   UNL     1      47.985 -38.966  49.689  0.00  0.00    +0.000 OA
ATOM     20  H   UNL     1      47.300 -38.968  48.999  0.00  0.00    +0.000 HD
ENDBRANCH  18  19
ENDBRANCH  16  17
ENDBRANCH  13  16
ENDBRANCH   7  14
BRANCH   6  21
ATOM     21  N   UNL     1      47.445 -47.261  51.866  0.00  0.00    +0.000 N 
ATOM     22  H   UNL     1      47.217 -46.541  52.568  0.00  0.00    +0.000 HD
BRANCH  21  25
ATOM     23 BR   UNL     1      43.669 -52.048  52.011  0.00  0.00    +0.000 Br
ATOM     24  F   UNL     1      47.940 -49.474  53.436  0.00  0.00    +0.000 F 
ATOM     25  C   UNL     1      46.530 -48.334  51.906  0.00  0.00    +0.000 A 
ATOM     26  C   UNL     1      46.820 -49.461  52.693  0.00  0.00    +0.000 A 
ATOM     27  C   UNL     1      45.366 -48.372  51.135  0.00  0.00    +0.000 A 
ATOM     28  C   UNL     1      45.980 -50.568  52.736  0.00  0.00    +0.000 A 
ATOM     29  C   UNL     1      44.510 -49.473  51.165  0.00  0.00    +0.000 A 
ATOM     30  C   UNL     1      44.824 -50.562  51.967  0.00  0.00    +0.000 A 
ENDBRANCH  21  25
ENDBRANCH   6  21
TORSDOF 6
ENDMDL
MODEL 6
REMARK VINA RESULT:      -6.5      3.178      6.142
REMARK  Name = 10288191_Binimetinib.pdbqt.pdb
REMARK  6 active torsions:
REMARK  status: ('A' for Active; 'I' for Inactive)
REMARK    1  A    between atoms: C_6  and  N_21
REMARK    2  A    between atoms: C_7  and  C_14
REMARK    3  A    between atoms: N_13  and  O_16
REMARK    4  A    between atoms: O_16  and  C_17
REMARK    5  A    between atoms: C_18  and  O_19
REMARK    6  A    between atoms: N_21  and  C_25
REMARK                            x       y       z     vdW  Elec       q    Type
REMARK                         _______ _______ _______ _____ _____    ______ ____
ROOT
ATOM      1  F   UNL     1      49.908 -46.372  48.988  0.00  0.00    +0.000 F 
ATOM      2  N   UNL     1      49.583 -43.028  45.964  0.00  0.00    +0.000 N 
ATOM      3  N   UNL     1      50.159 -45.126  46.330  0.00  0.00    +0.000 NA
ATOM      4  C   UNL     1      49.297 -43.235  47.283  0.00  0.00    +0.000 A 
ATOM      5  C   UNL     1      49.662 -44.562  47.491  0.00  0.00    +0.000 A 
ATOM      6  C   UNL     1      48.958 -44.345  49.836  0.00  0.00    +0.000 A 
ATOM      7  C   UNL     1      48.615 -42.992  49.574  0.00  0.00    +0.000 A 
ATOM      8  C   UNL     1      48.781 -42.426  48.297  0.00  0.00    +0.000 A 
ATOM      9  C   UNL     1      49.493 -45.114  48.775  0.00  0.00    +0.000 A 
ATOM     10  C   UNL     1      50.094 -44.169  45.425  0.00  0.00    +0.000 A 
ATOM     11  C   UNL     1      49.364 -41.813  45.250  0.00  0.00    +0.000 C 
ENDROOT
BRANCH   7  14
ATOM     12  O   UNL     1      47.143 -42.474  51.345  0.00  0.00    +0.000 OA
ATOM     13  N   UNL     1      48.719 -40.881  50.810  0.00  0.00    +0.000 N 
ATOM     14  C   UNL     1      48.089 -42.099  50.656  0.00  0.00    +0.000 C 
ATOM     15  H   UNL     1      49.224 -40.441  50.050  0.00  0.00    +0.000 HD
BRANCH  13  16
ATOM     16  O   UNL     1      48.016 -39.976  51.634  0.00  0.00    +0.000 OA
BRANCH  16  17
ATOM     17  C   UNL     1      47.991 -38.817  50.979  0.00  0.00    +0.000 C 
ATOM     18  C   UNL     1      47.963 -37.490  50.213  0.00  0.00    +0.000 C 
BRANCH  18  19
ATOM     19  O   UNL     1      47.938 -36.344  49.542  0.00  0.00    +0.000 OA
ATOM     20  H   UNL     1      48.309 -35.629  50.087  0.00  0.00    +0.000 HD
ENDBRANCH  18  19
ENDBRANCH  16  17
ENDBRANCH  13  16
ENDBRANCH   7  14
BRANCH   6  21
ATOM     21  N   UNL     1      48.739 -44.905  51.121  0.00  0.00    +0.000 N 
ATOM     22  H   UNL     1      48.629 -44.194  51.861  0.00  0.00    +0.000 HD
BRANCH  21  25
ATOM     23 BR   UNL     1      46.342 -50.189  52.999  0.00  0.00    +0.000 Br
ATOM     24  F   UNL     1      46.030 -45.226  51.528  0.00  0.00    +0.000 F 
ATOM     25  C   UNL     1      48.214 -46.153  51.517  0.00  0.00    +0.000 A 
ATOM     26  C   UNL     1      46.833 -46.281  51.744  0.00  0.00    +0.000 A 
ATOM     27  C   UNL     1      49.013 -47.269  51.774  0.00  0.00    +0.000 A 
ATOM     28  C   UNL     1      46.264 -47.472  52.181  0.00  0.00    +0.000 A 
ATOM     29  C   UNL     1      48.461 -48.473  52.212  0.00  0.00    +0.000 A 
ATOM     30  C   UNL     1      47.089 -48.564  52.411  0.00  0.00    +0.000 A 
ENDBRANCH  21  25
ENDBRANCH   6  21
TORSDOF 6
ENDMDL
MODEL 7
REMARK VINA RESULT:      -6.4     21.885     24.853
REMARK  Name = 10288191_Binimetinib.pdbqt.pdb
REMARK  6 active torsions:
REMARK  status: ('A' for Active; 'I' for Inactive)
REMARK    1  A    between atoms: C_6  and  N_21
REMARK    2  A    between atoms: C_7  and  C_14
REMARK    3  A    between atoms: N_13  and  O_16
REMARK    4  A    between atoms: O_16  and  C_17
REMARK    5  A    between atoms: C_18  and  O_19
REMARK    6  A    between atoms: N_21  and  C_25
REMARK                            x       y       z     vdW  Elec       q    Type
REMARK                         _______ _______ _______ _____ _____    ______ ____
ROOT
ATOM      1  F   UNL     1      44.619 -54.366  71.741  0.00  0.00    +0.000 F 
ATOM      2  N   UNL     1      44.397 -54.610  67.233  0.00  0.00    +0.000 N 
ATOM      3  N   UNL     1      43.286 -54.306  69.116  0.00  0.00    +0.000 NA
ATOM      4  C   UNL     1      45.351 -54.679  68.207  0.00  0.00    +0.000 A 
ATOM      5  C   UNL     1      44.632 -54.481  69.382  0.00  0.00    +0.000 A 
ATOM      6  C   UNL     1      46.726 -54.691  70.652  0.00  0.00    +0.000 A 
ATOM      7  C   UNL     1      47.410 -54.902  69.426  0.00  0.00    +0.000 A 
ATOM      8  C   UNL     1      46.730 -54.898  68.194  0.00  0.00    +0.000 A 
ATOM      9  C   UNL     1      45.326 -54.491  70.607  0.00  0.00    +0.000 A 
ATOM     10  C   UNL     1      43.180 -54.388  67.803  0.00  0.00    +0.000 A 
ATOM     11  C   UNL     1      44.634 -54.730  65.833  0.00  0.00    +0.000 C 
ENDROOT
BRANCH   7  14
ATOM     12  O   UNL     1      49.346 -56.098  70.052  0.00  0.00    +0.000 OA
ATOM     13  N   UNL     1      49.645 -54.330  68.605  0.00  0.00    +0.000 N 
ATOM     14  C   UNL     1      48.884 -55.170  69.393  0.00  0.00    +0.000 C 
ATOM     15  H   UNL     1      49.339 -53.394  68.370  0.00  0.00    +0.000 HD
BRANCH  13  16
ATOM     16  O   UNL     1      51.034 -54.442  68.829  0.00  0.00    +0.000 OA
BRANCH  16  17
ATOM     17  C   UNL     1      51.625 -53.731  67.871  0.00  0.00    +0.000 C 
ATOM     18  C   UNL     1      52.297 -52.902  66.771  0.00  0.00    +0.000 C 
BRANCH  18  19
ATOM     19  O   UNL     1      52.876 -52.177  65.820  0.00  0.00    +0.000 OA
ATOM     20  H   UNL     1      52.920 -51.244  66.090  0.00  0.00    +0.000 HD
ENDBRANCH  18  19
ENDBRANCH  16  17
ENDBRANCH  13  16
ENDBRANCH   7  14
BRANCH   6  21
ATOM     21  N   UNL     1      47.442 -54.654  71.876  0.00  0.00    +0.000 N 
ATOM     22  H   UNL     1      48.168 -55.384  71.944  0.00  0.00    +0.000 HD
BRANCH  21  25
ATOM     23 BR   UNL     1      48.634 -50.231  75.901  0.00  0.00    +0.000 Br
ATOM     24  F   UNL     1      49.926 -53.469  72.063  0.00  0.00    +0.000 F 
ATOM     25  C   UNL     1      47.672 -53.606  72.791  0.00  0.00    +0.000 A 
ATOM     26  C   UNL     1      48.954 -53.039  72.885  0.00  0.00    +0.000 A 
ATOM     27  C   UNL     1      46.699 -53.142  73.679  0.00  0.00    +0.000 A 
ATOM     28  C   UNL     1      49.253 -52.036  73.801  0.00  0.00    +0.000 A 
ATOM     29  C   UNL     1      46.978 -52.136  74.603  0.00  0.00    +0.000 A 
ATOM     30  C   UNL     1      48.255 -51.590  74.656  0.00  0.00    +0.000 A 
ENDBRANCH  21  25
ENDBRANCH   6  21
TORSDOF 6
ENDMDL
MODEL 8
REMARK VINA RESULT:      -6.3      3.743      7.032
REMARK  Name = 10288191_Binimetinib.pdbqt.pdb
REMARK  6 active torsions:
REMARK  status: ('A' for Active; 'I' for Inactive)
REMARK    1  A    between atoms: C_6  and  N_21
REMARK    2  A    between atoms: C_7  and  C_14
REMARK    3  A    between atoms: N_13  and  O_16
REMARK    4  A    between atoms: O_16  and  C_17
REMARK    5  A    between atoms: C_18  and  O_19
REMARK    6  A    between atoms: N_21  and  C_25
REMARK                            x       y       z     vdW  Elec       q    Type
REMARK                         _______ _______ _______ _____ _____    ______ ____
ROOT
ATOM      1  F   UNL     1      52.032 -47.230  50.347  0.00  0.00    +0.000 F 
ATOM      2  N   UNL     1      53.073 -45.499  46.303  0.00  0.00    +0.000 N 
ATOM      3  N   UNL     1      53.680 -46.856  47.934  0.00  0.00    +0.000 NA
ATOM      4  C   UNL     1      52.054 -45.422  47.208  0.00  0.00    +0.000 A 
ATOM      5  C   UNL     1      52.454 -46.286  48.223  0.00  0.00    +0.000 A 
ATOM      6  C   UNL     1      50.381 -45.757  49.434  0.00  0.00    +0.000 A 
ATOM      7  C   UNL     1      50.027 -44.877  48.377  0.00  0.00    +0.000 A 
ATOM      8  C   UNL     1      50.859 -44.702  47.256  0.00  0.00    +0.000 A 
ATOM      9  C   UNL     1      51.612 -46.448  49.340  0.00  0.00    +0.000 A 
ATOM     10  C   UNL     1      54.025 -46.359  46.762  0.00  0.00    +0.000 A 
ATOM     11  C   UNL     1      53.130 -44.807  45.058  0.00  0.00    +0.000 C 
ENDROOT
BRANCH   7  14
ATOM     12  O   UNL     1      47.776 -44.458  47.806  0.00  0.00    +0.000 OA
ATOM     13  N   UNL     1      48.798 -42.917  49.181  0.00  0.00    +0.000 N 
ATOM     14  C   UNL     1      48.764 -44.072  48.425  0.00  0.00    +0.000 C 
ATOM     15  H   UNL     1      49.665 -42.431  49.376  0.00  0.00    +0.000 HD
BRANCH  13  16
ATOM     16  O   UNL     1      47.695 -42.062  48.965  0.00  0.00    +0.000 OA
BRANCH  16  17
ATOM     17  C   UNL     1      47.844 -41.042  49.807  0.00  0.00    +0.000 C 
ATOM     18  C   UNL     1      48.002 -39.867  50.778  0.00  0.00    +0.000 C 
BRANCH  18  19
ATOM     19  O   UNL     1      48.130 -38.849  51.621  0.00  0.00    +0.000 OA
ATOM     20  H   UNL     1      47.696 -39.056  52.466  0.00  0.00    +0.000 HD
ENDBRANCH  18  19
ENDBRANCH  16  17
ENDBRANCH  13  16
ENDBRANCH   7  14
BRANCH   6  21
ATOM     21  N   UNL     1      49.503 -45.950  50.531  0.00  0.00    +0.000 N 
ATOM     22  H   UNL     1      49.151 -45.066  50.930  0.00  0.00    +0.000 HD
BRANCH  21  25
ATOM     23 BR   UNL     1      46.184 -50.816  52.108  0.00  0.00    +0.000 Br
ATOM     24  F   UNL     1      50.222 -47.603  52.618  0.00  0.00    +0.000 F 
ATOM     25  C   UNL     1      48.691 -47.044  50.895  0.00  0.00    +0.000 A 
ATOM     26  C   UNL     1      49.095 -47.886  51.944  0.00  0.00    +0.000 A 
ATOM     27  C   UNL     1      47.524 -47.388  50.209  0.00  0.00    +0.000 A 
ATOM     28  C   UNL     1      48.360 -49.007  52.317  0.00  0.00    +0.000 A 
ATOM     29  C   UNL     1      46.773 -48.506  50.568  0.00  0.00    +0.000 A 
ATOM     30  C   UNL     1      47.198 -49.307  51.621  0.00  0.00    +0.000 A 
ENDBRANCH  21  25
ENDBRANCH   6  21
TORSDOF 6
ENDMDL
MODEL 9
REMARK VINA RESULT:      -6.3      4.870      7.887
REMARK  Name = 10288191_Binimetinib.pdbqt.pdb
REMARK  6 active torsions:
REMARK  status: ('A' for Active; 'I' for Inactive)
REMARK    1  A    between atoms: C_6  and  N_21
REMARK    2  A    between atoms: C_7  and  C_14
REMARK    3  A    between atoms: N_13  and  O_16
REMARK    4  A    between atoms: O_16  and  C_17
REMARK    5  A    between atoms: C_18  and  O_19
REMARK    6  A    between atoms: N_21  and  C_25
REMARK                            x       y       z     vdW  Elec       q    Type
REMARK                         _______ _______ _______ _____ _____    ______ ____
ROOT
ATOM      1  F   UNL     1      48.795 -50.100  48.528  0.00  0.00    +0.000 F 
ATOM      2  N   UNL     1      51.095 -46.346  47.503  0.00  0.00    +0.000 N 
ATOM      3  N   UNL     1      50.771 -48.483  47.059  0.00  0.00    +0.000 NA
ATOM      4  C   UNL     1      50.100 -46.725  48.357  0.00  0.00    +0.000 A 
ATOM      5  C   UNL     1      49.909 -48.071  48.059  0.00  0.00    +0.000 A 
ATOM      6  C   UNL     1      48.148 -48.159  49.770  0.00  0.00    +0.000 A 
ATOM      7  C   UNL     1      48.392 -46.788  50.047  0.00  0.00    +0.000 A 
ATOM      8  C   UNL     1      49.369 -46.059  49.343  0.00  0.00    +0.000 A 
ATOM      9  C   UNL     1      48.930 -48.787  48.773  0.00  0.00    +0.000 A 
ATOM     10  C   UNL     1      51.474 -47.411  46.744  0.00  0.00    +0.000 A 
ATOM     11  C   UNL     1      51.644 -45.034  47.400  0.00  0.00    +0.000 C 
ENDROOT
BRANCH   7  14
ATOM     12  O   UNL     1      46.439 -45.852  50.982  0.00  0.00    +0.000 OA
ATOM     13  N   UNL     1      48.370 -45.671  52.226  0.00  0.00    +0.000 N 
ATOM     14  C   UNL     1      47.640 -46.064  51.122  0.00  0.00    +0.000 C 
ATOM     15  H   UNL     1      49.370 -45.523  52.180  0.00  0.00    +0.000 HD
BRANCH  13  16
ATOM     16  O   UNL     1      47.691 -44.759  53.062  0.00  0.00    +0.000 OA
BRANCH  16  17
ATOM     17  C   UNL     1      47.955 -43.546  52.583  0.00  0.00    +0.000 C 
ATOM     18  C   UNL     1      48.273 -42.151  52.034  0.00  0.00    +0.000 C 
BRANCH  18  19
ATOM     19  O   UNL     1      48.556 -40.943  51.559  0.00  0.00    +0.000 OA
ATOM     20  H   UNL     1      49.453 -40.933  51.182  0.00  0.00    +0.000 HD
ENDBRANCH  18  19
ENDBRANCH  16  17
ENDBRANCH  13  16
ENDBRANCH   7  14
BRANCH   6  21
ATOM     21  N   UNL     1      47.126 -48.859  50.462  0.00  0.00    +0.000 N 
ATOM     22  H   UNL     1      46.287 -49.028  49.886  0.00  0.00    +0.000 HD
BRANCH  21  25
ATOM     23 BR   UNL     1      47.401 -52.435  55.394  0.00  0.00    +0.000 Br
ATOM     24  F   UNL     1      45.838 -48.216  52.815  0.00  0.00    +0.000 F 
ATOM     25  C   UNL     1      47.178 -49.729  51.571  0.00  0.00    +0.000 A 
ATOM     26  C   UNL     1      46.535 -49.363  52.766  0.00  0.00    +0.000 A 
ATOM     27  C   UNL     1      47.907 -50.919  51.573  0.00  0.00    +0.000 A 
ATOM     28  C   UNL     1      46.591 -50.157  53.907  0.00  0.00    +0.000 A 
ATOM     29  C   UNL     1      47.974 -51.730  52.706  0.00  0.00    +0.000 A 
ATOM     30  C   UNL     1      47.314 -51.341  53.865  0.00  0.00    +0.000 A 
ENDBRANCH  21  25
ENDBRANCH   6  21
TORSDOF 6
ENDMDL
