MODEL 1
REMARK VINA RESULT:      -5.9      0.000      0.000
REMARK  Name = 10281_Thymoquinone.pdbqt.pdb
REMARK  1 active torsions:
REMARK  status: ('A' for Active; 'I' for Inactive)
REMARK    1  A    between atoms: C_3  and  C_10
REMARK                            x       y       z     vdW  Elec       q    Type
REMARK                         _______ _______ _______ _____ _____    ______ ____
ROOT
ATOM      1  O   UNL     1      48.808 -35.998  48.879  0.00  0.00    +0.000 OA
ATOM      2  O   UNL     1      48.117 -40.663  51.467  0.00  0.00    +0.000 OA
ATOM      3  C   UNL     1      48.029 -37.097  50.888  0.00  0.00    +0.000 C 
ATOM      4  C   UNL     1      48.627 -37.018  49.514  0.00  0.00    +0.000 C 
ATOM      5  C   UNL     1      47.965 -38.337  51.305  0.00  0.00    +0.000 C 
ATOM      6  C   UNL     1      48.924 -39.569  49.399  0.00  0.00    +0.000 C 
ATOM      7  C   UNL     1      48.315 -39.666  50.800  0.00  0.00    +0.000 C 
ATOM      8  C   UNL     1      48.986 -38.331  48.990  0.00  0.00    +0.000 C 
ATOM      9  C   UNL     1      49.405 -40.710  48.562  0.00  0.00    +0.000 C 
ENDROOT
BRANCH   3  10
ATOM     10  C   UNL     1      47.612 -35.916  51.568  0.00  0.00    +0.000 C 
ATOM     11  C   UNL     1      46.150 -35.545  51.635  0.00  0.00    +0.000 C 
ATOM     12  C   UNL     1      48.518 -35.247  52.572  0.00  0.00    +0.000 C 
ENDBRANCH   3  10
TORSDOF 1
ENDMDL
MODEL 2
REMARK VINA RESULT:      -5.8      1.124      2.961
REMARK  Name = 10281_Thymoquinone.pdbqt.pdb
REMARK  1 active torsions:
REMARK  status: ('A' for Active; 'I' for Inactive)
REMARK    1  A    between atoms: C_3  and  C_10
REMARK                            x       y       z     vdW  Elec       q    Type
REMARK                         _______ _______ _______ _____ _____    ______ ____
ROOT
ATOM      1  O   UNL     1      47.911 -39.042  51.455  0.00  0.00    +0.000 OA
ATOM      2  O   UNL     1      49.674 -36.094  47.315  0.00  0.00    +0.000 OA
ATOM      3  C   UNL     1      48.216 -36.824  50.540  0.00  0.00    +0.000 C 
ATOM      4  C   UNL     1      48.291 -38.323  50.553  0.00  0.00    +0.000 C 
ATOM      5  C   UNL     1      48.706 -36.336  49.428  0.00  0.00    +0.000 C 
ATOM      6  C   UNL     1      49.376 -38.377  48.223  0.00  0.00    +0.000 C 
ATOM      7  C   UNL     1      49.307 -36.848  48.195  0.00  0.00    +0.000 C 
ATOM      8  C   UNL     1      48.886 -38.857  49.333  0.00  0.00    +0.000 C 
ATOM      9  C   UNL     1      49.922 -39.258  47.145  0.00  0.00    +0.000 C 
ENDROOT
BRANCH   3  10
ATOM     10  C   UNL     1      47.667 -36.115  51.648  0.00  0.00    +0.000 C 
ATOM     11  C   UNL     1      48.571 -35.471  52.671  0.00  0.00    +0.000 C 
ATOM     12  C   UNL     1      46.239 -35.629  51.617  0.00  0.00    +0.000 C 
ENDBRANCH   3  10
TORSDOF 1
ENDMDL
MODEL 3
REMARK VINA RESULT:      -4.7     17.422     18.501
REMARK  Name = 10281_Thymoquinone.pdbqt.pdb
REMARK  1 active torsions:
REMARK  status: ('A' for Active; 'I' for Inactive)
REMARK    1  A    between atoms: C_3  and  C_10
REMARK                            x       y       z     vdW  Elec       q    Type
REMARK                         _______ _______ _______ _____ _____    ______ ____
ROOT
ATOM      1  O   UNL     1      59.245 -47.867  58.995  0.00  0.00    +0.000 OA
ATOM      2  O   UNL     1      63.322 -44.979  60.990  0.00  0.00    +0.000 OA
ATOM      3  C   UNL     1      60.202 -46.802  60.945  0.00  0.00    +0.000 C 
ATOM      4  C   UNL     1      60.137 -47.216  59.504  0.00  0.00    +0.000 C 
ATOM      5  C   UNL     1      61.287 -46.110  61.189  0.00  0.00    +0.000 C 
ATOM      6  C   UNL     1      62.369 -46.057  58.976  0.00  0.00    +0.000 C 
ATOM      7  C   UNL     1      62.451 -45.628  60.443  0.00  0.00    +0.000 C 
ATOM      8  C   UNL     1      61.286 -46.747  58.740  0.00  0.00    +0.000 C 
ATOM      9  C   UNL     1      63.369 -45.753  57.908  0.00  0.00    +0.000 C 
ENDROOT
BRANCH   3  10
ATOM     10  C   UNL     1      59.168 -47.170  61.854  0.00  0.00    +0.000 C 
ATOM     11  C   UNL     1      59.392 -48.265  62.869  0.00  0.00    +0.000 C 
ATOM     12  C   UNL     1      58.013 -46.237  62.121  0.00  0.00    +0.000 C 
ENDBRANCH   3  10
TORSDOF 1
ENDMDL
MODEL 4
REMARK VINA RESULT:      -4.7      2.015      3.642
REMARK  Name = 10281_Thymoquinone.pdbqt.pdb
REMARK  1 active torsions:
REMARK  status: ('A' for Active; 'I' for Inactive)
REMARK    1  A    between atoms: C_3  and  C_10
REMARK                            x       y       z     vdW  Elec       q    Type
REMARK                         _______ _______ _______ _____ _____    ______ ____
ROOT
ATOM      1  O   UNL     1      47.671 -41.012  51.691  0.00  0.00    +0.000 OA
ATOM      2  O   UNL     1      50.143 -40.274  46.970  0.00  0.00    +0.000 OA
ATOM      3  C   UNL     1      48.752 -39.443  50.200  0.00  0.00    +0.000 C 
ATOM      4  C   UNL     1      48.236 -40.782  50.640  0.00  0.00    +0.000 C 
ATOM      5  C   UNL     1      49.313 -39.517  49.019  0.00  0.00    +0.000 C 
ATOM      6  C   UNL     1      49.042 -41.904  48.472  0.00  0.00    +0.000 C 
ATOM      7  C   UNL     1      49.575 -40.545  48.010  0.00  0.00    +0.000 C 
ATOM      8  C   UNL     1      48.484 -41.823  49.649  0.00  0.00    +0.000 C 
ATOM      9  C   UNL     1      49.120 -43.189  47.713  0.00  0.00    +0.000 C 
ENDROOT
BRANCH   3  10
ATOM     10  C   UNL     1      48.606 -38.298  51.037  0.00  0.00    +0.000 C 
ATOM     11  C   UNL     1      49.820 -37.577  51.570  0.00  0.00    +0.000 C 
ATOM     12  C   UNL     1      47.305 -37.534  51.071  0.00  0.00    +0.000 C 
ENDBRANCH   3  10
TORSDOF 1
ENDMDL
MODEL 5
REMARK VINA RESULT:      -4.6      3.598      5.279
REMARK  Name = 10281_Thymoquinone.pdbqt.pdb
REMARK  1 active torsions:
REMARK  status: ('A' for Active; 'I' for Inactive)
REMARK    1  A    between atoms: C_3  and  C_10
REMARK                            x       y       z     vdW  Elec       q    Type
REMARK                         _______ _______ _______ _____ _____    ______ ____
ROOT
ATOM      1  O   UNL     1      47.401 -40.157  51.033  0.00  0.00    +0.000 OA
ATOM      2  O   UNL     1      49.600 -44.925  49.860  0.00  0.00    +0.000 OA
ATOM      3  C   UNL     1      48.757 -41.430  49.486  0.00  0.00    +0.000 C 
ATOM      4  C   UNL     1      47.923 -41.207  50.714  0.00  0.00    +0.000 C 
ATOM      5  C   UNL     1      49.179 -42.668  49.421  0.00  0.00    +0.000 C 
ATOM      6  C   UNL     1      48.208 -43.650  51.462  0.00  0.00    +0.000 C 
ATOM      7  C   UNL     1      49.062 -43.893  50.214  0.00  0.00    +0.000 C 
ATOM      8  C   UNL     1      47.791 -42.415  51.521  0.00  0.00    +0.000 C 
ATOM      9  C   UNL     1      47.864 -44.659  52.508  0.00  0.00    +0.000 C 
ENDROOT
BRANCH   3  10
ATOM     10  C   UNL     1      49.004 -40.365  48.572  0.00  0.00    +0.000 C 
ATOM     11  C   UNL     1      50.078 -39.343  48.856  0.00  0.00    +0.000 C 
ATOM     12  C   UNL     1      48.526 -40.453  47.144  0.00  0.00    +0.000 C 
ENDBRANCH   3  10
TORSDOF 1
ENDMDL
MODEL 6
REMARK VINA RESULT:      -4.6      4.069      5.346
REMARK  Name = 10281_Thymoquinone.pdbqt.pdb
REMARK  1 active torsions:
REMARK  status: ('A' for Active; 'I' for Inactive)
REMARK    1  A    between atoms: C_3  and  C_10
REMARK                            x       y       z     vdW  Elec       q    Type
REMARK                         _______ _______ _______ _____ _____    ______ ____
ROOT
ATOM      1  O   UNL     1      50.127 -43.322  48.087  0.00  0.00    +0.000 OA
ATOM      2  O   UNL     1      46.918 -41.869  52.153  0.00  0.00    +0.000 OA
ATOM      3  C   UNL     1      48.826 -41.552  49.101  0.00  0.00    +0.000 C 
ATOM      4  C   UNL     1      49.399 -42.935  48.979  0.00  0.00    +0.000 C 
ATOM      5  C   UNL     1      48.078 -41.443  50.170  0.00  0.00    +0.000 C 
ATOM      6  C   UNL     1      48.241 -43.701  51.143  0.00  0.00    +0.000 C 
ATOM      7  C   UNL     1      47.648 -42.296  51.280  0.00  0.00    +0.000 C 
ATOM      8  C   UNL     1      48.984 -43.803  50.075  0.00  0.00    +0.000 C 
ATOM      9  C   UNL     1      48.030 -44.845  52.081  0.00  0.00    +0.000 C 
ENDROOT
BRANCH   3  10
ATOM     10  C   UNL     1      49.115 -40.558  48.121  0.00  0.00    +0.000 C 
ATOM     11  C   UNL     1      48.240 -40.406  46.901  0.00  0.00    +0.000 C 
ATOM     12  C   UNL     1      50.005 -39.386  48.456  0.00  0.00    +0.000 C 
ENDBRANCH   3  10
TORSDOF 1
ENDMDL
MODEL 7
REMARK VINA RESULT:      -4.6      9.736     12.063
REMARK  Name = 10281_Thymoquinone.pdbqt.pdb
REMARK  1 active torsions:
REMARK  status: ('A' for Active; 'I' for Inactive)
REMARK    1  A    between atoms: C_3  and  C_10
REMARK                            x       y       z     vdW  Elec       q    Type
REMARK                         _______ _______ _______ _____ _____    ______ ____
ROOT
ATOM      1  O   UNL     1      48.779 -51.517  52.069  0.00  0.00    +0.000 OA
ATOM      2  O   UNL     1      48.208 -46.179  51.722  0.00  0.00    +0.000 OA
ATOM      3  C   UNL     1      47.362 -49.604  52.502  0.00  0.00    +0.000 C 
ATOM      4  C   UNL     1      48.592 -50.317  52.018  0.00  0.00    +0.000 C 
ATOM      5  C   UNL     1      47.459 -48.313  52.311  0.00  0.00    +0.000 C 
ATOM      6  C   UNL     1      49.681 -48.114  51.264  0.00  0.00    +0.000 C 
ATOM      7  C   UNL     1      48.434 -47.373  51.754  0.00  0.00    +0.000 C 
ATOM      8  C   UNL     1      49.578 -49.401  51.458  0.00  0.00    +0.000 C 
ATOM      9  C   UNL     1      50.888 -47.497  50.636  0.00  0.00    +0.000 C 
ENDROOT
BRANCH   3  10
ATOM     10  C   UNL     1      46.284 -50.331  53.086  0.00  0.00    +0.000 C 
ATOM     11  C   UNL     1      45.267 -51.027  52.215  0.00  0.00    +0.000 C 
ATOM     12  C   UNL     1      46.352 -50.781  54.525  0.00  0.00    +0.000 C 
ENDBRANCH   3  10
TORSDOF 1
ENDMDL
MODEL 8
REMARK VINA RESULT:      -4.5     17.223     18.607
REMARK  Name = 10281_Thymoquinone.pdbqt.pdb
REMARK  1 active torsions:
REMARK  status: ('A' for Active; 'I' for Inactive)
REMARK    1  A    between atoms: C_3  and  C_10
REMARK                            x       y       z     vdW  Elec       q    Type
REMARK                         _______ _______ _______ _____ _____    ______ ____
ROOT
ATOM      1  O   UNL     1      58.103 -46.213  62.640  0.00  0.00    +0.000 OA
ATOM      2  O   UNL     1      61.376 -47.738  58.653  0.00  0.00    +0.000 OA
ATOM      3  C   UNL     1      59.598 -47.916  61.794  0.00  0.00    +0.000 C 
ATOM      4  C   UNL     1      58.854 -46.612  61.772  0.00  0.00    +0.000 C 
ATOM      5  C   UNL     1      60.327 -48.061  60.716  0.00  0.00    +0.000 C 
ATOM      6  C   UNL     1      59.853 -45.976  59.491  0.00  0.00    +0.000 C 
ATOM      7  C   UNL     1      60.617 -47.303  59.497  0.00  0.00    +0.000 C 
ATOM      8  C   UNL     1      59.128 -45.838  60.567  0.00  0.00    +0.000 C 
ATOM      9  C   UNL     1      59.895 -44.936  58.418  0.00  0.00    +0.000 C 
ENDROOT
BRANCH   3  10
ATOM     10  C   UNL     1      59.457 -48.814  62.891  0.00  0.00    +0.000 C 
ATOM     11  C   UNL     1      58.331 -49.819  62.920  0.00  0.00    +0.000 C 
ATOM     12  C   UNL     1      60.618 -49.084  63.817  0.00  0.00    +0.000 C 
ENDBRANCH   3  10
TORSDOF 1
ENDMDL
MODEL 9
REMARK VINA RESULT:      -4.5     12.591     15.373
REMARK  Name = 10281_Thymoquinone.pdbqt.pdb
REMARK  1 active torsions:
REMARK  status: ('A' for Active; 'I' for Inactive)
REMARK    1  A    between atoms: C_3  and  C_10
REMARK                            x       y       z     vdW  Elec       q    Type
REMARK                         _______ _______ _______ _____ _____    ______ ____
ROOT
ATOM      1  O   UNL     1      38.167 -27.708  57.269  0.00  0.00    +0.000 OA
ATOM      2  O   UNL     1      38.467 -28.380  51.940  0.00  0.00    +0.000 OA
ATOM      3  C   UNL     1      37.047 -27.474  55.137  0.00  0.00    +0.000 C 
ATOM      4  C   UNL     1      38.174 -27.836  56.061  0.00  0.00    +0.000 C 
ATOM      5  C   UNL     1      37.358 -27.728  53.891  0.00  0.00    +0.000 C 
ATOM      6  C   UNL     1      39.640 -28.634  54.105  0.00  0.00    +0.000 C 
ATOM      7  C   UNL     1      38.500 -28.268  53.150  0.00  0.00    +0.000 C 
ATOM      8  C   UNL     1      39.324 -28.378  55.345  0.00  0.00    +0.000 C 
ATOM      9  C   UNL     1      40.963 -29.214  53.722  0.00  0.00    +0.000 C 
ENDROOT
BRANCH   3  10
ATOM     10  C   UNL     1      35.836 -26.924  55.650  0.00  0.00    +0.000 C 
ATOM     11  C   UNL     1      34.798 -27.815  56.286  0.00  0.00    +0.000 C 
ATOM     12  C   UNL     1      35.733 -25.451  55.959  0.00  0.00    +0.000 C 
ENDBRANCH   3  10
TORSDOF 1
ENDMDL
