MODEL 1
REMARK VINA RESULT:      -7.5      0.000      0.000
REMARK  Name = 10639_Physcion.pdbqt.pdb
REMARK  3 active torsions:
REMARK  status: ('A' for Active; 'I' for Inactive)
REMARK    1  A    between atoms: C_10  and  O_18
REMARK    2  A    between atoms: C_12  and  O_20
REMARK    3  A    between atoms: C_15  and  O_22
REMARK                            x       y       z     vdW  Elec       q    Type
REMARK                         _______ _______ _______ _____ _____    ______ ____
ROOT
ATOM      1  O   UNL     1      47.805 -39.086  51.602  0.00  0.00    +0.000 OA
ATOM      2  O   UNL     1      50.092 -40.775  47.096  0.00  0.00    +0.000 OA
ATOM      3  C   UNL     1      49.315 -38.974  48.367  0.00  0.00    +0.000 A 
ATOM      4  C   UNL     1      48.717 -38.541  49.548  0.00  0.00    +0.000 A 
ATOM      5  C   UNL     1      48.576 -40.971  50.357  0.00  0.00    +0.000 A 
ATOM      6  C   UNL     1      49.177 -41.375  49.165  0.00  0.00    +0.000 A 
ATOM      7  C   UNL     1      48.327 -39.523  50.583  0.00  0.00    +0.000 C 
ATOM      8  C   UNL     1      49.566 -40.400  48.135  0.00  0.00    +0.000 C 
ATOM      9  C   UNL     1      49.690 -38.060  47.380  0.00  0.00    +0.000 A 
ATOM     10  C   UNL     1      48.496 -37.168  49.728  0.00  0.00    +0.000 A 
ATOM     11  C   UNL     1      49.465 -36.702  47.574  0.00  0.00    +0.000 A 
ATOM     12  C   UNL     1      48.232 -41.955  51.293  0.00  0.00    +0.000 A 
ATOM     13  C   UNL     1      49.431 -42.727  48.908  0.00  0.00    +0.000 A 
ATOM     14  C   UNL     1      48.868 -36.250  48.746  0.00  0.00    +0.000 A 
ATOM     15  C   UNL     1      49.087 -43.699  49.842  0.00  0.00    +0.000 A 
ATOM     16  C   UNL     1      48.487 -43.303  51.035  0.00  0.00    +0.000 A 
ATOM     17  C   UNL     1      49.868 -35.723  46.512  0.00  0.00    +0.000 C 
ENDROOT
BRANCH  10  18
ATOM     18  O   UNL     1      47.915 -36.648  50.853  0.00  0.00    +0.000 OA
ATOM     19  H   UNL     1      46.976 -36.425  50.653  0.00  0.00    +0.000 HD
ENDBRANCH  10  18
BRANCH  12  20
ATOM     20  O   UNL     1      47.641 -41.635  52.481  0.00  0.00    +0.000 OA
ATOM     21  H   UNL     1      47.446 -40.681  52.510  0.00  0.00    +0.000 HD
ENDBRANCH  12  20
BRANCH  15  22
ATOM     22  O   UNL     1      49.378 -44.995  49.495  0.00  0.00    +0.000 OA
ATOM     23  C   UNL     1      50.697 -45.214  49.072  0.00  0.00    +0.000 C 
ENDBRANCH  15  22
TORSDOF 3
ENDMDL
MODEL 2
REMARK VINA RESULT:      -7.5      1.568      3.411
REMARK  Name = 10639_Physcion.pdbqt.pdb
REMARK  3 active torsions:
REMARK  status: ('A' for Active; 'I' for Inactive)
REMARK    1  A    between atoms: C_10  and  O_18
REMARK    2  A    between atoms: C_12  and  O_20
REMARK    3  A    between atoms: C_15  and  O_22
REMARK                            x       y       z     vdW  Elec       q    Type
REMARK                         _______ _______ _______ _____ _____    ______ ____
ROOT
ATOM      1  O   UNL     1      50.178 -40.485  47.265  0.00  0.00    +0.000 OA
ATOM      2  O   UNL     1      47.620 -41.089  51.899  0.00  0.00    +0.000 OA
ATOM      3  C   UNL     1      48.520 -39.629  50.311  0.00  0.00    +0.000 A 
ATOM      4  C   UNL     1      49.190 -39.481  49.099  0.00  0.00    +0.000 A 
ATOM      5  C   UNL     1      49.280 -42.031  48.846  0.00  0.00    +0.000 A 
ATOM      6  C   UNL     1      48.609 -42.150  50.063  0.00  0.00    +0.000 A 
ATOM      7  C   UNL     1      49.592 -40.675  48.325  0.00  0.00    +0.000 C 
ATOM      8  C   UNL     1      48.208 -40.964  50.834  0.00  0.00    +0.000 C 
ATOM      9  C   UNL     1      48.133 -38.512  51.054  0.00  0.00    +0.000 A 
ATOM     10  C   UNL     1      49.468 -38.187  48.636  0.00  0.00    +0.000 A 
ATOM     11  C   UNL     1      48.416 -37.236  50.582  0.00  0.00    +0.000 A 
ATOM     12  C   UNL     1      49.632 -43.205  48.166  0.00  0.00    +0.000 A 
ATOM     13  C   UNL     1      48.293 -43.406  50.594  0.00  0.00    +0.000 A 
ATOM     14  C   UNL     1      49.084 -37.067  49.374  0.00  0.00    +0.000 A 
ATOM     15  C   UNL     1      48.646 -44.567  49.913  0.00  0.00    +0.000 A 
ATOM     16  C   UNL     1      49.316 -44.457  48.697  0.00  0.00    +0.000 A 
ATOM     17  C   UNL     1      47.999 -36.039  51.383  0.00  0.00    +0.000 C 
ENDROOT
BRANCH  10  18
ATOM     18  O   UNL     1      50.121 -37.940  47.459  0.00  0.00    +0.000 OA
ATOM     19  H   UNL     1      49.784 -37.094  47.079  0.00  0.00    +0.000 HD
ENDBRANCH  10  18
BRANCH  12  20
ATOM     20  O   UNL     1      50.290 -43.168  46.971  0.00  0.00    +0.000 OA
ATOM     21  H   UNL     1      51.118 -42.664  47.063  0.00  0.00    +0.000 HD
ENDBRANCH  12  20
BRANCH  15  22
ATOM     22  O   UNL     1      48.292 -45.748  50.517  0.00  0.00    +0.000 OA
ATOM     23  C   UNL     1      48.247 -45.708  51.918  0.00  0.00    +0.000 C 
ENDBRANCH  15  22
TORSDOF 3
ENDMDL
MODEL 3
REMARK VINA RESULT:      -7.1      1.539      3.501
REMARK  Name = 10639_Physcion.pdbqt.pdb
REMARK  3 active torsions:
REMARK  status: ('A' for Active; 'I' for Inactive)
REMARK    1  A    between atoms: C_10  and  O_18
REMARK    2  A    between atoms: C_12  and  O_20
REMARK    3  A    between atoms: C_15  and  O_22
REMARK                            x       y       z     vdW  Elec       q    Type
REMARK                         _______ _______ _______ _____ _____    ______ ____
ROOT
ATOM      1  O   UNL     1      49.508 -38.253  47.124  0.00  0.00    +0.000 OA
ATOM      2  O   UNL     1      48.061 -40.677  51.642  0.00  0.00    +0.000 OA
ATOM      3  C   UNL     1      48.392 -38.670  50.491  0.00  0.00    +0.000 A 
ATOM      4  C   UNL     1      48.772 -38.045  49.306  0.00  0.00    +0.000 A 
ATOM      5  C   UNL     1      49.192 -40.339  48.240  0.00  0.00    +0.000 A 
ATOM      6  C   UNL     1      48.806 -40.938  49.440  0.00  0.00    +0.000 A 
ATOM      7  C   UNL     1      49.185 -38.856  48.141  0.00  0.00    +0.000 C 
ATOM      8  C   UNL     1      48.396 -40.133  50.599  0.00  0.00    +0.000 C 
ATOM      9  C   UNL     1      47.999 -37.918  51.601  0.00  0.00    +0.000 A 
ATOM     10  C   UNL     1      48.753 -36.644  49.247  0.00  0.00    +0.000 A 
ATOM     11  C   UNL     1      47.986 -36.530  51.526  0.00  0.00    +0.000 A 
ATOM     12  C   UNL     1      49.571 -41.169  47.177  0.00  0.00    +0.000 A 
ATOM     13  C   UNL     1      48.797 -42.330  49.581  0.00  0.00    +0.000 A 
ATOM     14  C   UNL     1      48.362 -35.887  50.352  0.00  0.00    +0.000 A 
ATOM     15  C   UNL     1      49.175 -43.148  48.521  0.00  0.00    +0.000 A 
ATOM     16  C   UNL     1      49.561 -42.558  47.319  0.00  0.00    +0.000 A 
ATOM     17  C   UNL     1      47.564 -35.726  52.719  0.00  0.00    +0.000 C 
ENDROOT
BRANCH  10  18
ATOM     18  O   UNL     1      49.109 -35.940  48.128  0.00  0.00    +0.000 OA
ATOM     19  H   UNL     1      48.700 -35.043  48.172  0.00  0.00    +0.000 HD
ENDBRANCH  10  18
BRANCH  12  20
ATOM     20  O   UNL     1      49.960 -40.655  45.974  0.00  0.00    +0.000 OA
ATOM     21  H   UNL     1      49.571 -39.771  45.848  0.00  0.00    +0.000 HD
ENDBRANCH  12  20
BRANCH  15  22
ATOM     22  O   UNL     1      49.132 -44.499  48.760  0.00  0.00    +0.000 OA
ATOM     23  C   UNL     1      50.320 -45.052  49.256  0.00  0.00    +0.000 C 
ENDBRANCH  15  22
TORSDOF 3
ENDMDL
MODEL 4
REMARK VINA RESULT:      -6.2     14.819     17.834
REMARK  Name = 10639_Physcion.pdbqt.pdb
REMARK  3 active torsions:
REMARK  status: ('A' for Active; 'I' for Inactive)
REMARK    1  A    between atoms: C_10  and  O_18
REMARK    2  A    between atoms: C_12  and  O_20
REMARK    3  A    between atoms: C_15  and  O_22
REMARK                            x       y       z     vdW  Elec       q    Type
REMARK                         _______ _______ _______ _____ _____    ______ ____
ROOT
ATOM      1  O   UNL     1      43.904 -53.965  55.041  0.00  0.00    +0.000 OA
ATOM      2  O   UNL     1      45.886 -55.796  59.634  0.00  0.00    +0.000 OA
ATOM      3  C   UNL     1      46.256 -54.622  57.647  0.00  0.00    +0.000 A 
ATOM      4  C   UNL     1      45.729 -54.147  56.449  0.00  0.00    +0.000 A 
ATOM      5  C   UNL     1      43.458 -55.175  57.048  0.00  0.00    +0.000 A 
ATOM      6  C   UNL     1      44.012 -55.639  58.242  0.00  0.00    +0.000 A 
ATOM      7  C   UNL     1      44.314 -54.407  56.108  0.00  0.00    +0.000 C 
ATOM      8  C   UNL     1      45.419 -55.381  58.583  0.00  0.00    +0.000 C 
ATOM      9  C   UNL     1      47.590 -54.386  57.985  0.00  0.00    +0.000 A 
ATOM     10  C   UNL     1      46.565 -53.426  55.584  0.00  0.00    +0.000 A 
ATOM     11  C   UNL     1      48.406 -53.668  57.117  0.00  0.00    +0.000 A 
ATOM     12  C   UNL     1      42.110 -55.458  56.790  0.00  0.00    +0.000 A 
ATOM     13  C   UNL     1      43.246 -56.367  59.159  0.00  0.00    +0.000 A 
ATOM     14  C   UNL     1      47.899 -53.186  55.915  0.00  0.00    +0.000 A 
ATOM     15  C   UNL     1      41.908 -56.644  58.896  0.00  0.00    +0.000 A 
ATOM     16  C   UNL     1      41.346 -56.185  57.706  0.00  0.00    +0.000 A 
ATOM     17  C   UNL     1      49.838 -53.416  57.482  0.00  0.00    +0.000 C 
ENDROOT
BRANCH  10  18
ATOM     18  O   UNL     1      46.139 -52.920  54.385  0.00  0.00    +0.000 OA
ATOM     19  H   UNL     1      46.180 -51.935  54.422  0.00  0.00    +0.000 HD
ENDBRANCH  10  18
BRANCH  12  20
ATOM     20  O   UNL     1      41.500 -55.038  55.644  0.00  0.00    +0.000 OA
ATOM     21  H   UNL     1      40.643 -55.489  55.539  0.00  0.00    +0.000 HD
ENDBRANCH  12  20
BRANCH  15  22
ATOM     22  O   UNL     1      41.243 -57.363  59.857  0.00  0.00    +0.000 OA
ATOM     23  C   UNL     1      41.794 -57.286  61.144  0.00  0.00    +0.000 C 
ENDBRANCH  15  22
TORSDOF 3
ENDMDL
MODEL 5
REMARK VINA RESULT:      -6.2     12.029     16.515
REMARK  Name = 10639_Physcion.pdbqt.pdb
REMARK  3 active torsions:
REMARK  status: ('A' for Active; 'I' for Inactive)
REMARK    1  A    between atoms: C_10  and  O_18
REMARK    2  A    between atoms: C_12  and  O_20
REMARK    3  A    between atoms: C_15  and  O_22
REMARK                            x       y       z     vdW  Elec       q    Type
REMARK                         _______ _______ _______ _____ _____    ______ ____
ROOT
ATOM      1  O   UNL     1      49.133 -54.296  58.522  0.00  0.00    +0.000 OA
ATOM      2  O   UNL     1      51.110 -54.805  53.601  0.00  0.00    +0.000 OA
ATOM      3  C   UNL     1      51.267 -55.365  55.865  0.00  0.00    +0.000 A 
ATOM      4  C   UNL     1      50.744 -55.226  57.148  0.00  0.00    +0.000 A 
ATOM      5  C   UNL     1      48.914 -53.683  56.226  0.00  0.00    +0.000 A 
ATOM      6  C   UNL     1      49.460 -53.841  54.951  0.00  0.00    +0.000 A 
ATOM      7  C   UNL     1      49.551 -54.381  57.373  0.00  0.00    +0.000 C 
ATOM      8  C   UNL     1      50.647 -54.680  54.726  0.00  0.00    +0.000 C 
ATOM      9  C   UNL     1      52.394 -56.158  55.635  0.00  0.00    +0.000 A 
ATOM     10  C   UNL     1      51.369 -55.898  58.207  0.00  0.00    +0.000 A 
ATOM     11  C   UNL     1      53.002 -56.819  56.696  0.00  0.00    +0.000 A 
ATOM     12  C   UNL     1      47.784 -52.869  56.366  0.00  0.00    +0.000 A 
ATOM     13  C   UNL     1      48.896 -53.204  53.841  0.00  0.00    +0.000 A 
ATOM     14  C   UNL     1      52.494 -56.692  57.985  0.00  0.00    +0.000 A 
ATOM     15  C   UNL     1      47.772 -52.396  53.987  0.00  0.00    +0.000 A 
ATOM     16  C   UNL     1      47.221 -52.233  55.256  0.00  0.00    +0.000 A 
ATOM     17  C   UNL     1      54.211 -57.670  56.446  0.00  0.00    +0.000 C 
ENDROOT
BRANCH  10  18
ATOM     18  O   UNL     1      50.929 -55.823  59.502  0.00  0.00    +0.000 OA
ATOM     19  H   UNL     1      51.665 -56.083  60.104  0.00  0.00    +0.000 HD
ENDBRANCH  10  18
BRANCH  12  20
ATOM     20  O   UNL     1      47.195 -52.667  57.580  0.00  0.00    +0.000 OA
ATOM     21  H   UNL     1      47.811 -52.205  58.177  0.00  0.00    +0.000 HD
ENDBRANCH  12  20
BRANCH  15  22
ATOM     22  O   UNL     1      47.296 -51.816  52.838  0.00  0.00    +0.000 OA
ATOM     23  C   UNL     1      48.273 -51.245  52.011  0.00  0.00    +0.000 C 
ENDBRANCH  15  22
TORSDOF 3
ENDMDL
MODEL 6
REMARK VINA RESULT:      -6.1     13.258     16.184
REMARK  Name = 10639_Physcion.pdbqt.pdb
REMARK  3 active torsions:
REMARK  status: ('A' for Active; 'I' for Inactive)
REMARK    1  A    between atoms: C_10  and  O_18
REMARK    2  A    between atoms: C_12  and  O_20
REMARK    3  A    between atoms: C_15  and  O_22
REMARK                            x       y       z     vdW  Elec       q    Type
REMARK                         _______ _______ _______ _____ _____    ______ ____
ROOT
ATOM      1  O   UNL     1      49.084 -54.144  58.489  0.00  0.00    +0.000 OA
ATOM      2  O   UNL     1      51.083 -54.915  53.611  0.00  0.00    +0.000 OA
ATOM      3  C   UNL     1      49.457 -53.896  54.946  0.00  0.00    +0.000 A 
ATOM      4  C   UNL     1      48.941 -53.700  56.224  0.00  0.00    +0.000 A 
ATOM      5  C   UNL     1      50.772 -55.216  57.187  0.00  0.00    +0.000 A 
ATOM      6  C   UNL     1      51.268 -55.394  55.894  0.00  0.00    +0.000 A 
ATOM      7  C   UNL     1      49.580 -54.352  57.388  0.00  0.00    +0.000 C 
ATOM      8  C   UNL     1      50.634 -54.746  54.736  0.00  0.00    +0.000 C 
ATOM      9  C   UNL     1      48.866 -53.288  53.836  0.00  0.00    +0.000 A 
ATOM     10  C   UNL     1      47.815 -52.880  56.378  0.00  0.00    +0.000 A 
ATOM     11  C   UNL     1      47.750 -52.477  54.005  0.00  0.00    +0.000 A 
ATOM     12  C   UNL     1      51.427 -55.864  58.242  0.00  0.00    +0.000 A 
ATOM     13  C   UNL     1      52.388 -56.198  55.656  0.00  0.00    +0.000 A 
ATOM     14  C   UNL     1      47.220 -52.269  55.274  0.00  0.00    +0.000 A 
ATOM     15  C   UNL     1      53.033 -56.838  56.709  0.00  0.00    +0.000 A 
ATOM     16  C   UNL     1      52.545 -56.666  58.002  0.00  0.00    +0.000 A 
ATOM     17  C   UNL     1      47.118 -51.825  52.812  0.00  0.00    +0.000 C 
ENDROOT
BRANCH  10  18
ATOM     18  O   UNL     1      47.236 -52.627  57.593  0.00  0.00    +0.000 OA
ATOM     19  H   UNL     1      47.305 -53.436  58.153  0.00  0.00    +0.000 HD
ENDBRANCH  10  18
BRANCH  12  20
ATOM     20  O   UNL     1      51.000 -55.737  59.532  0.00  0.00    +0.000 OA
ATOM     21  H   UNL     1      51.428 -54.968  59.950  0.00  0.00    +0.000 HD
ENDBRANCH  12  20
BRANCH  15  22
ATOM     22  O   UNL     1      54.121 -57.603  56.371  0.00  0.00    +0.000 OA
ATOM     23  C   UNL     1      54.754 -57.239  55.174  0.00  0.00    +0.000 C 
ENDBRANCH  15  22
TORSDOF 3
ENDMDL
MODEL 7
REMARK VINA RESULT:      -6.1     16.335     18.874
REMARK  Name = 10639_Physcion.pdbqt.pdb
REMARK  3 active torsions:
REMARK  status: ('A' for Active; 'I' for Inactive)
REMARK    1  A    between atoms: C_10  and  O_18
REMARK    2  A    between atoms: C_12  and  O_20
REMARK    3  A    between atoms: C_15  and  O_22
REMARK                            x       y       z     vdW  Elec       q    Type
REMARK                         _______ _______ _______ _____ _____    ______ ____
ROOT
ATOM      1  O   UNL     1      57.903 -51.861  58.812  0.00  0.00    +0.000 OA
ATOM      2  O   UNL     1      58.698 -48.748  63.061  0.00  0.00    +0.000 OA
ATOM      3  C   UNL     1      57.879 -50.765  62.211  0.00  0.00    +0.000 A 
ATOM      4  C   UNL     1      57.675 -51.572  61.095  0.00  0.00    +0.000 A 
ATOM      5  C   UNL     1      58.757 -49.782  59.613  0.00  0.00    +0.000 A 
ATOM      6  C   UNL     1      58.949 -48.995  60.748  0.00  0.00    +0.000 A 
ATOM      7  C   UNL     1      58.106 -51.110  59.759  0.00  0.00    +0.000 C 
ATOM      8  C   UNL     1      58.521 -49.453  62.078  0.00  0.00    +0.000 C 
ATOM      9  C   UNL     1      57.477 -51.187  63.481  0.00  0.00    +0.000 A 
ATOM     10  C   UNL     1      57.057 -52.819  61.269  0.00  0.00    +0.000 A 
ATOM     11  C   UNL     1      56.866 -52.426  63.637  0.00  0.00    +0.000 A 
ATOM     12  C   UNL     1      59.191 -49.281  58.378  0.00  0.00    +0.000 A 
ATOM     13  C   UNL     1      59.558 -47.738  60.660  0.00  0.00    +0.000 A 
ATOM     14  C   UNL     1      56.654 -53.247  62.534  0.00  0.00    +0.000 A 
ATOM     15  C   UNL     1      59.986 -47.246  59.431  0.00  0.00    +0.000 A 
ATOM     16  C   UNL     1      59.798 -48.026  58.292  0.00  0.00    +0.000 A 
ATOM     17  C   UNL     1      56.436 -52.876  65.001  0.00  0.00    +0.000 C 
ENDROOT
BRANCH  10  18
ATOM     18  O   UNL     1      56.814 -53.682  60.234  0.00  0.00    +0.000 OA
ATOM     19  H   UNL     1      57.674 -53.950  59.834  0.00  0.00    +0.000 HD
ENDBRANCH  10  18
BRANCH  12  20
ATOM     20  O   UNL     1      59.037 -49.994  57.225  0.00  0.00    +0.000 OA
ATOM     21  H   UNL     1      59.909 -50.199  56.841  0.00  0.00    +0.000 HD
ENDBRANCH  12  20
BRANCH  15  22
ATOM     22  O   UNL     1      60.570 -46.005  59.451  0.00  0.00    +0.000 OA
ATOM     23  C   UNL     1      61.747 -45.890  58.697  0.00  0.00    +0.000 C 
ENDBRANCH  15  22
TORSDOF 3
ENDMDL
MODEL 8
REMARK VINA RESULT:      -6.0     22.789     23.901
REMARK  Name = 10639_Physcion.pdbqt.pdb
REMARK  3 active torsions:
REMARK  status: ('A' for Active; 'I' for Inactive)
REMARK    1  A    between atoms: C_10  and  O_18
REMARK    2  A    between atoms: C_12  and  O_20
REMARK    3  A    between atoms: C_15  and  O_22
REMARK                            x       y       z     vdW  Elec       q    Type
REMARK                         _______ _______ _______ _____ _____    ______ ____
ROOT
ATOM      1  O   UNL     1      41.911 -54.612  67.657  0.00  0.00    +0.000 OA
ATOM      2  O   UNL     1      45.849 -57.134  65.106  0.00  0.00    +0.000 OA
ATOM      3  C   UNL     1      45.201 -55.771  66.890  0.00  0.00    +0.000 A 
ATOM      4  C   UNL     1      44.165 -55.115  67.551  0.00  0.00    +0.000 A 
ATOM      5  C   UNL     1      42.503 -56.005  65.812  0.00  0.00    +0.000 A 
ATOM      6  C   UNL     1      43.561 -56.652  65.171  0.00  0.00    +0.000 A 
ATOM      7  C   UNL     1      42.782 -55.209  67.035  0.00  0.00    +0.000 C 
ATOM      8  C   UNL     1      44.936 -56.560  65.682  0.00  0.00    +0.000 C 
ATOM      9  C   UNL     1      46.513 -55.693  67.363  0.00  0.00    +0.000 A 
ATOM     10  C   UNL     1      44.463 -54.372  68.702  0.00  0.00    +0.000 A 
ATOM     11  C   UNL     1      46.792 -54.952  68.506  0.00  0.00    +0.000 A 
ATOM     12  C   UNL     1      41.219 -56.138  65.269  0.00  0.00    +0.000 A 
ATOM     13  C   UNL     1      43.347 -57.413  64.017  0.00  0.00    +0.000 A 
ATOM     14  C   UNL     1      45.771 -54.290  69.180  0.00  0.00    +0.000 A 
ATOM     15  C   UNL     1      42.069 -57.541  63.483  0.00  0.00    +0.000 A 
ATOM     16  C   UNL     1      41.007 -56.898  64.117  0.00  0.00    +0.000 A 
ATOM     17  C   UNL     1      48.201 -54.870  69.012  0.00  0.00    +0.000 C 
ENDROOT
BRANCH  10  18
ATOM     18  O   UNL     1      43.514 -53.694  69.418  0.00  0.00    +0.000 OA
ATOM     19  H   UNL     1      43.930 -52.895  69.821  0.00  0.00    +0.000 HD
ENDBRANCH  10  18
BRANCH  12  20
ATOM     20  O   UNL     1      40.137 -55.534  65.841  0.00  0.00    +0.000 OA
ATOM     21  H   UNL     1      39.320 -55.997  65.579  0.00  0.00    +0.000 HD
ENDBRANCH  12  20
BRANCH  15  22
ATOM     22  O   UNL     1      41.965 -58.308  62.350  0.00  0.00    +0.000 OA
ATOM     23  C   UNL     1      41.527 -57.623  61.207  0.00  0.00    +0.000 C 
ENDBRANCH  15  22
TORSDOF 3
ENDMDL
MODEL 9
REMARK VINA RESULT:      -6.0     23.573     24.107
REMARK  Name = 10639_Physcion.pdbqt.pdb
REMARK  3 active torsions:
REMARK  status: ('A' for Active; 'I' for Inactive)
REMARK    1  A    between atoms: C_10  and  O_18
REMARK    2  A    between atoms: C_12  and  O_20
REMARK    3  A    between atoms: C_15  and  O_22
REMARK                            x       y       z     vdW  Elec       q    Type
REMARK                         _______ _______ _______ _____ _____    ______ ____
ROOT
ATOM      1  O   UNL     1      41.930 -54.526  67.687  0.00  0.00    +0.000 OA
ATOM      2  O   UNL     1      46.080 -57.004  65.446  0.00  0.00    +0.000 OA
ATOM      3  C   UNL     1      43.786 -56.556  65.409  0.00  0.00    +0.000 A 
ATOM      4  C   UNL     1      42.707 -55.905  66.001  0.00  0.00    +0.000 A 
ATOM      5  C   UNL     1      44.278 -54.942  67.785  0.00  0.00    +0.000 A 
ATOM      6  C   UNL     1      45.340 -55.606  67.170  0.00  0.00    +0.000 A 
ATOM      7  C   UNL     1      42.915 -55.077  67.208  0.00  0.00    +0.000 C 
ATOM      8  C   UNL     1      45.135 -56.430  65.970  0.00  0.00    +0.000 C 
ATOM      9  C   UNL     1      43.608 -57.343  64.268  0.00  0.00    +0.000 A 
ATOM     10  C   UNL     1      41.435 -56.054  65.431  0.00  0.00    +0.000 A 
ATOM     11  C   UNL     1      42.339 -57.480  63.715  0.00  0.00    +0.000 A 
ATOM     12  C   UNL     1      44.547 -54.174  68.925  0.00  0.00    +0.000 A 
ATOM     13  C   UNL     1      46.641 -55.509  67.677  0.00  0.00    +0.000 A 
ATOM     14  C   UNL     1      41.249 -56.838  64.292  0.00  0.00    +0.000 A 
ATOM     15  C   UNL     1      46.901 -54.744  68.810  0.00  0.00    +0.000 A 
ATOM     16  C   UNL     1      45.846 -54.079  69.429  0.00  0.00    +0.000 A 
ATOM     17  C   UNL     1      42.151 -58.325  62.491  0.00  0.00    +0.000 C 
ENDROOT
BRANCH  10  18
ATOM     18  O   UNL     1      40.314 -55.454  65.941  0.00  0.00    +0.000 OA
ATOM     19  H   UNL     1      40.587 -54.798  66.625  0.00  0.00    +0.000 HD
ENDBRANCH  10  18
BRANCH  12  20
ATOM     20  O   UNL     1      43.559 -53.497  69.579  0.00  0.00    +0.000 OA
ATOM     21  H   UNL     1      42.949 -54.127  70.005  0.00  0.00    +0.000 HD
ENDBRANCH  12  20
BRANCH  15  22
ATOM     22  O   UNL     1      48.208 -54.714  69.226  0.00  0.00    +0.000 OA
ATOM     23  C   UNL     1      49.160 -54.715  68.197  0.00  0.00    +0.000 C 
ENDBRANCH  15  22
TORSDOF 3
ENDMDL
