MODEL 1
REMARK VINA RESULT:      -8.6      0.000      0.000
REMARK  Name = 10940649_MilnamideD.pdbqt.pdb
REMARK  7 active torsions:
REMARK  status: ('A' for Active; 'I' for Inactive)
REMARK    1  A    between atoms: C_3  and  C_8
REMARK    2  A    between atoms: C_22  and  C_25
REMARK    3  A    between atoms: C_22  and  C_38
REMARK    4  A    between atoms: N_24  and  C_27
REMARK    5  A    between atoms: C_27  and  C_28
REMARK    6  A    between atoms: C_32  and  C_35
REMARK    7  A    between atoms: C_35  and  O_36
REMARK                            x       y       z     vdW  Elec       q    Type
REMARK                         _______ _______ _______ _____ _____    ______ ____
ROOT
ATOM      1  O   UNL     1      46.367 -45.184  49.478  0.00  0.00    +0.000 OA
ATOM      2  N   UNL     1      48.414 -45.622  50.359  0.00  0.00    +0.000 N 
ATOM      3  C   UNL     1      47.416 -44.758  49.949  0.00  0.00    +0.000 C 
ATOM      4  H   UNL     1      49.314 -45.225  50.650  0.00  0.00    +0.000 HD
ATOM      5  C   UNL     1      48.326 -47.035  50.340  0.00  0.00    +0.000 C 
ENDROOT
BRANCH   3   9
ATOM      6  N   UNL     1      47.311 -42.606  51.358  0.00  0.00    +0.000 NA
ATOM      7  N   UNL     1      48.553 -39.090  50.141  0.00  0.00    +0.000 N 
ATOM      8  C   UNL     1      48.108 -42.548  48.810  0.00  0.00    +0.000 C 
ATOM      9  C   UNL     1      47.692 -43.294  50.112  0.00  0.00    +0.000 C 
ATOM     10  C   UNL     1      48.431 -41.036  49.024  0.00  0.00    +0.000 A 
ATOM     11  C   UNL     1      48.205 -40.393  50.224  0.00  0.00    +0.000 A 
ATOM     12  C   UNL     1      46.920 -42.542  47.803  0.00  0.00    +0.000 C 
ATOM     13  C   UNL     1      49.429 -43.159  48.258  0.00  0.00    +0.000 C 
ATOM     14  C   UNL     1      48.948 -40.017  48.146  0.00  0.00    +0.000 A 
ATOM     15  C   UNL     1      47.680 -41.222  51.221  0.00  0.00    +0.000 C 
ATOM     16  C   UNL     1      49.016 -38.813  48.876  0.00  0.00    +0.000 A 
ATOM     17  C   UNL     1      48.041 -43.141  52.496  0.00  0.00    +0.000 C 
ATOM     18  C   UNL     1      49.360 -40.008  46.798  0.00  0.00    +0.000 A 
ATOM     19  C   UNL     1      48.433 -38.156  51.208  0.00  0.00    +0.000 C 
ATOM     20  C   UNL     1      49.481 -37.619  48.305  0.00  0.00    +0.000 A 
ATOM     21  C   UNL     1      49.823 -38.823  46.225  0.00  0.00    +0.000 A 
ATOM     22  C   UNL     1      49.883 -37.651  46.969  0.00  0.00    +0.000 A 
ENDBRANCH   3   9
BRANCH   5  25
ATOM     23  O   UNL     1      46.889 -48.200  48.927  0.00  0.00    +0.000 OA
ATOM     24  N   UNL     1      46.115 -47.748  51.113  0.00  0.00    +0.000 N 
ATOM     25  C   UNL     1      47.034 -47.697  50.037  0.00  0.00    +0.000 C 
ATOM     26  C   UNL     1      46.321 -47.092  52.410  0.00  0.00    +0.000 C 
BRANCH  24  27
ATOM     27  C   UNL     1      44.921 -48.481  50.996  0.00  0.00    +0.000 C 
ATOM     28  C   UNL     1      43.724 -47.876  50.480  0.00  0.00    +0.000 C 
ATOM     29  C   UNL     1      42.636 -47.335  50.015  0.00  0.00    +0.000 C 
ATOM     30  C   UNL     1      42.170 -47.861  48.674  0.00  0.00    +0.000 C 
BRANCH  27  31
ATOM     31  C   UNL     1      44.848 -49.886  51.366  0.00  0.00    +0.000 C 
ATOM     32  C   UNL     1      45.806 -50.463  52.389  0.00  0.00    +0.000 C 
ATOM     33  C   UNL     1      43.525 -50.621  51.251  0.00  0.00    +0.000 C 
ENDBRANCH  27  31
BRANCH  29  35
ATOM     34  O   UNL     1      42.483 -45.487  51.558  0.00  0.00    +0.000 OA
ATOM     35  C   UNL     1      41.941 -46.276  50.797  0.00  0.00    +0.000 C 
BRANCH  35  36
ATOM     36  O   UNL     1      40.605 -46.229  50.615  0.00  0.00    +0.000 OA
ATOM     37  H   UNL     1      40.302 -45.448  51.123  0.00  0.00    +0.000 HD
ENDBRANCH  35  36
ENDBRANCH  29  35
ENDBRANCH  24  27
ENDBRANCH   5  25
BRANCH   5  38
ATOM     38  C   UNL     1      49.411 -47.959  50.871  0.00  0.00    +0.000 C 
ATOM     39  C   UNL     1      50.680 -47.711  49.994  0.00  0.00    +0.000 C 
ATOM     40  C   UNL     1      49.734 -47.526  52.329  0.00  0.00    +0.000 C 
ATOM     41  C   UNL     1      49.034 -49.459  50.803  0.00  0.00    +0.000 C 
ENDBRANCH   5  38
TORSDOF 7
ENDMDL
MODEL 2
REMARK VINA RESULT:      -7.8      1.724      3.359
REMARK  Name = 10940649_MilnamideD.pdbqt.pdb
REMARK  7 active torsions:
REMARK  status: ('A' for Active; 'I' for Inactive)
REMARK    1  A    between atoms: C_3  and  C_8
REMARK    2  A    between atoms: C_22  and  C_25
REMARK    3  A    between atoms: C_22  and  C_38
REMARK    4  A    between atoms: N_24  and  C_27
REMARK    5  A    between atoms: C_27  and  C_28
REMARK    6  A    between atoms: C_32  and  C_35
REMARK    7  A    between atoms: C_35  and  O_36
REMARK                            x       y       z     vdW  Elec       q    Type
REMARK                         _______ _______ _______ _____ _____    ______ ____
ROOT
ATOM      1  O   UNL     1      46.456 -44.681  49.902  0.00  0.00    +0.000 OA
ATOM      2  N   UNL     1      48.650 -44.916  49.364  0.00  0.00    +0.000 N 
ATOM      3  C   UNL     1      47.555 -44.162  49.743  0.00  0.00    +0.000 C 
ATOM      4  H   UNL     1      49.525 -44.428  49.142  0.00  0.00    +0.000 HD
ATOM      5  C   UNL     1      48.648 -46.320  49.182  0.00  0.00    +0.000 C 
ENDROOT
BRANCH   3   9
ATOM      6  N   UNL     1      47.451 -42.061  51.226  0.00  0.00    +0.000 NA
ATOM      7  N   UNL     1      48.517 -38.468  50.069  0.00  0.00    +0.000 N 
ATOM      8  C   UNL     1      48.118 -41.895  48.646  0.00  0.00    +0.000 C 
ATOM      9  C   UNL     1      47.791 -42.696  49.942  0.00  0.00    +0.000 C 
ATOM     10  C   UNL     1      48.402 -40.380  48.895  0.00  0.00    +0.000 A 
ATOM     11  C   UNL     1      48.216 -39.784  50.125  0.00  0.00    +0.000 A 
ATOM     12  C   UNL     1      46.881 -41.896  47.699  0.00  0.00    +0.000 C 
ATOM     13  C   UNL     1      49.428 -42.442  48.010  0.00  0.00    +0.000 C 
ATOM     14  C   UNL     1      48.841 -39.316  48.027  0.00  0.00    +0.000 A 
ATOM     15  C   UNL     1      47.769 -40.661  51.118  0.00  0.00    +0.000 C 
ATOM     16  C   UNL     1      48.906 -38.135  48.793  0.00  0.00    +0.000 A 
ATOM     17  C   UNL     1      48.255 -42.606  52.309  0.00  0.00    +0.000 C 
ATOM     18  C   UNL     1      49.185 -39.250  46.662  0.00  0.00    +0.000 A 
ATOM     19  C   UNL     1      48.420 -37.572  51.171  0.00  0.00    +0.000 C 
ATOM     20  C   UNL     1      49.304 -36.908  48.241  0.00  0.00    +0.000 A 
ATOM     21  C   UNL     1      49.580 -38.033  46.107  0.00  0.00    +0.000 A 
ATOM     22  C   UNL     1      49.639 -36.884  46.886  0.00  0.00    +0.000 A 
ENDBRANCH   3   9
BRANCH   5  25
ATOM     23  O   UNL     1      46.717 -47.525  48.693  0.00  0.00    +0.000 OA
ATOM     24  N   UNL     1      47.366 -47.407  50.962  0.00  0.00    +0.000 N 
ATOM     25  C   UNL     1      47.465 -47.121  49.579  0.00  0.00    +0.000 C 
ATOM     26  C   UNL     1      48.265 -46.862  51.986  0.00  0.00    +0.000 C 
BRANCH  24  27
ATOM     27  C   UNL     1      46.375 -48.282  51.440  0.00  0.00    +0.000 C 
ATOM     28  C   UNL     1      46.717 -49.438  52.223  0.00  0.00    +0.000 C 
ATOM     29  C   UNL     1      47.019 -50.486  52.932  0.00  0.00    +0.000 C 
ATOM     30  C   UNL     1      46.571 -50.445  54.377  0.00  0.00    +0.000 C 
BRANCH  27  31
ATOM     31  C   UNL     1      44.961 -48.047  51.186  0.00  0.00    +0.000 C 
ATOM     32  C   UNL     1      44.014 -49.211  50.976  0.00  0.00    +0.000 C 
ATOM     33  C   UNL     1      44.308 -46.784  51.716  0.00  0.00    +0.000 C 
ENDBRANCH  27  31
BRANCH  29  35
ATOM     34  O   UNL     1      47.583 -52.801  52.559  0.00  0.00    +0.000 OA
ATOM     35  C   UNL     1      47.755 -51.618  52.306  0.00  0.00    +0.000 C 
BRANCH  35  36
ATOM     36  O   UNL     1      48.679 -51.250  51.392  0.00  0.00    +0.000 OA
ATOM     37  H   UNL     1      48.262 -51.418  50.522  0.00  0.00    +0.000 HD
ENDBRANCH  35  36
ENDBRANCH  29  35
ENDBRANCH  24  27
ENDBRANCH   5  25
BRANCH   5  38
ATOM     38  C   UNL     1      49.887 -47.133  48.841  0.00  0.00    +0.000 C 
ATOM     39  C   UNL     1      49.480 -48.637  48.948  0.00  0.00    +0.000 C 
ATOM     40  C   UNL     1      50.261 -46.833  47.361  0.00  0.00    +0.000 C 
ATOM     41  C   UNL     1      51.083 -46.863  49.786  0.00  0.00    +0.000 C 
ENDBRANCH   5  38
TORSDOF 7
ENDMDL
MODEL 3
REMARK VINA RESULT:      -7.5      5.708      8.623
REMARK  Name = 10940649_MilnamideD.pdbqt.pdb
REMARK  7 active torsions:
REMARK  status: ('A' for Active; 'I' for Inactive)
REMARK    1  A    between atoms: C_3  and  C_8
REMARK    2  A    between atoms: C_22  and  C_25
REMARK    3  A    between atoms: C_22  and  C_38
REMARK    4  A    between atoms: N_24  and  C_27
REMARK    5  A    between atoms: C_27  and  C_28
REMARK    6  A    between atoms: C_32  and  C_35
REMARK    7  A    between atoms: C_35  and  O_36
REMARK                            x       y       z     vdW  Elec       q    Type
REMARK                         _______ _______ _______ _____ _____    ______ ____
ROOT
ATOM      1  O   UNL     1      52.764 -45.505  48.480  0.00  0.00    +0.000 OA
ATOM      2  N   UNL     1      51.650 -44.492  46.782  0.00  0.00    +0.000 N 
ATOM      3  C   UNL     1      52.748 -45.144  47.309  0.00  0.00    +0.000 C 
ATOM      4  H   UNL     1      51.716 -44.115  45.829  0.00  0.00    +0.000 HD
ATOM      5  C   UNL     1      50.446 -44.227  47.480  0.00  0.00    +0.000 C 
ENDROOT
BRANCH   3   9
ATOM      6  N   UNL     1      54.785 -44.262  46.007  0.00  0.00    +0.000 NA
ATOM      7  N   UNL     1      56.996 -46.433  43.601  0.00  0.00    +0.000 N 
ATOM      8  C   UNL     1      53.883 -46.747  45.636  0.00  0.00    +0.000 C 
ATOM      9  C   UNL     1      53.897 -45.377  46.376  0.00  0.00    +0.000 C 
ATOM     10  C   UNL     1      55.116 -46.976  44.706  0.00  0.00    +0.000 A 
ATOM     11  C   UNL     1      56.039 -45.984  44.444  0.00  0.00    +0.000 A 
ATOM     12  C   UNL     1      52.664 -46.812  44.668  0.00  0.00    +0.000 C 
ATOM     13  C   UNL     1      53.953 -47.903  46.675  0.00  0.00    +0.000 C 
ATOM     14  C   UNL     1      55.559 -48.112  43.937  0.00  0.00    +0.000 A 
ATOM     15  C   UNL     1      55.774 -44.776  45.096  0.00  0.00    +0.000 C 
ATOM     16  C   UNL     1      56.739 -47.740  43.261  0.00  0.00    +0.000 A 
ATOM     17  C   UNL     1      55.491 -43.746  47.170  0.00  0.00    +0.000 C 
ATOM     18  C   UNL     1      55.063 -49.417  43.753  0.00  0.00    +0.000 A 
ATOM     19  C   UNL     1      58.086 -45.648  43.131  0.00  0.00    +0.000 C 
ATOM     20  C   UNL     1      57.428 -48.627  42.421  0.00  0.00    +0.000 A 
ATOM     21  C   UNL     1      55.744 -50.303  42.917  0.00  0.00    +0.000 A 
ATOM     22  C   UNL     1      56.907 -49.913  42.266  0.00  0.00    +0.000 A 
ENDBRANCH   3   9
BRANCH   5  25
ATOM     23  O   UNL     1      50.377 -44.106  49.804  0.00  0.00    +0.000 OA
ATOM     24  N   UNL     1      49.750 -46.158  48.814  0.00  0.00    +0.000 N 
ATOM     25  C   UNL     1      50.216 -44.821  48.819  0.00  0.00    +0.000 C 
ATOM     26  C   UNL     1      49.616 -46.984  47.609  0.00  0.00    +0.000 C 
BRANCH  24  27
ATOM     27  C   UNL     1      49.352 -46.778  50.012  0.00  0.00    +0.000 C 
ATOM     28  C   UNL     1      48.262 -46.260  50.793  0.00  0.00    +0.000 C 
ATOM     29  C   UNL     1      47.278 -45.796  51.505  0.00  0.00    +0.000 C 
ATOM     30  C   UNL     1      46.045 -46.674  51.559  0.00  0.00    +0.000 C 
BRANCH  27  31
ATOM     31  C   UNL     1      50.006 -47.983  50.502  0.00  0.00    +0.000 C 
ATOM     32  C   UNL     1      51.171 -47.888  51.467  0.00  0.00    +0.000 C 
ATOM     33  C   UNL     1      49.220 -49.279  50.582  0.00  0.00    +0.000 C 
ENDBRANCH  27  31
BRANCH  29  35
ATOM     34  O   UNL     1      47.095 -43.402  51.733  0.00  0.00    +0.000 OA
ATOM     35  C   UNL     1      47.416 -44.486  52.198  0.00  0.00    +0.000 C 
BRANCH  35  36
ATOM     36  O   UNL     1      47.948 -44.560  53.436  0.00  0.00    +0.000 OA
ATOM     37  H   UNL     1      48.008 -43.633  53.746  0.00  0.00    +0.000 HD
ENDBRANCH  35  36
ENDBRANCH  29  35
ENDBRANCH  24  27
ENDBRANCH   5  25
BRANCH   5  38
ATOM     38  C   UNL     1      49.225 -43.577  46.850  0.00  0.00    +0.000 C 
ATOM     39  C   UNL     1      49.495 -42.038  46.832  0.00  0.00    +0.000 C 
ATOM     40  C   UNL     1      49.128 -44.072  45.378  0.00  0.00    +0.000 C 
ATOM     41  C   UNL     1      47.910 -43.851  47.620  0.00  0.00    +0.000 C 
ENDBRANCH   5  38
TORSDOF 7
ENDMDL
MODEL 4
REMARK VINA RESULT:      -7.5      1.659      2.674
REMARK  Name = 10940649_MilnamideD.pdbqt.pdb
REMARK  7 active torsions:
REMARK  status: ('A' for Active; 'I' for Inactive)
REMARK    1  A    between atoms: C_3  and  C_8
REMARK    2  A    between atoms: C_22  and  C_25
REMARK    3  A    between atoms: C_22  and  C_38
REMARK    4  A    between atoms: N_24  and  C_27
REMARK    5  A    between atoms: C_27  and  C_28
REMARK    6  A    between atoms: C_32  and  C_35
REMARK    7  A    between atoms: C_35  and  O_36
REMARK                            x       y       z     vdW  Elec       q    Type
REMARK                         _______ _______ _______ _____ _____    ______ ____
ROOT
ATOM      1  O   UNL     1      46.431 -45.357  49.756  0.00  0.00    +0.000 OA
ATOM      2  N   UNL     1      48.517 -45.832  48.996  0.00  0.00    +0.000 N 
ATOM      3  C   UNL     1      47.392 -45.033  49.070  0.00  0.00    +0.000 C 
ATOM      4  H   UNL     1      49.256 -45.577  48.332  0.00  0.00    +0.000 HD
ATOM      5  C   UNL     1      48.708 -47.036  49.717  0.00  0.00    +0.000 C 
ENDROOT
BRANCH   3   9
ATOM      6  N   UNL     1      46.862 -43.738  46.909  0.00  0.00    +0.000 NA
ATOM      7  N   UNL     1      47.801 -39.982  46.279  0.00  0.00    +0.000 N 
ATOM      8  C   UNL     1      48.321 -42.634  48.853  0.00  0.00    +0.000 C 
ATOM      9  C   UNL     1      47.422 -43.765  48.270  0.00  0.00    +0.000 C 
ATOM     10  C   UNL     1      48.294 -41.314  48.021  0.00  0.00    +0.000 A 
ATOM     11  C   UNL     1      47.663 -41.223  46.797  0.00  0.00    +0.000 A 
ATOM     12  C   UNL     1      49.814 -43.074  48.816  0.00  0.00    +0.000 C 
ATOM     13  C   UNL     1      47.796 -42.223  50.260  0.00  0.00    +0.000 C 
ATOM     14  C   UNL     1      48.869 -40.011  48.242  0.00  0.00    +0.000 A 
ATOM     15  C   UNL     1      47.045 -42.409  46.388  0.00  0.00    +0.000 C 
ATOM     16  C   UNL     1      48.539 -39.201  47.137  0.00  0.00    +0.000 A 
ATOM     17  C   UNL     1      45.432 -44.006  46.925  0.00  0.00    +0.000 C 
ATOM     18  C   UNL     1      49.642 -39.449  49.278  0.00  0.00    +0.000 A 
ATOM     19  C   UNL     1      47.271 -39.571  45.024  0.00  0.00    +0.000 C 
ATOM     20  C   UNL     1      48.951 -37.863  47.042  0.00  0.00    +0.000 A 
ATOM     21  C   UNL     1      50.055 -38.120  49.189  0.00  0.00    +0.000 A 
ATOM     22  C   UNL     1      49.712 -37.343  48.090  0.00  0.00    +0.000 A 
ENDBRANCH   3   9
BRANCH   5  25
ATOM     23  O   UNL     1      47.762 -46.805  51.832  0.00  0.00    +0.000 OA
ATOM     24  N   UNL     1      46.845 -48.461  50.418  0.00  0.00    +0.000 N 
ATOM     25  C   UNL     1      47.748 -47.431  50.776  0.00  0.00    +0.000 C 
ATOM     26  C   UNL     1      46.899 -49.208  49.156  0.00  0.00    +0.000 C 
BRANCH  24  27
ATOM     27  C   UNL     1      45.792 -48.817  51.279  0.00  0.00    +0.000 C 
ATOM     28  C   UNL     1      44.485 -48.237  51.138  0.00  0.00    +0.000 C 
ATOM     29  C   UNL     1      43.299 -47.716  51.016  0.00  0.00    +0.000 C 
ATOM     30  C   UNL     1      42.212 -48.670  50.569  0.00  0.00    +0.000 C 
BRANCH  27  31
ATOM     31  C   UNL     1      45.970 -49.804  52.335  0.00  0.00    +0.000 C 
ATOM     32  C   UNL     1      46.640 -49.423  53.640  0.00  0.00    +0.000 C 
ATOM     33  C   UNL     1      45.007 -50.973  52.434  0.00  0.00    +0.000 C 
ENDBRANCH  27  31
BRANCH  29  35
ATOM     34  O   UNL     1      42.105 -45.797  51.859  0.00  0.00    +0.000 OA
ATOM     35  C   UNL     1      43.090 -46.272  51.313  0.00  0.00    +0.000 C 
BRANCH  35  36
ATOM     36  O   UNL     1      44.101 -45.467  50.924  0.00  0.00    +0.000 OA
ATOM     37  H   UNL     1      44.079 -44.708  51.542  0.00  0.00    +0.000 HD
ENDBRANCH  35  36
ENDBRANCH  29  35
ENDBRANCH  24  27
ENDBRANCH   5  25
BRANCH   5  38
ATOM     38  C   UNL     1      49.988 -47.855  49.676  0.00  0.00    +0.000 C 
ATOM     39  C   UNL     1      51.173 -46.841  49.769  0.00  0.00    +0.000 C 
ATOM     40  C   UNL     1      50.018 -48.757  50.943  0.00  0.00    +0.000 C 
ATOM     41  C   UNL     1      50.144 -48.698  48.386  0.00  0.00    +0.000 C 
ENDBRANCH   5  38
TORSDOF 7
ENDMDL
MODEL 5
REMARK VINA RESULT:      -7.4      4.344      6.916
REMARK  Name = 10940649_MilnamideD.pdbqt.pdb
REMARK  7 active torsions:
REMARK  status: ('A' for Active; 'I' for Inactive)
REMARK    1  A    between atoms: C_3  and  C_8
REMARK    2  A    between atoms: C_22  and  C_25
REMARK    3  A    between atoms: C_22  and  C_38
REMARK    4  A    between atoms: N_24  and  C_27
REMARK    5  A    between atoms: C_27  and  C_28
REMARK    6  A    between atoms: C_32  and  C_35
REMARK    7  A    between atoms: C_35  and  O_36
REMARK                            x       y       z     vdW  Elec       q    Type
REMARK                         _______ _______ _______ _____ _____    ______ ____
ROOT
ATOM      1  O   UNL     1      50.365 -43.408  46.545  0.00  0.00    +0.000 OA
ATOM      2  N   UNL     1      48.096 -43.343  46.592  0.00  0.00    +0.000 N 
ATOM      3  C   UNL     1      49.340 -42.746  46.657  0.00  0.00    +0.000 C 
ATOM      4  H   UNL     1      47.268 -42.771  46.794  0.00  0.00    +0.000 HD
ATOM      5  C   UNL     1      47.864 -44.717  46.340  0.00  0.00    +0.000 C 
ENDROOT
BRANCH   3   9
ATOM      6  N   UNL     1      49.922 -40.374  45.842  0.00  0.00    +0.000 NA
ATOM      7  N   UNL     1      49.319 -37.100  47.915  0.00  0.00    +0.000 N 
ATOM      8  C   UNL     1      49.029 -40.798  48.322  0.00  0.00    +0.000 C 
ATOM      9  C   UNL     1      49.357 -41.262  46.872  0.00  0.00    +0.000 C 
ATOM     10  C   UNL     1      49.012 -39.247  48.501  0.00  0.00    +0.000 A 
ATOM     11  C   UNL     1      49.414 -38.383  47.503  0.00  0.00    +0.000 A 
ATOM     12  C   UNL     1      50.146 -41.278  49.296  0.00  0.00    +0.000 C 
ATOM     13  C   UNL     1      47.591 -41.254  48.703  0.00  0.00    +0.000 C 
ATOM     14  C   UNL     1      48.658 -38.398  49.610  0.00  0.00    +0.000 A 
ATOM     15  C   UNL     1      49.818 -39.023  46.327  0.00  0.00    +0.000 C 
ATOM     16  C   UNL     1      48.857 -37.062  49.210  0.00  0.00    +0.000 A 
ATOM     17  C   UNL     1      49.159 -40.452  44.606  0.00  0.00    +0.000 C 
ATOM     18  C   UNL     1      48.191 -38.645  50.916  0.00  0.00    +0.000 A 
ATOM     19  C   UNL     1      49.667 -35.971  47.121  0.00  0.00    +0.000 C 
ATOM     20  C   UNL     1      48.602 -35.980  50.067  0.00  0.00    +0.000 A 
ATOM     21  C   UNL     1      47.936 -37.574  51.773  0.00  0.00    +0.000 A 
ATOM     22  C   UNL     1      48.137 -36.265  51.352  0.00  0.00    +0.000 A 
ENDBRANCH   3   9
BRANCH   5  25
ATOM     23  O   UNL     1      49.281 -45.646  44.743  0.00  0.00    +0.000 OA
ATOM     24  N   UNL     1      49.659 -46.247  46.997  0.00  0.00    +0.000 N 
ATOM     25  C   UNL     1      48.985 -45.599  45.934  0.00  0.00    +0.000 C 
ATOM     26  C   UNL     1      49.237 -46.191  48.401  0.00  0.00    +0.000 C 
BRANCH  24  27
ATOM     27  C   UNL     1      50.829 -46.987  46.752  0.00  0.00    +0.000 C 
ATOM     28  C   UNL     1      52.130 -46.407  46.940  0.00  0.00    +0.000 C 
ATOM     29  C   UNL     1      53.312 -45.888  47.106  0.00  0.00    +0.000 C 
ATOM     30  C   UNL     1      54.122 -46.468  48.246  0.00  0.00    +0.000 C 
BRANCH  27  31
ATOM     31  C   UNL     1      50.778 -48.378  46.324  0.00  0.00    +0.000 C 
ATOM     32  C   UNL     1      52.053 -49.129  45.996  0.00  0.00    +0.000 C 
ATOM     33  C   UNL     1      49.622 -49.254  46.769  0.00  0.00    +0.000 C 
ENDBRANCH  27  31
BRANCH  29  35
ATOM     34  O   UNL     1      54.856 -44.230  46.280  0.00  0.00    +0.000 OA
ATOM     35  C   UNL     1      53.778 -44.801  46.203  0.00  0.00    +0.000 C 
BRANCH  35  36
ATOM     36  O   UNL     1      52.898 -44.455  45.240  0.00  0.00    +0.000 OA
ATOM     37  H   UNL     1      52.506 -45.298  44.933  0.00  0.00    +0.000 HD
ENDBRANCH  35  36
ENDBRANCH  29  35
ENDBRANCH  24  27
ENDBRANCH   5  25
BRANCH   5  38
ATOM     38  C   UNL     1      46.481 -45.332  46.196  0.00  0.00    +0.000 C 
ATOM     39  C   UNL     1      45.694 -44.975  47.497  0.00  0.00    +0.000 C 
ATOM     40  C   UNL     1      45.775 -44.640  44.995  0.00  0.00    +0.000 C 
ATOM     41  C   UNL     1      46.502 -46.870  46.023  0.00  0.00    +0.000 C 
ENDBRANCH   5  38
TORSDOF 7
ENDMDL
MODEL 6
REMARK VINA RESULT:      -7.4      3.484     10.693
REMARK  Name = 10940649_MilnamideD.pdbqt.pdb
REMARK  7 active torsions:
REMARK  status: ('A' for Active; 'I' for Inactive)
REMARK    1  A    between atoms: C_3  and  C_8
REMARK    2  A    between atoms: C_22  and  C_25
REMARK    3  A    between atoms: C_22  and  C_38
REMARK    4  A    between atoms: N_24  and  C_27
REMARK    5  A    between atoms: C_27  and  C_28
REMARK    6  A    between atoms: C_32  and  C_35
REMARK    7  A    between atoms: C_35  and  O_36
REMARK                            x       y       z     vdW  Elec       q    Type
REMARK                         _______ _______ _______ _____ _____    ______ ____
ROOT
ATOM      1  O   UNL     1      47.030 -50.401  50.993  0.00  0.00    +0.000 OA
ATOM      2  N   UNL     1      45.005 -49.403  51.242  0.00  0.00    +0.000 N 
ATOM      3  C   UNL     1      45.935 -50.380  51.543  0.00  0.00    +0.000 C 
ATOM      4  H   UNL     1      44.066 -49.480  51.647  0.00  0.00    +0.000 HD
ATOM      5  C   UNL     1      45.218 -48.326  50.347  0.00  0.00    +0.000 C 
ENDROOT
BRANCH   3   9
ATOM      6  N   UNL     1      44.185 -51.999  52.514  0.00  0.00    +0.000 NA
ATOM      7  N   UNL     1      44.711 -54.169  55.739  0.00  0.00    +0.000 N 
ATOM      8  C   UNL     1      46.476 -51.515  53.797  0.00  0.00    +0.000 C 
ATOM      9  C   UNL     1      45.527 -51.395  52.568  0.00  0.00    +0.000 C 
ATOM     10  C   UNL     1      46.046 -52.612  54.822  0.00  0.00    +0.000 A 
ATOM     11  C   UNL     1      44.848 -53.289  54.723  0.00  0.00    +0.000 A 
ATOM     12  C   UNL     1      46.442 -50.194  54.621  0.00  0.00    +0.000 C 
ATOM     13  C   UNL     1      47.892 -51.953  53.323  0.00  0.00    +0.000 C 
ATOM     14  C   UNL     1      46.670 -53.129  56.014  0.00  0.00    +0.000 A 
ATOM     15  C   UNL     1      44.074 -52.913  53.620  0.00  0.00    +0.000 C 
ATOM     16  C   UNL     1      45.811 -54.104  56.560  0.00  0.00    +0.000 A 
ATOM     17  C   UNL     1      44.006 -52.770  51.293  0.00  0.00    +0.000 C 
ATOM     18  C   UNL     1      47.882 -52.855  56.677  0.00  0.00    +0.000 A 
ATOM     19  C   UNL     1      43.581 -55.014  55.924  0.00  0.00    +0.000 C 
ATOM     20  C   UNL     1      46.129 -54.805  57.734  0.00  0.00    +0.000 A 
ATOM     21  C   UNL     1      48.203 -53.548  57.845  0.00  0.00    +0.000 A 
ATOM     22  C   UNL     1      47.340 -54.507  58.360  0.00  0.00    +0.000 A 
ENDBRANCH   3   9
BRANCH   5  25
ATOM     23  O   UNL     1      46.820 -48.475  48.665  0.00  0.00    +0.000 OA
ATOM     24  N   UNL     1      47.423 -47.300  50.624  0.00  0.00    +0.000 N 
ATOM     25  C   UNL     1      46.571 -48.070  49.797  0.00  0.00    +0.000 C 
ATOM     26  C   UNL     1      47.090 -46.877  51.989  0.00  0.00    +0.000 C 
BRANCH  24  27
ATOM     27  C   UNL     1      48.673 -46.864  50.150  0.00  0.00    +0.000 C 
ATOM     28  C   UNL     1      48.827 -45.577  49.530  0.00  0.00    +0.000 C 
ATOM     29  C   UNL     1      48.973 -44.414  48.966  0.00  0.00    +0.000 C 
ATOM     30  C   UNL     1      49.800 -43.413  49.746  0.00  0.00    +0.000 C 
BRANCH  27  31
ATOM     31  C   UNL     1      49.869 -47.682  50.287  0.00  0.00    +0.000 C 
ATOM     32  C   UNL     1      51.216 -47.159  49.827  0.00  0.00    +0.000 C 
ATOM     33  C   UNL     1      49.937 -48.729  51.383  0.00  0.00    +0.000 C 
ENDBRANCH  27  31
BRANCH  29  35
ATOM     34  O   UNL     1      48.873 -44.348  46.557  0.00  0.00    +0.000 OA
ATOM     35  C   UNL     1      48.348 -44.147  47.642  0.00  0.00    +0.000 C 
BRANCH  35  36
ATOM     36  O   UNL     1      47.099 -43.639  47.704  0.00  0.00    +0.000 OA
ATOM     37  H   UNL     1      46.849 -43.454  46.775  0.00  0.00    +0.000 HD
ENDBRANCH  35  36
ENDBRANCH  29  35
ENDBRANCH  24  27
ENDBRANCH   5  25
BRANCH   5  38
ATOM     38  C   UNL     1      44.204 -47.221  50.094  0.00  0.00    +0.000 C 
ATOM     39  C   UNL     1      42.958 -47.898  49.437  0.00  0.00    +0.000 C 
ATOM     40  C   UNL     1      43.775 -46.644  51.473  0.00  0.00    +0.000 C 
ATOM     41  C   UNL     1      44.726 -46.104  49.157  0.00  0.00    +0.000 C 
ENDBRANCH   5  38
TORSDOF 7
ENDMDL
MODEL 7
REMARK VINA RESULT:      -7.1      3.806      7.500
REMARK  Name = 10940649_MilnamideD.pdbqt.pdb
REMARK  7 active torsions:
REMARK  status: ('A' for Active; 'I' for Inactive)
REMARK    1  A    between atoms: C_3  and  C_8
REMARK    2  A    between atoms: C_22  and  C_25
REMARK    3  A    between atoms: C_22  and  C_38
REMARK    4  A    between atoms: N_24  and  C_27
REMARK    5  A    between atoms: C_27  and  C_28
REMARK    6  A    between atoms: C_32  and  C_35
REMARK    7  A    between atoms: C_35  and  O_36
REMARK                            x       y       z     vdW  Elec       q    Type
REMARK                         _______ _______ _______ _____ _____    ______ ____
ROOT
ATOM      1  O   UNL     1      46.692 -49.949  53.482  0.00  0.00    +0.000 OA
ATOM      2  N   UNL     1      45.333 -50.106  51.671  0.00  0.00    +0.000 N 
ATOM      3  C   UNL     1      46.308 -49.475  52.420  0.00  0.00    +0.000 C 
ATOM      4  H   UNL     1      44.967 -49.625  50.841  0.00  0.00    +0.000 HD
ATOM      5  C   UNL     1      44.731 -51.346  51.995  0.00  0.00    +0.000 C 
ENDROOT
BRANCH   3   9
ATOM      6  N   UNL     1      46.035 -46.975  51.872  0.00  0.00    +0.000 NA
ATOM      7  N   UNL     1      48.745 -44.784  50.071  0.00  0.00    +0.000 N 
ATOM      8  C   UNL     1      48.170 -48.343  51.038  0.00  0.00    +0.000 C 
ATOM      9  C   UNL     1      46.856 -48.197  51.860  0.00  0.00    +0.000 C 
ATOM     10  C   UNL     1      48.738 -46.988  50.508  0.00  0.00    +0.000 A 
ATOM     11  C   UNL     1      48.044 -45.801  50.621  0.00  0.00    +0.000 A 
ATOM     12  C   UNL     1      47.896 -49.168  49.745  0.00  0.00    +0.000 C 
ATOM     13  C   UNL     1      49.296 -48.912  51.949  0.00  0.00    +0.000 C 
ATOM     14  C   UNL     1      49.955 -46.646  49.816  0.00  0.00    +0.000 A 
ATOM     15  C   UNL     1      46.808 -45.925  51.263  0.00  0.00    +0.000 C 
ATOM     16  C   UNL     1      49.930 -45.260  49.561  0.00  0.00    +0.000 A 
ATOM     17  C   UNL     1      45.732 -46.559  53.233  0.00  0.00    +0.000 C 
ATOM     18  C   UNL     1      51.070 -47.388  49.380  0.00  0.00    +0.000 A 
ATOM     19  C   UNL     1      48.298 -43.434  50.020  0.00  0.00    +0.000 C 
ATOM     20  C   UNL     1      50.977 -44.604  48.896  0.00  0.00    +0.000 A 
ATOM     21  C   UNL     1      52.114 -46.742  48.718  0.00  0.00    +0.000 A 
ATOM     22  C   UNL     1      52.066 -45.374  48.484  0.00  0.00    +0.000 A 
ENDBRANCH   3   9
BRANCH   5  25
ATOM     23  O   UNL     1      44.697 -52.101  54.197  0.00  0.00    +0.000 OA
ATOM     24  N   UNL     1      46.352 -53.007  52.775  0.00  0.00    +0.000 N 
ATOM     25  C   UNL     1      45.266 -52.163  53.111  0.00  0.00    +0.000 C 
ATOM     26  C   UNL     1      47.024 -53.011  51.471  0.00  0.00    +0.000 C 
BRANCH  24  27
ATOM     27  C   UNL     1      46.846 -53.938  53.706  0.00  0.00    +0.000 C 
ATOM     28  C   UNL     1      48.236 -53.964  54.067  0.00  0.00    +0.000 C 
ATOM     29  C   UNL     1      49.494 -53.995  54.398  0.00  0.00    +0.000 C 
ATOM     30  C   UNL     1      49.802 -53.588  55.823  0.00  0.00    +0.000 C 
BRANCH  27  31
ATOM     31  C   UNL     1      45.971 -54.898  54.363  0.00  0.00    +0.000 C 
ATOM     32  C   UNL     1      45.480 -56.125  53.621  0.00  0.00    +0.000 C 
ATOM     33  C   UNL     1      46.029 -55.049  55.872  0.00  0.00    +0.000 C 
ENDBRANCH  27  31
BRANCH  29  35
ATOM     34  O   UNL     1      50.274 -54.833  52.274  0.00  0.00    +0.000 OA
ATOM     35  C   UNL     1      50.514 -54.414  53.398  0.00  0.00    +0.000 C 
BRANCH  35  36
ATOM     36  O   UNL     1      51.792 -54.303  53.819  0.00  0.00    +0.000 OA
ATOM     37  H   UNL     1      51.742 -53.816  54.667  0.00  0.00    +0.000 HD
ENDBRANCH  35  36
ENDBRANCH  29  35
ENDBRANCH  24  27
ENDBRANCH   5  25
BRANCH   5  38
ATOM     38  C   UNL     1      43.717 -52.054  51.112  0.00  0.00    +0.000 C 
ATOM     39  C   UNL     1      42.383 -51.249  51.226  0.00  0.00    +0.000 C 
ATOM     40  C   UNL     1      44.218 -51.960  49.642  0.00  0.00    +0.000 C 
ATOM     41  C   UNL     1      43.457 -53.524  51.521  0.00  0.00    +0.000 C 
ENDBRANCH   5  38
TORSDOF 7
ENDMDL
MODEL 8
REMARK VINA RESULT:      -7.1      5.423     10.201
REMARK  Name = 10940649_MilnamideD.pdbqt.pdb
REMARK  7 active torsions:
REMARK  status: ('A' for Active; 'I' for Inactive)
REMARK    1  A    between atoms: C_3  and  C_8
REMARK    2  A    between atoms: C_22  and  C_25
REMARK    3  A    between atoms: C_22  and  C_38
REMARK    4  A    between atoms: N_24  and  C_27
REMARK    5  A    between atoms: C_27  and  C_28
REMARK    6  A    between atoms: C_32  and  C_35
REMARK    7  A    between atoms: C_35  and  O_36
REMARK                            x       y       z     vdW  Elec       q    Type
REMARK                         _______ _______ _______ _____ _____    ______ ____
ROOT
ATOM      1  O   UNL     1      43.828 -50.968  51.774  0.00  0.00    +0.000 OA
ATOM      2  N   UNL     1      45.535 -49.482  51.588  0.00  0.00    +0.000 N 
ATOM      3  C   UNL     1      45.028 -50.738  51.861  0.00  0.00    +0.000 C 
ATOM      4  H   UNL     1      46.529 -49.304  51.772  0.00  0.00    +0.000 HD
ATOM      5  C   UNL     1      44.772 -48.377  51.138  0.00  0.00    +0.000 C 
ENDROOT
BRANCH   3   9
ATOM      6  N   UNL     1      46.498 -52.771  51.281  0.00  0.00    +0.000 NA
ATOM      7  N   UNL     1      48.777 -54.672  53.846  0.00  0.00    +0.000 N 
ATOM      8  C   UNL     1      46.258 -51.918  53.800  0.00  0.00    +0.000 C 
ATOM      9  C   UNL     1      46.023 -51.784  52.266  0.00  0.00    +0.000 C 
ATOM     10  C   UNL     1      47.332 -52.984  54.184  0.00  0.00    +0.000 A 
ATOM     11  C   UNL     1      47.891 -53.839  53.256  0.00  0.00    +0.000 A 
ATOM     12  C   UNL     1      44.958 -52.425  54.491  0.00  0.00    +0.000 C 
ATOM     13  C   UNL     1      46.816 -50.578  54.361  0.00  0.00    +0.000 C 
ATOM     14  C   UNL     1      47.931 -53.354  55.441  0.00  0.00    +0.000 A 
ATOM     15  C   UNL     1      47.421 -53.647  51.953  0.00  0.00    +0.000 C 
ATOM     16  C   UNL     1      48.833 -54.409  55.194  0.00  0.00    +0.000 A 
ATOM     17  C   UNL     1      47.222 -52.124  50.198  0.00  0.00    +0.000 C 
ATOM     18  C   UNL     1      47.786 -52.891  56.764  0.00  0.00    +0.000 A 
ATOM     19  C   UNL     1      49.516 -55.676  53.161  0.00  0.00    +0.000 C 
ATOM     20  C   UNL     1      49.586 -55.002  56.219  0.00  0.00    +0.000 A 
ATOM     21  C   UNL     1      48.532 -53.478  57.787  0.00  0.00    +0.000 A 
ATOM     22  C   UNL     1      49.417 -54.513  57.516  0.00  0.00    +0.000 A 
ENDBRANCH   3   9
BRANCH   5  25
ATOM     23  O   UNL     1      42.484 -48.205  51.532  0.00  0.00    +0.000 OA
ATOM     24  N   UNL     1      43.153 -49.069  49.437  0.00  0.00    +0.000 N 
ATOM     25  C   UNL     1      43.354 -48.562  50.743  0.00  0.00    +0.000 C 
ATOM     26  C   UNL     1      44.231 -49.522  48.549  0.00  0.00    +0.000 C 
BRANCH  24  27
ATOM     27  C   UNL     1      41.858 -49.145  48.893  0.00  0.00    +0.000 C 
ATOM     28  C   UNL     1      41.070 -47.963  48.681  0.00  0.00    +0.000 C 
ATOM     29  C   UNL     1      40.349 -46.898  48.487  0.00  0.00    +0.000 C 
ATOM     30  C   UNL     1      40.087 -46.545  47.038  0.00  0.00    +0.000 C 
BRANCH  27  31
ATOM     31  C   UNL     1      41.269 -50.417  48.499  0.00  0.00    +0.000 C 
ATOM     32  C   UNL     1      41.028 -51.505  49.527  0.00  0.00    +0.000 C 
ATOM     33  C   UNL     1      40.354 -50.472  47.290  0.00  0.00    +0.000 C 
ENDBRANCH  27  31
BRANCH  29  35
ATOM     34  O   UNL     1      38.746 -45.588  49.725  0.00  0.00    +0.000 OA
ATOM     35  C   UNL     1      39.844 -46.122  49.652  0.00  0.00    +0.000 C 
BRANCH  35  36
ATOM     36  O   UNL     1      40.710 -46.029  50.683  0.00  0.00    +0.000 OA
ATOM     37  H   UNL     1      40.596 -46.859  51.190  0.00  0.00    +0.000 HD
ENDBRANCH  35  36
ENDBRANCH  29  35
ENDBRANCH  24  27
ENDBRANCH   5  25
BRANCH   5  38
ATOM     38  C   UNL     1      45.368 -47.028  50.770  0.00  0.00    +0.000 C 
ATOM     39  C   UNL     1      45.611 -46.263  52.111  0.00  0.00    +0.000 C 
ATOM     40  C   UNL     1      46.748 -47.284  50.099  0.00  0.00    +0.000 C 
ATOM     41  C   UNL     1      44.454 -46.173  49.859  0.00  0.00    +0.000 C 
ENDBRANCH   5  38
TORSDOF 7
ENDMDL
MODEL 9
REMARK VINA RESULT:      -7.1      1.561      2.955
REMARK  Name = 10940649_MilnamideD.pdbqt.pdb
REMARK  7 active torsions:
REMARK  status: ('A' for Active; 'I' for Inactive)
REMARK    1  A    between atoms: C_3  and  C_8
REMARK    2  A    between atoms: C_22  and  C_25
REMARK    3  A    between atoms: C_22  and  C_38
REMARK    4  A    between atoms: N_24  and  C_27
REMARK    5  A    between atoms: C_27  and  C_28
REMARK    6  A    between atoms: C_32  and  C_35
REMARK    7  A    between atoms: C_35  and  O_36
REMARK                            x       y       z     vdW  Elec       q    Type
REMARK                         _______ _______ _______ _____ _____    ______ ____
ROOT
ATOM      1  O   UNL     1      46.300 -45.174  50.431  0.00  0.00    +0.000 OA
ATOM      2  N   UNL     1      48.504 -45.630  50.132  0.00  0.00    +0.000 N 
ATOM      3  C   UNL     1      47.433 -44.761  50.216  0.00  0.00    +0.000 C 
ATOM      4  H   UNL     1      49.417 -45.256  49.849  0.00  0.00    +0.000 HD
ATOM      5  C   UNL     1      48.433 -47.031  50.332  0.00  0.00    +0.000 C 
ENDROOT
BRANCH   3   9
ATOM      6  N   UNL     1      47.417 -42.342  51.097  0.00  0.00    +0.000 NA
ATOM      7  N   UNL     1      48.676 -39.229  49.070  0.00  0.00    +0.000 N 
ATOM      8  C   UNL     1      48.124 -42.887  48.581  0.00  0.00    +0.000 C 
ATOM      9  C   UNL     1      47.741 -43.305  50.032  0.00  0.00    +0.000 C 
ATOM     10  C   UNL     1      48.481 -41.375  48.432  0.00  0.00    +0.000 A 
ATOM     11  C   UNL     1      48.309 -40.469  49.460  0.00  0.00    +0.000 A 
ATOM     12  C   UNL     1      46.901 -43.081  47.635  0.00  0.00    +0.000 C 
ATOM     13  C   UNL     1      49.413 -43.641  48.144  0.00  0.00    +0.000 C 
ATOM     14  C   UNL     1      48.984 -40.596  47.329  0.00  0.00    +0.000 A 
ATOM     15  C   UNL     1      47.805 -41.035  50.635  0.00  0.00    +0.000 C 
ATOM     16  C   UNL     1      49.099 -39.260  47.762  0.00  0.00    +0.000 A 
ATOM     17  C   UNL     1      48.177 -42.620  52.305  0.00  0.00    +0.000 C 
ATOM     18  C   UNL     1      49.348 -40.906  46.003  0.00  0.00    +0.000 A 
ATOM     19  C   UNL     1      48.610 -38.073  49.897  0.00  0.00    +0.000 C 
ATOM     20  C   UNL     1      49.564 -38.240  46.918  0.00  0.00    +0.000 A 
ATOM     21  C   UNL     1      49.811 -39.895  45.160  0.00  0.00    +0.000 A 
ATOM     22  C   UNL     1      49.918 -38.587  45.613  0.00  0.00    +0.000 A 
ENDBRANCH   3   9
BRANCH   5  25
ATOM     23  O   UNL     1      47.025 -47.701  52.061  0.00  0.00    +0.000 OA
ATOM     24  N   UNL     1      46.258 -48.048  49.853  0.00  0.00    +0.000 N 
ATOM     25  C   UNL     1      47.186 -47.647  50.845  0.00  0.00    +0.000 C 
ATOM     26  C   UNL     1      46.518 -48.002  48.410  0.00  0.00    +0.000 C 
BRANCH  24  27
ATOM     27  C   UNL     1      44.979 -48.505  50.217  0.00  0.00    +0.000 C 
ATOM     28  C   UNL     1      44.736 -49.893  50.497  0.00  0.00    +0.000 C 
ATOM     29  C   UNL     1      44.509 -51.149  50.752  0.00  0.00    +0.000 C 
ATOM     30  C   UNL     1      44.174 -51.470  52.193  0.00  0.00    +0.000 C 
BRANCH  27  31
ATOM     31  C   UNL     1      43.851 -47.594  50.350  0.00  0.00    +0.000 C 
ATOM     32  C   UNL     1      42.627 -47.751  49.470  0.00  0.00    +0.000 C 
ATOM     33  C   UNL     1      43.592 -46.917  51.684  0.00  0.00    +0.000 C 
ENDBRANCH  27  31
BRANCH  29  35
ATOM     34  O   UNL     1      43.671 -52.879  49.295  0.00  0.00    +0.000 OA
ATOM     35  C   UNL     1      44.586 -52.153  49.656  0.00  0.00    +0.000 C 
BRANCH  35  36
ATOM     36  O   UNL     1      45.788 -52.228  49.047  0.00  0.00    +0.000 OA
ATOM     37  H   UNL     1      46.447 -52.117  49.763  0.00  0.00    +0.000 HD
ENDBRANCH  35  36
ENDBRANCH  29  35
ENDBRANCH  24  27
ENDBRANCH   5  25
BRANCH   5  38
ATOM     38  C   UNL     1      49.641 -47.953  50.309  0.00  0.00    +0.000 C 
ATOM     39  C   UNL     1      49.090 -49.414  50.258  0.00  0.00    +0.000 C 
ATOM     40  C   UNL     1      50.424 -47.681  48.993  0.00  0.00    +0.000 C 
ATOM     41  C   UNL     1      50.559 -47.802  51.547  0.00  0.00    +0.000 C 
ENDBRANCH   5  38
TORSDOF 7
ENDMDL
