MODEL 1
REMARK VINA RESULT:      -8.3      0.000      0.000
REMARK  Name = 11167602_Regorafenib.pdbqt.pdb
REMARK  6 active torsions:
REMARK  status: ('A' for Active; 'I' for Inactive)
REMARK    1  A    between atoms: C_2  and  N_10
REMARK    2  A    between atoms: C_3  and  O_25
REMARK    3  A    between atoms: N_9  and  C_15
REMARK    4  A    between atoms: C_16  and  C_24
REMARK    5  A    between atoms: O_25  and  C_27
REMARK    6  A    between atoms: C_29  and  C_34
REMARK                            x       y       z     vdW  Elec       q    Type
REMARK                         _______ _______ _______ _____ _____    ______ ____
ROOT
ATOM      1  F   UNL     1      47.866 -44.585  53.196  0.00  0.00    +0.000 F 
ATOM      2  C   UNL     1      48.279 -45.695  51.147  0.00  0.00    +0.000 A 
ATOM      3  C   UNL     1      47.753 -43.295  49.813  0.00  0.00    +0.000 A 
ATOM      4  C   UNL     1      47.936 -44.540  51.857  0.00  0.00    +0.000 A 
ATOM      5  C   UNL     1      48.334 -45.635  49.755  0.00  0.00    +0.000 A 
ATOM      6  C   UNL     1      47.659 -43.344  51.204  0.00  0.00    +0.000 A 
ATOM      7  C   UNL     1      48.059 -44.443  49.086  0.00  0.00    +0.000 A 
ENDROOT
BRANCH   2  10
ATOM      8  O   UNL     1      46.439 -47.792  51.955  0.00  0.00    +0.000 OA
ATOM      9  N   UNL     1      48.242 -48.881  52.909  0.00  0.00    +0.000 N 
ATOM     10  N   UNL     1      48.555 -46.871  51.875  0.00  0.00    +0.000 N 
ATOM     11  C   UNL     1      47.633 -47.844  52.221  0.00  0.00    +0.000 C 
ATOM     12  H   UNL     1      49.241 -48.834  53.047  0.00  0.00    +0.000 HD
ATOM     13  H   UNL     1      49.515 -46.986  52.171  0.00  0.00    +0.000 HD
BRANCH   9  15
ATOM     14 CL   UNL     1      45.591 -53.761  54.963  0.00  0.00    +0.000 Cl
ATOM     15  C   UNL     1      47.589 -50.022  53.413  0.00  0.00    +0.000 A 
ATOM     16  C   UNL     1      47.523 -52.457  53.530  0.00  0.00    +0.000 A 
ATOM     17  C   UNL     1      48.109 -51.271  53.073  0.00  0.00    +0.000 A 
ATOM     18  C   UNL     1      46.462 -49.957  54.226  0.00  0.00    +0.000 A 
ATOM     19  C   UNL     1      46.393 -52.370  54.344  0.00  0.00    +0.000 A 
ATOM     20  C   UNL     1      45.865 -51.126  54.689  0.00  0.00    +0.000 A 
BRANCH  16  24
ATOM     21  F   UNL     1      47.313 -54.510  52.335  0.00  0.00    +0.000 F 
ATOM     22  F   UNL     1      49.285 -53.617  52.421  0.00  0.00    +0.000 F 
ATOM     23  F   UNL     1      48.429 -54.561  54.191  0.00  0.00    +0.000 F 
ATOM     24  C   UNL     1      48.133 -53.764  53.129  0.00  0.00    +0.000 C 
ENDBRANCH  16  24
ENDBRANCH   9  15
ENDBRANCH   2  10
BRANCH   3  25
ATOM     25  O   UNL     1      47.421 -42.168  49.098  0.00  0.00    +0.000 OA
BRANCH  25  27
ATOM     26  N   UNL     1      49.598 -38.740  50.057  0.00  0.00    +0.000 NA
ATOM     27  C   UNL     1      48.072 -40.995  49.408  0.00  0.00    +0.000 A 
ATOM     28  C   UNL     1      47.536 -40.020  50.243  0.00  0.00    +0.000 A 
ATOM     29  C   UNL     1      48.330 -38.919  50.523  0.00  0.00    +0.000 A 
ATOM     30  C   UNL     1      49.371 -40.868  48.926  0.00  0.00    +0.000 A 
ATOM     31  C   UNL     1      50.082 -39.729  49.271  0.00  0.00    +0.000 A 
BRANCH  29  34
ATOM     32  O   UNL     1      46.639 -37.434  51.228  0.00  0.00    +0.000 OA
ATOM     33  N   UNL     1      48.712 -37.381  52.309  0.00  0.00    +0.000 N 
ATOM     34  C   UNL     1      47.788 -37.835  51.383  0.00  0.00    +0.000 C 
ATOM     35  C   UNL     1      48.627 -36.362  53.319  0.00  0.00    +0.000 C 
ATOM     36  H   UNL     1      49.616 -37.850  52.265  0.00  0.00    +0.000 HD
ENDBRANCH  29  34
ENDBRANCH  25  27
ENDBRANCH   3  25
TORSDOF 6
ENDMDL
MODEL 2
REMARK VINA RESULT:      -8.3      5.499     11.309
REMARK  Name = 11167602_Regorafenib.pdbqt.pdb
REMARK  6 active torsions:
REMARK  status: ('A' for Active; 'I' for Inactive)
REMARK    1  A    between atoms: C_2  and  N_10
REMARK    2  A    between atoms: C_3  and  O_25
REMARK    3  A    between atoms: N_9  and  C_15
REMARK    4  A    between atoms: C_16  and  C_24
REMARK    5  A    between atoms: O_25  and  C_27
REMARK    6  A    between atoms: C_29  and  C_34
REMARK                            x       y       z     vdW  Elec       q    Type
REMARK                         _______ _______ _______ _____ _____    ______ ____
ROOT
ATOM      1  F   UNL     1      48.787 -45.722  48.891  0.00  0.00    +0.000 F 
ATOM      2  C   UNL     1      48.332 -44.692  50.972  0.00  0.00    +0.000 A 
ATOM      3  C   UNL     1      46.833 -46.940  51.688  0.00  0.00    +0.000 A 
ATOM      4  C   UNL     1      48.190 -45.768  50.092  0.00  0.00    +0.000 A 
ATOM      5  C   UNL     1      47.694 -44.749  52.210  0.00  0.00    +0.000 A 
ATOM      6  C   UNL     1      47.436 -46.887  50.431  0.00  0.00    +0.000 A 
ATOM      7  C   UNL     1      46.935 -45.863  52.565  0.00  0.00    +0.000 A 
ENDROOT
BRANCH   2  10
ATOM      8  O   UNL     1      47.453 -42.125  49.935  0.00  0.00    +0.000 OA
ATOM      9  N   UNL     1      49.680 -41.515  49.807  0.00  0.00    +0.000 N 
ATOM     10  N   UNL     1      49.120 -43.594  50.566  0.00  0.00    +0.000 N 
ATOM     11  C   UNL     1      48.639 -42.386  50.089  0.00  0.00    +0.000 C 
ATOM     12  H   UNL     1      50.620 -41.826  50.000  0.00  0.00    +0.000 HD
ATOM     13  H   UNL     1      50.120 -43.728  50.623  0.00  0.00    +0.000 HD
BRANCH   9  15
ATOM     14 CL   UNL     1      49.035 -35.985  47.791  0.00  0.00    +0.000 Cl
ATOM     15  C   UNL     1      49.538 -40.211  49.298  0.00  0.00    +0.000 A 
ATOM     16  C   UNL     1      48.853 -37.910  49.729  0.00  0.00    +0.000 A 
ATOM     17  C   UNL     1      49.027 -39.233  50.151  0.00  0.00    +0.000 A 
ATOM     18  C   UNL     1      49.884 -39.860  47.997  0.00  0.00    +0.000 A 
ATOM     19  C   UNL     1      49.205 -37.579  48.419  0.00  0.00    +0.000 A 
ATOM     20  C   UNL     1      49.717 -38.550  47.558  0.00  0.00    +0.000 A 
BRANCH  16  24
ATOM     21  F   UNL     1      49.185 -35.915  50.993  0.00  0.00    +0.000 F 
ATOM     22  F   UNL     1      47.190 -36.277  50.228  0.00  0.00    +0.000 F 
ATOM     23  F   UNL     1      47.959 -37.459  51.892  0.00  0.00    +0.000 F 
ATOM     24  C   UNL     1      48.301 -36.910  50.695  0.00  0.00    +0.000 C 
ENDBRANCH  16  24
ENDBRANCH   9  15
ENDBRANCH   2  10
BRANCH   3  25
ATOM     25  O   UNL     1      46.013 -47.979  52.060  0.00  0.00    +0.000 OA
BRANCH  25  27
ATOM     26  N   UNL     1      42.649 -48.702  49.699  0.00  0.00    +0.000 NA
ATOM     27  C   UNL     1      44.859 -48.179  51.335  0.00  0.00    +0.000 A 
ATOM     28  C   UNL     1      43.881 -47.204  51.170  0.00  0.00    +0.000 A 
ATOM     29  C   UNL     1      42.803 -47.518  50.358  0.00  0.00    +0.000 A 
ATOM     30  C   UNL     1      44.758 -49.394  50.665  0.00  0.00    +0.000 A 
ATOM     31  C   UNL     1      43.641 -49.605  49.873  0.00  0.00    +0.000 A 
BRANCH  29  34
ATOM     32  O   UNL     1      41.544 -45.633  51.006  0.00  0.00    +0.000 OA
ATOM     33  N   UNL     1      40.984 -46.739  49.023  0.00  0.00    +0.000 N 
ATOM     34  C   UNL     1      41.716 -46.522  50.178  0.00  0.00    +0.000 C 
ATOM     35  C   UNL     1      39.861 -46.039  48.461  0.00  0.00    +0.000 C 
ATOM     36  H   UNL     1      41.294 -47.540  48.474  0.00  0.00    +0.000 HD
ENDBRANCH  29  34
ENDBRANCH  25  27
ENDBRANCH   3  25
TORSDOF 6
ENDMDL
MODEL 3
REMARK VINA RESULT:      -8.3      1.906      2.419
REMARK  Name = 11167602_Regorafenib.pdbqt.pdb
REMARK  6 active torsions:
REMARK  status: ('A' for Active; 'I' for Inactive)
REMARK    1  A    between atoms: C_2  and  N_10
REMARK    2  A    between atoms: C_3  and  O_25
REMARK    3  A    between atoms: N_9  and  C_15
REMARK    4  A    between atoms: C_16  and  C_24
REMARK    5  A    between atoms: O_25  and  C_27
REMARK    6  A    between atoms: C_29  and  C_34
REMARK                            x       y       z     vdW  Elec       q    Type
REMARK                         _______ _______ _______ _____ _____    ______ ____
ROOT
ATOM      1  F   UNL     1      48.827 -45.725  49.125  0.00  0.00    +0.000 F 
ATOM      2  C   UNL     1      48.327 -44.896  51.284  0.00  0.00    +0.000 A 
ATOM      3  C   UNL     1      47.547 -42.483  50.109  0.00  0.00    +0.000 A 
ATOM      4  C   UNL     1      48.391 -44.720  49.899  0.00  0.00    +0.000 A 
ATOM      5  C   UNL     1      47.885 -43.837  52.076  0.00  0.00    +0.000 A 
ATOM      6  C   UNL     1      48.019 -43.519  49.304  0.00  0.00    +0.000 A 
ATOM      7  C   UNL     1      47.508 -42.628  51.494  0.00  0.00    +0.000 A 
ENDROOT
BRANCH   2  10
ATOM      8  O   UNL     1      46.904 -47.426  51.166  0.00  0.00    +0.000 OA
ATOM      9  N   UNL     1      48.667 -48.369  52.328  0.00  0.00    +0.000 N 
ATOM     10  N   UNL     1      48.711 -46.144  51.818  0.00  0.00    +0.000 N 
ATOM     11  C   UNL     1      47.991 -47.323  51.718  0.00  0.00    +0.000 C 
ATOM     12  H   UNL     1      49.573 -48.176  52.728  0.00  0.00    +0.000 HD
ATOM     13  H   UNL     1      49.585 -46.152  52.326  0.00  0.00    +0.000 HD
BRANCH   9  15
ATOM     14 CL   UNL     1      46.660 -53.919  52.804  0.00  0.00    +0.000 Cl
ATOM     15  C   UNL     1      48.209 -49.697  52.415  0.00  0.00    +0.000 A 
ATOM     16  C   UNL     1      46.801 -51.303  53.594  0.00  0.00    +0.000 A 
ATOM     17  C   UNL     1      47.309 -50.008  53.434  0.00  0.00    +0.000 A 
ATOM     18  C   UNL     1      48.610 -50.699  51.537  0.00  0.00    +0.000 A 
ATOM     19  C   UNL     1      47.217 -52.294  52.703  0.00  0.00    +0.000 A 
ATOM     20  C   UNL     1      48.117 -51.992  51.681  0.00  0.00    +0.000 A 
BRANCH  16  24
ATOM     21  F   UNL     1      44.671 -52.128  54.277  0.00  0.00    +0.000 F 
ATOM     22  F   UNL     1      46.329 -52.428  55.640  0.00  0.00    +0.000 F 
ATOM     23  F   UNL     1      45.472 -50.440  55.375  0.00  0.00    +0.000 F 
ATOM     24  C   UNL     1      45.838 -51.568  54.707  0.00  0.00    +0.000 C 
ENDBRANCH  16  24
ENDBRANCH   9  15
ENDBRANCH   2  10
BRANCH   3  25
ATOM     25  O   UNL     1      47.234 -41.245  49.598  0.00  0.00    +0.000 OA
BRANCH  25  27
ATOM     26  N   UNL     1      50.200 -38.346  50.046  0.00  0.00    +0.000 NA
ATOM     27  C   UNL     1      48.155 -40.234  49.752  0.00  0.00    +0.000 A 
ATOM     28  C   UNL     1      48.005 -39.194  50.664  0.00  0.00    +0.000 A 
ATOM     29  C   UNL     1      49.042 -38.282  50.762  0.00  0.00    +0.000 A 
ATOM     30  C   UNL     1      49.329 -40.355  49.015  0.00  0.00    +0.000 A 
ATOM     31  C   UNL     1      50.308 -39.390  49.193  0.00  0.00    +0.000 A 
BRANCH  29  34
ATOM     32  O   UNL     1      49.877 -36.759  52.357  0.00  0.00    +0.000 OA
ATOM     33  N   UNL     1      47.635 -36.602  51.712  0.00  0.00    +0.000 N 
ATOM     34  C   UNL     1      48.913 -37.135  51.698  0.00  0.00    +0.000 C 
ATOM     35  C   UNL     1      47.065 -35.511  52.454  0.00  0.00    +0.000 C 
ATOM     36  H   UNL     1      46.979 -37.070  51.088  0.00  0.00    +0.000 HD
ENDBRANCH  29  34
ENDBRANCH  25  27
ENDBRANCH   3  25
TORSDOF 6
ENDMDL
MODEL 4
REMARK VINA RESULT:      -8.2      5.121     12.005
REMARK  Name = 11167602_Regorafenib.pdbqt.pdb
REMARK  6 active torsions:
REMARK  status: ('A' for Active; 'I' for Inactive)
REMARK    1  A    between atoms: C_2  and  N_10
REMARK    2  A    between atoms: C_3  and  O_25
REMARK    3  A    between atoms: N_9  and  C_15
REMARK    4  A    between atoms: C_16  and  C_24
REMARK    5  A    between atoms: O_25  and  C_27
REMARK    6  A    between atoms: C_29  and  C_34
REMARK                            x       y       z     vdW  Elec       q    Type
REMARK                         _______ _______ _______ _____ _____    ______ ____
ROOT
ATOM      1  F   UNL     1      47.244 -44.799  48.770  0.00  0.00    +0.000 F 
ATOM      2  C   UNL     1      47.919 -44.412  51.005  0.00  0.00    +0.000 A 
ATOM      3  C   UNL     1      46.211 -46.473  51.812  0.00  0.00    +0.000 A 
ATOM      4  C   UNL     1      47.152 -45.115  50.071  0.00  0.00    +0.000 A 
ATOM      5  C   UNL     1      47.802 -44.743  52.354  0.00  0.00    +0.000 A 
ATOM      6  C   UNL     1      46.289 -46.133  50.462  0.00  0.00    +0.000 A 
ATOM      7  C   UNL     1      46.941 -45.762  52.762  0.00  0.00    +0.000 A 
ENDROOT
BRANCH   2  10
ATOM      8  O   UNL     1      47.241 -41.721  50.149  0.00  0.00    +0.000 OA
ATOM      9  N   UNL     1      49.495 -41.369  49.772  0.00  0.00    +0.000 N 
ATOM     10  N   UNL     1      48.780 -43.398  50.537  0.00  0.00    +0.000 N 
ATOM     11  C   UNL     1      48.396 -42.124  50.153  0.00  0.00    +0.000 C 
ATOM     12  H   UNL     1      50.407 -41.795  49.843  0.00  0.00    +0.000 HD
ATOM     13  H   UNL     1      49.757 -43.650  50.471  0.00  0.00    +0.000 HD
BRANCH   9  15
ATOM     14 CL   UNL     1      49.260 -35.729  47.986  0.00  0.00    +0.000 Cl
ATOM     15  C   UNL     1      49.453 -40.038  49.319  0.00  0.00    +0.000 A 
ATOM     16  C   UNL     1      48.819 -37.732  49.798  0.00  0.00    +0.000 A 
ATOM     17  C   UNL     1      48.900 -39.079  50.168  0.00  0.00    +0.000 A 
ATOM     18  C   UNL     1      49.935 -39.642  48.075  0.00  0.00    +0.000 A 
ATOM     19  C   UNL     1      49.308 -37.356  48.546  0.00  0.00    +0.000 A 
ATOM     20  C   UNL     1      49.862 -38.307  47.689  0.00  0.00    +0.000 A 
BRANCH  16  24
ATOM     21  F   UNL     1      47.769 -37.344  51.904  0.00  0.00    +0.000 F 
ATOM     22  F   UNL     1      49.093 -35.797  51.163  0.00  0.00    +0.000 F 
ATOM     23  F   UNL     1      47.138 -36.101  50.245  0.00  0.00    +0.000 F 
ATOM     24  C   UNL     1      48.216 -36.755  50.758  0.00  0.00    +0.000 C 
ENDBRANCH  16  24
ENDBRANCH   9  15
ENDBRANCH   2  10
BRANCH   3  25
ATOM     25  O   UNL     1      45.325 -47.416  52.278  0.00  0.00    +0.000 OA
BRANCH  25  27
ATOM     26  N   UNL     1      45.836 -51.456  51.371  0.00  0.00    +0.000 NA
ATOM     27  C   UNL     1      45.572 -48.736  51.973  0.00  0.00    +0.000 A 
ATOM     28  C   UNL     1      46.647 -49.452  52.488  0.00  0.00    +0.000 A 
ATOM     29  C   UNL     1      46.736 -50.793  52.151  0.00  0.00    +0.000 A 
ATOM     30  C   UNL     1      44.614 -49.375  51.191  0.00  0.00    +0.000 A 
ATOM     31  C   UNL     1      44.795 -50.721  50.917  0.00  0.00    +0.000 A 
BRANCH  29  34
ATOM     32  O   UNL     1      49.001 -51.447  52.162  0.00  0.00    +0.000 OA
ATOM     33  N   UNL     1      47.526 -52.459  53.667  0.00  0.00    +0.000 N 
ATOM     34  C   UNL     1      47.885 -51.592  52.650  0.00  0.00    +0.000 C 
ATOM     35  C   UNL     1      48.295 -53.406  54.427  0.00  0.00    +0.000 C 
ATOM     36  H   UNL     1      46.539 -52.424  53.920  0.00  0.00    +0.000 HD
ENDBRANCH  29  34
ENDBRANCH  25  27
ENDBRANCH   3  25
TORSDOF 6
ENDMDL
MODEL 5
REMARK VINA RESULT:      -7.9      2.166      2.866
REMARK  Name = 11167602_Regorafenib.pdbqt.pdb
REMARK  6 active torsions:
REMARK  status: ('A' for Active; 'I' for Inactive)
REMARK    1  A    between atoms: C_2  and  N_10
REMARK    2  A    between atoms: C_3  and  O_25
REMARK    3  A    between atoms: N_9  and  C_15
REMARK    4  A    between atoms: C_16  and  C_24
REMARK    5  A    between atoms: O_25  and  C_27
REMARK    6  A    between atoms: C_29  and  C_34
REMARK                            x       y       z     vdW  Elec       q    Type
REMARK                         _______ _______ _______ _____ _____    ______ ____
ROOT
ATOM      1  F   UNL     1      49.422 -47.226  52.350  0.00  0.00    +0.000 F 
ATOM      2  C   UNL     1      47.097 -47.385  51.933  0.00  0.00    +0.000 A 
ATOM      3  C   UNL     1      47.038 -44.615  51.563  0.00  0.00    +0.000 A 
ATOM      4  C   UNL     1      48.261 -46.620  52.057  0.00  0.00    +0.000 A 
ATOM      5  C   UNL     1      45.897 -46.738  51.641  0.00  0.00    +0.000 A 
ATOM      6  C   UNL     1      48.242 -45.239  51.889  0.00  0.00    +0.000 A 
ATOM      7  C   UNL     1      45.862 -45.355  51.469  0.00  0.00    +0.000 A 
ENDROOT
BRANCH   2  10
ATOM      8  O   UNL     1      46.398 -48.964  54.268  0.00  0.00    +0.000 OA
ATOM      9  N   UNL     1      47.024 -50.842  53.074  0.00  0.00    +0.000 N 
ATOM     10  N   UNL     1      47.193 -48.781  52.107  0.00  0.00    +0.000 N 
ATOM     11  C   UNL     1      46.830 -49.480  53.246  0.00  0.00    +0.000 C 
ATOM     12  H   UNL     1      47.359 -51.161  52.177  0.00  0.00    +0.000 HD
ATOM     13  H   UNL     1      47.575 -49.295  51.325  0.00  0.00    +0.000 HD
BRANCH   9  15
ATOM     14 CL   UNL     1      46.074 -55.007  57.174  0.00  0.00    +0.000 Cl
ATOM     15  C   UNL     1      46.766 -51.832  54.040  0.00  0.00    +0.000 A 
ATOM     16  C   UNL     1      47.676 -53.283  55.778  0.00  0.00    +0.000 A 
ATOM     17  C   UNL     1      47.842 -52.300  54.795  0.00  0.00    +0.000 A 
ATOM     18  C   UNL     1      45.499 -52.357  54.272  0.00  0.00    +0.000 A 
ATOM     19  C   UNL     1      46.396 -53.797  55.993  0.00  0.00    +0.000 A 
ATOM     20  C   UNL     1      45.314 -53.336  55.244  0.00  0.00    +0.000 A 
BRANCH  16  24
ATOM     21  F   UNL     1      49.041 -55.092  56.520  0.00  0.00    +0.000 F 
ATOM     22  F   UNL     1      50.038 -53.218  56.083  0.00  0.00    +0.000 F 
ATOM     23  F   UNL     1      48.806 -53.415  57.872  0.00  0.00    +0.000 F 
ATOM     24  C   UNL     1      48.872 -53.738  56.552  0.00  0.00    +0.000 C 
ENDBRANCH  16  24
ENDBRANCH   9  15
ENDBRANCH   2  10
BRANCH   3  25
ATOM     25  O   UNL     1      46.930 -43.248  51.457  0.00  0.00    +0.000 OA
BRANCH  25  27
ATOM     26  N   UNL     1      49.374 -41.536  48.540  0.00  0.00    +0.000 NA
ATOM     27  C   UNL     1      47.697 -42.615  50.504  0.00  0.00    +0.000 A 
ATOM     28  C   UNL     1      48.168 -41.313  50.642  0.00  0.00    +0.000 A 
ATOM     29  C   UNL     1      48.986 -40.825  49.636  0.00  0.00    +0.000 A 
ATOM     30  C   UNL     1      48.085 -43.388  49.415  0.00  0.00    +0.000 A 
ATOM     31  C   UNL     1      48.911 -42.805  48.467  0.00  0.00    +0.000 A 
BRANCH  29  34
ATOM     32  O   UNL     1      50.691 -39.199  49.722  0.00  0.00    +0.000 OA
ATOM     33  N   UNL     1      48.461 -38.501  49.800  0.00  0.00    +0.000 N 
ATOM     34  C   UNL     1      49.486 -39.429  49.722  0.00  0.00    +0.000 C 
ATOM     35  C   UNL     1      48.479 -37.067  49.900  0.00  0.00    +0.000 C 
ATOM     36  H   UNL     1      47.526 -38.907  49.789  0.00  0.00    +0.000 HD
ENDBRANCH  29  34
ENDBRANCH  25  27
ENDBRANCH   3  25
TORSDOF 6
ENDMDL
MODEL 6
REMARK VINA RESULT:      -7.8      8.094     14.640
REMARK  Name = 11167602_Regorafenib.pdbqt.pdb
REMARK  6 active torsions:
REMARK  status: ('A' for Active; 'I' for Inactive)
REMARK    1  A    between atoms: C_2  and  N_10
REMARK    2  A    between atoms: C_3  and  O_25
REMARK    3  A    between atoms: N_9  and  C_15
REMARK    4  A    between atoms: C_16  and  C_24
REMARK    5  A    between atoms: O_25  and  C_27
REMARK    6  A    between atoms: C_29  and  C_34
REMARK                            x       y       z     vdW  Elec       q    Type
REMARK                         _______ _______ _______ _____ _____    ______ ____
ROOT
ATOM      1  F   UNL     1      48.711 -39.529  46.399  0.00  0.00    +0.000 F 
ATOM      2  C   UNL     1      49.589 -38.608  48.394  0.00  0.00    +0.000 A 
ATOM      3  C   UNL     1      48.440 -40.728  49.807  0.00  0.00    +0.000 A 
ATOM      4  C   UNL     1      48.857 -39.597  47.732  0.00  0.00    +0.000 A 
ATOM      5  C   UNL     1      49.720 -38.685  49.780  0.00  0.00    +0.000 A 
ATOM      6  C   UNL     1      48.269 -40.650  48.425  0.00  0.00    +0.000 A 
ATOM      7  C   UNL     1      49.137 -39.734  50.489  0.00  0.00    +0.000 A 
ENDROOT
BRANCH   2  10
ATOM      8  O   UNL     1      48.572 -35.929  47.919  0.00  0.00    +0.000 OA
ATOM      9  N   UNL     1      50.469 -35.529  46.659  0.00  0.00    +0.000 N 
ATOM     10  N   UNL     1      50.166 -37.574  47.626  0.00  0.00    +0.000 N 
ATOM     11  C   UNL     1      49.635 -36.308  47.447  0.00  0.00    +0.000 C 
ATOM     12  H   UNL     1      51.339 -35.936  46.347  0.00  0.00    +0.000 HD
ATOM     13  H   UNL     1      51.035 -37.805  47.165  0.00  0.00    +0.000 HD
BRANCH   9  15
ATOM     14 CL   UNL     1      49.556 -29.891  45.098  0.00  0.00    +0.000 Cl
ATOM     15  C   UNL     1      50.221 -34.198  46.276  0.00  0.00    +0.000 A 
ATOM     16  C   UNL     1      51.049 -31.904  46.197  0.00  0.00    +0.000 A 
ATOM     17  C   UNL     1      51.210 -33.251  46.543  0.00  0.00    +0.000 A 
ATOM     18  C   UNL     1      49.048 -33.791  45.650  0.00  0.00    +0.000 A 
ATOM     19  C   UNL     1      49.863 -31.518  45.569  0.00  0.00    +0.000 A 
ATOM     20  C   UNL     1      48.868 -32.457  45.298  0.00  0.00    +0.000 A 
BRANCH  16  24
ATOM     21  F   UNL     1      52.559 -30.229  45.421  0.00  0.00    +0.000 F 
ATOM     22  F   UNL     1      51.792 -30.010  47.436  0.00  0.00    +0.000 F 
ATOM     23  F   UNL     1      53.270 -31.549  46.985  0.00  0.00    +0.000 F 
ATOM     24  C   UNL     1      52.149 -30.941  46.511  0.00  0.00    +0.000 C 
ENDBRANCH  16  24
ENDBRANCH   9  15
ENDBRANCH   2  10
BRANCH   3  25
ATOM     25  O   UNL     1      47.825 -41.698  50.564  0.00  0.00    +0.000 OA
BRANCH  25  27
ATOM     26  N   UNL     1      49.053 -45.678  50.331  0.00  0.00    +0.000 NA
ATOM     27  C   UNL     1      48.249 -42.999  50.411  0.00  0.00    +0.000 A 
ATOM     28  C   UNL     1      49.386 -43.353  49.692  0.00  0.00    +0.000 A 
ATOM     29  C   UNL     1      49.733 -44.694  49.677  0.00  0.00    +0.000 A 
ATOM     30  C   UNL     1      47.534 -43.964  51.114  0.00  0.00    +0.000 A 
ATOM     31  C   UNL     1      47.971 -45.277  51.036  0.00  0.00    +0.000 A 
BRANCH  29  34
ATOM     32  O   UNL     1      51.829 -45.748  49.438  0.00  0.00    +0.000 OA
ATOM     33  N   UNL     1      50.849 -44.745  47.567  0.00  0.00    +0.000 N 
ATOM     34  C   UNL     1      50.921 -45.126  48.896  0.00  0.00    +0.000 C 
ATOM     35  C   UNL     1      51.756 -44.940  46.469  0.00  0.00    +0.000 C 
ATOM     36  H   UNL     1      50.005 -44.229  47.323  0.00  0.00    +0.000 HD
ENDBRANCH  29  34
ENDBRANCH  25  27
ENDBRANCH   3  25
TORSDOF 6
ENDMDL
MODEL 7
REMARK VINA RESULT:      -7.8     19.144     21.396
REMARK  Name = 11167602_Regorafenib.pdbqt.pdb
REMARK  6 active torsions:
REMARK  status: ('A' for Active; 'I' for Inactive)
REMARK    1  A    between atoms: C_2  and  N_10
REMARK    2  A    between atoms: C_3  and  O_25
REMARK    3  A    between atoms: N_9  and  C_15
REMARK    4  A    between atoms: C_16  and  C_24
REMARK    5  A    between atoms: O_25  and  C_27
REMARK    6  A    between atoms: C_29  and  C_34
REMARK                            x       y       z     vdW  Elec       q    Type
REMARK                         _______ _______ _______ _____ _____    ______ ____
ROOT
ATOM      1  F   UNL     1      32.914 -30.326  53.567  0.00  0.00    +0.000 F 
ATOM      2  C   UNL     1      31.807 -30.374  55.658  0.00  0.00    +0.000 A 
ATOM      3  C   UNL     1      33.839 -28.762  56.701  0.00  0.00    +0.000 A 
ATOM      4  C   UNL     1      32.872 -29.954  54.856  0.00  0.00    +0.000 A 
ATOM      5  C   UNL     1      31.785 -29.991  56.998  0.00  0.00    +0.000 A 
ATOM      6  C   UNL     1      33.896 -29.164  55.367  0.00  0.00    +0.000 A 
ATOM      7  C   UNL     1      32.804 -29.198  57.525  0.00  0.00    +0.000 A 
ENDROOT
BRANCH   2  10
ATOM      8  O   UNL     1      31.807 -33.241  55.194  0.00  0.00    +0.000 OA
ATOM      9  N   UNL     1      29.684 -33.007  54.309  0.00  0.00    +0.000 N 
ATOM     10  N   UNL     1      30.799 -31.167  55.071  0.00  0.00    +0.000 N 
ATOM     11  C   UNL     1      30.853 -32.539  54.888  0.00  0.00    +0.000 C 
ATOM     12  H   UNL     1      28.948 -32.340  54.124  0.00  0.00    +0.000 HD
ATOM     13  H   UNL     1      29.980 -30.667  54.752  0.00  0.00    +0.000 HD
BRANCH   9  15
ATOM     14 CL   UNL     1      28.541 -38.680  53.057  0.00  0.00    +0.000 Cl
ATOM     15  C   UNL     1      29.417 -34.349  53.979  0.00  0.00    +0.000 A 
ATOM     16  C   UNL     1      28.864 -36.583  54.786  0.00  0.00    +0.000 A 
ATOM     17  C   UNL     1      29.141 -35.232  55.023  0.00  0.00    +0.000 A 
ATOM     18  C   UNL     1      29.414 -34.825  52.672  0.00  0.00    +0.000 A 
ATOM     19  C   UNL     1      28.868 -37.041  53.467  0.00  0.00    +0.000 A 
ATOM     20  C   UNL     1      29.142 -36.165  52.416  0.00  0.00    +0.000 A 
BRANCH  16  24
ATOM     21  F   UNL     1      29.429 -38.537  56.031  0.00  0.00    +0.000 F 
ATOM     22  F   UNL     1      28.681 -36.838  57.148  0.00  0.00    +0.000 F 
ATOM     23  F   UNL     1      27.329 -38.019  55.910  0.00  0.00    +0.000 F 
ATOM     24  C   UNL     1      28.576 -37.476  55.951  0.00  0.00    +0.000 C 
ENDBRANCH  16  24
ENDBRANCH   9  15
ENDBRANCH   2  10
BRANCH   3  25
ATOM     25  O   UNL     1      34.852 -28.044  57.291  0.00  0.00    +0.000 OA
BRANCH  25  27
ATOM     26  N   UNL     1      37.979 -26.925  54.766  0.00  0.00    +0.000 NA
ATOM     27  C   UNL     1      35.935 -27.702  56.513  0.00  0.00    +0.000 A 
ATOM     28  C   UNL     1      37.065 -28.502  56.378  0.00  0.00    +0.000 A 
ATOM     29  C   UNL     1      38.051 -28.066  55.509  0.00  0.00    +0.000 A 
ATOM     30  C   UNL     1      35.806 -26.540  55.758  0.00  0.00    +0.000 A 
ATOM     31  C   UNL     1      36.849 -26.197  54.913  0.00  0.00    +0.000 A 
BRANCH  29  34
ATOM     32  O   UNL     1      39.437 -29.913  55.986  0.00  0.00    +0.000 OA
ATOM     33  N   UNL     1      40.187 -28.300  54.468  0.00  0.00    +0.000 N 
ATOM     34  C   UNL     1      39.291 -28.870  55.357  0.00  0.00    +0.000 C 
ATOM     35  C   UNL     1      41.490 -28.720  54.027  0.00  0.00    +0.000 C 
ATOM     36  H   UNL     1      39.869 -27.424  54.055  0.00  0.00    +0.000 HD
ENDBRANCH  29  34
ENDBRANCH  25  27
ENDBRANCH   3  25
TORSDOF 6
ENDMDL
MODEL 8
REMARK VINA RESULT:      -7.8      3.204      4.513
REMARK  Name = 11167602_Regorafenib.pdbqt.pdb
REMARK  6 active torsions:
REMARK  status: ('A' for Active; 'I' for Inactive)
REMARK    1  A    between atoms: C_2  and  N_10
REMARK    2  A    between atoms: C_3  and  O_25
REMARK    3  A    between atoms: N_9  and  C_15
REMARK    4  A    between atoms: C_16  and  C_24
REMARK    5  A    between atoms: O_25  and  C_27
REMARK    6  A    between atoms: C_29  and  C_34
REMARK                            x       y       z     vdW  Elec       q    Type
REMARK                         _______ _______ _______ _____ _____    ______ ____
ROOT
ATOM      1  F   UNL     1      46.583 -48.533  50.586  0.00  0.00    +0.000 F 
ATOM      2  C   UNL     1      48.517 -48.417  51.945  0.00  0.00    +0.000 A 
ATOM      3  C   UNL     1      49.906 -47.343  49.771  0.00  0.00    +0.000 A 
ATOM      4  C   UNL     1      47.880 -48.214  50.718  0.00  0.00    +0.000 A 
ATOM      5  C   UNL     1      49.868 -48.094  52.062  0.00  0.00    +0.000 A 
ATOM      6  C   UNL     1      48.564 -47.693  49.624  0.00  0.00    +0.000 A 
ATOM      7  C   UNL     1      50.567 -47.570  50.976  0.00  0.00    +0.000 A 
ENDROOT
BRANCH   2  10
ATOM      8  O   UNL     1      47.905 -51.195  52.534  0.00  0.00    +0.000 OA
ATOM      9  N   UNL     1      46.757 -50.453  54.399  0.00  0.00    +0.000 N 
ATOM     10  N   UNL     1      47.759 -48.940  53.014  0.00  0.00    +0.000 N 
ATOM     11  C   UNL     1      47.511 -50.283  53.249  0.00  0.00    +0.000 C 
ATOM     12  H   UNL     1      46.512 -49.630  54.929  0.00  0.00    +0.000 HD
ATOM     13  H   UNL     1      47.360 -48.257  53.643  0.00  0.00    +0.000 HD
BRANCH   9  15
ATOM     14 CL   UNL     1      44.809 -55.634  56.502  0.00  0.00    +0.000 Cl
ATOM     15  C   UNL     1      46.323 -51.688  54.916  0.00  0.00    +0.000 A 
ATOM     16  C   UNL     1      44.536 -53.344  55.029  0.00  0.00    +0.000 A 
ATOM     17  C   UNL     1      45.048 -52.128  54.562  0.00  0.00    +0.000 A 
ATOM     18  C   UNL     1      47.103 -52.480  55.753  0.00  0.00    +0.000 A 
ATOM     19  C   UNL     1      45.334 -54.122  55.868  0.00  0.00    +0.000 A 
ATOM     20  C   UNL     1      46.611 -53.691  56.228  0.00  0.00    +0.000 A 
BRANCH  16  24
ATOM     21  F   UNL     1      42.586 -52.880  53.736  0.00  0.00    +0.000 F 
ATOM     22  F   UNL     1      43.136 -54.962  53.978  0.00  0.00    +0.000 F 
ATOM     23  F   UNL     1      42.290 -53.848  55.652  0.00  0.00    +0.000 F 
ATOM     24  C   UNL     1      43.160 -53.757  54.610  0.00  0.00    +0.000 C 
ENDBRANCH  16  24
ENDBRANCH   9  15
ENDBRANCH   2  10
BRANCH   3  25
ATOM     25  O   UNL     1      50.663 -46.894  48.713  0.00  0.00    +0.000 OA
BRANCH  25  27
ATOM     26  N   UNL     1      50.060 -43.099  47.088  0.00  0.00    +0.000 NA
ATOM     27  C   UNL     1      50.400 -45.634  48.225  0.00  0.00    +0.000 A 
ATOM     28  C   UNL     1      50.008 -44.568  49.027  0.00  0.00    +0.000 A 
ATOM     29  C   UNL     1      49.844 -43.338  48.413  0.00  0.00    +0.000 A 
ATOM     30  C   UNL     1      50.655 -45.435  46.871  0.00  0.00    +0.000 A 
ATOM     31  C   UNL     1      50.466 -44.163  46.357  0.00  0.00    +0.000 A 
BRANCH  29  34
ATOM     32  O   UNL     1      49.540 -41.033  48.803  0.00  0.00    +0.000 OA
ATOM     33  N   UNL     1      48.832 -42.557  50.429  0.00  0.00    +0.000 N 
ATOM     34  C   UNL     1      49.394 -42.177  49.222  0.00  0.00    +0.000 C 
ATOM     35  C   UNL     1      48.277 -41.785  51.508  0.00  0.00    +0.000 C 
ATOM     36  H   UNL     1      48.811 -43.564  50.583  0.00  0.00    +0.000 HD
ENDBRANCH  29  34
ENDBRANCH  25  27
ENDBRANCH   3  25
TORSDOF 6
ENDMDL
MODEL 9
REMARK VINA RESULT:      -7.6      5.760     11.583
REMARK  Name = 11167602_Regorafenib.pdbqt.pdb
REMARK  6 active torsions:
REMARK  status: ('A' for Active; 'I' for Inactive)
REMARK    1  A    between atoms: C_2  and  N_10
REMARK    2  A    between atoms: C_3  and  O_25
REMARK    3  A    between atoms: N_9  and  C_15
REMARK    4  A    between atoms: C_16  and  C_24
REMARK    5  A    between atoms: O_25  and  C_27
REMARK    6  A    between atoms: C_29  and  C_34
REMARK                            x       y       z     vdW  Elec       q    Type
REMARK                         _______ _______ _______ _____ _____    ______ ____
ROOT
ATOM      1  F   UNL     1      48.880 -46.048  48.250  0.00  0.00    +0.000 F 
ATOM      2  C   UNL     1      48.802 -44.450  49.994  0.00  0.00    +0.000 A 
ATOM      3  C   UNL     1      47.537 -46.357  51.599  0.00  0.00    +0.000 A 
ATOM      4  C   UNL     1      48.526 -45.730  49.504  0.00  0.00    +0.000 A 
ATOM      5  C   UNL     1      48.415 -44.131  51.295  0.00  0.00    +0.000 A 
ATOM      6  C   UNL     1      47.885 -46.683  50.289  0.00  0.00    +0.000 A 
ATOM      7  C   UNL     1      47.772 -45.076  52.094  0.00  0.00    +0.000 A 
ENDROOT
BRANCH   2  10
ATOM      8  O   UNL     1      47.733 -42.066  48.725  0.00  0.00    +0.000 OA
ATOM      9  N   UNL     1      49.832 -41.714  47.822  0.00  0.00    +0.000 N 
ATOM     10  N   UNL     1      49.463 -43.537  49.146  0.00  0.00    +0.000 N 
ATOM     11  C   UNL     1      48.899 -42.406  48.579  0.00  0.00    +0.000 C 
ATOM     12  H   UNL     1      50.776 -42.071  47.795  0.00  0.00    +0.000 HD
ATOM     13  H   UNL     1      50.427 -43.754  48.936  0.00  0.00    +0.000 HD
BRANCH   9  15
ATOM     14 CL   UNL     1      48.813 -36.653  44.923  0.00  0.00    +0.000 Cl
ATOM     15  C   UNL     1      49.585 -40.529  47.105  0.00  0.00    +0.000 A 
ATOM     16  C   UNL     1      49.406 -38.097  47.171  0.00  0.00    +0.000 A 
ATOM     17  C   UNL     1      49.638 -39.323  47.805  0.00  0.00    +0.000 A 
ATOM     18  C   UNL     1      49.294 -40.509  45.745  0.00  0.00    +0.000 A 
ATOM     19  C   UNL     1      49.116 -38.100  45.805  0.00  0.00    +0.000 A 
ATOM     20  C   UNL     1      49.060 -39.300  45.097  0.00  0.00    +0.000 A 
BRANCH  16  24
ATOM     21  F   UNL     1      49.914 -37.056  49.256  0.00  0.00    +0.000 F 
ATOM     22  F   UNL     1      50.338 -35.923  47.458  0.00  0.00    +0.000 F 
ATOM     23  F   UNL     1      48.277 -36.219  48.109  0.00  0.00    +0.000 F 
ATOM     24  C   UNL     1      49.480 -36.841  47.980  0.00  0.00    +0.000 C 
ENDBRANCH  16  24
ENDBRANCH   9  15
ENDBRANCH   2  10
BRANCH   3  25
ATOM     25  O   UNL     1      46.835 -47.223  52.405  0.00  0.00    +0.000 OA
BRANCH  25  27
ATOM     26  N   UNL     1      43.238 -48.699  50.891  0.00  0.00    +0.000 NA
ATOM     27  C   UNL     1      45.610 -47.666  51.959  0.00  0.00    +0.000 A 
ATOM     28  C   UNL     1      44.502 -46.837  51.817  0.00  0.00    +0.000 A 
ATOM     29  C   UNL     1      43.351 -47.401  51.293  0.00  0.00    +0.000 A 
ATOM     30  C   UNL     1      45.551 -48.992  51.542  0.00  0.00    +0.000 A 
ATOM     31  C   UNL     1      44.352 -49.456  51.026  0.00  0.00    +0.000 A 
BRANCH  29  34
ATOM     32  O   UNL     1      42.186 -45.352  51.330  0.00  0.00    +0.000 OA
ATOM     33  N   UNL     1      41.012 -47.309  50.822  0.00  0.00    +0.000 N 
ATOM     34  C   UNL     1      42.131 -46.564  51.153  0.00  0.00    +0.000 C 
ATOM     35  C   UNL     1      39.645 -46.925  50.596  0.00  0.00    +0.000 C 
ATOM     36  H   UNL     1      41.186 -48.308  50.726  0.00  0.00    +0.000 HD
ENDBRANCH  29  34
ENDBRANCH  25  27
ENDBRANCH   3  25
TORSDOF 6
ENDMDL
