MODEL 1
REMARK VINA RESULT:      -6.8      0.000      0.000
REMARK  Name = 114778_Kahweol.pdbqt.pdb
REMARK  3 active torsions:
REMARK  status: ('A' for Active; 'I' for Inactive)
REMARK    1  A    between atoms: C_8  and  O_21
REMARK    2  A    between atoms: C_8  and  C_23
REMARK    3  A    between atoms: C_23  and  O_24
REMARK                            x       y       z     vdW  Elec       q    Type
REMARK                         _______ _______ _______ _____ _____    ______ ____
ROOT
ATOM      1  O   UNL     1      53.341 -45.753  47.121  0.00  0.00    +0.000 OA
ATOM      2  C   UNL     1      48.736 -41.595  47.974  0.00  0.00    +0.000 C 
ATOM      3  C   UNL     1      49.192 -42.791  48.919  0.00  0.00    +0.000 C 
ATOM      4  C   UNL     1      47.581 -40.423  49.712  0.00  0.00    +0.000 C 
ATOM      5  C   UNL     1      47.395 -41.164  48.454  0.00  0.00    +0.000 C 
ATOM      6  C   UNL     1      49.458 -40.372  48.386  0.00  0.00    +0.000 C 
ATOM      7  C   UNL     1      49.574 -44.167  48.362  0.00  0.00    +0.000 C 
ATOM      8  C   UNL     1      48.801 -39.475  49.357  0.00  0.00    +0.000 C 
ATOM      9  C   UNL     1      48.900 -41.989  46.598  0.00  0.00    +0.000 C 
ATOM     10  C   UNL     1      48.752 -42.591  50.290  0.00  0.00    +0.000 C 
ATOM     11  C   UNL     1      47.873 -41.416  50.736  0.00  0.00    +0.000 C 
ATOM     12  C   UNL     1      50.082 -44.188  46.818  0.00  0.00    +0.000 C 
ATOM     13  C   UNL     1      49.544 -43.187  45.977  0.00  0.00    +0.000 C 
ATOM     14  C   UNL     1      48.327 -45.108  48.426  0.00  0.00    +0.000 C 
ATOM     15  C   UNL     1      50.707 -44.718  49.156  0.00  0.00    +0.000 C 
ATOM     16  C   UNL     1      51.368 -44.788  46.545  0.00  0.00    +0.000 A 
ATOM     17  C   UNL     1      51.780 -45.191  48.908  0.00  0.00    +0.000 C 
ATOM     18  C   UNL     1      52.171 -45.267  47.559  0.00  0.00    +0.000 A 
ATOM     19  C   UNL     1      52.111 -44.995  45.365  0.00  0.00    +0.000 A 
ATOM     20  C   UNL     1      53.300 -45.595  45.758  0.00  0.00    +0.000 A 
ENDROOT
BRANCH   8  21
ATOM     21  O   UNL     1      48.341 -38.315  48.687  0.00  0.00    +0.000 OA
ATOM     22  H   UNL     1      47.475 -38.108  49.078  0.00  0.00    +0.000 HD
ENDBRANCH   8  21
BRANCH   8  23
ATOM     23  C   UNL     1      49.619 -39.087  50.514  0.00  0.00    +0.000 C 
BRANCH  23  24
ATOM     24  O   UNL     1      50.347 -38.728  51.572  0.00  0.00    +0.000 OA
ATOM     25  H   UNL     1      50.850 -37.915  51.388  0.00  0.00    +0.000 HD
ENDBRANCH  23  24
ENDBRANCH   8  23
TORSDOF 3
ENDMDL
MODEL 2
REMARK VINA RESULT:      -6.2     15.750     17.195
REMARK  Name = 114778_Kahweol.pdbqt.pdb
REMARK  3 active torsions:
REMARK  status: ('A' for Active; 'I' for Inactive)
REMARK    1  A    between atoms: C_8  and  O_21
REMARK    2  A    between atoms: C_8  and  C_23
REMARK    3  A    between atoms: C_23  and  O_24
REMARK                            x       y       z     vdW  Elec       q    Type
REMARK                         _______ _______ _______ _____ _____    ______ ____
ROOT
ATOM      1  O   UNL     1      58.160 -53.452  57.248  0.00  0.00    +0.000 OA
ATOM      2  C   UNL     1      58.957 -49.079  61.659  0.00  0.00    +0.000 C 
ATOM      3  C   UNL     1      60.039 -49.740  60.699  0.00  0.00    +0.000 C 
ATOM      4  C   UNL     1      60.313 -47.174  62.172  0.00  0.00    +0.000 C 
ATOM      5  C   UNL     1      59.713 -48.392  62.741  0.00  0.00    +0.000 C 
ATOM      6  C   UNL     1      58.447 -47.851  61.012  0.00  0.00    +0.000 C 
ATOM      7  C   UNL     1      60.037 -51.240  60.383  0.00  0.00    +0.000 C 
ATOM      8  C   UNL     1      59.104 -46.570  61.343  0.00  0.00    +0.000 C 
ATOM      9  C   UNL     1      57.966 -50.064  62.007  0.00  0.00    +0.000 C 
ATOM     10  C   UNL     1      61.227 -48.911  60.576  0.00  0.00    +0.000 C 
ATOM     11  C   UNL     1      61.438 -47.609  61.358  0.00  0.00    +0.000 C 
ATOM     12  C   UNL     1      58.605 -51.993  60.539  0.00  0.00    +0.000 C 
ATOM     13  C   UNL     1      57.725 -51.452  61.504  0.00  0.00    +0.000 C 
ATOM     14  C   UNL     1      61.023 -51.968  61.354  0.00  0.00    +0.000 C 
ATOM     15  C   UNL     1      60.433 -51.441  58.962  0.00  0.00    +0.000 C 
ATOM     16  C   UNL     1      58.109 -52.731  59.400  0.00  0.00    +0.000 A 
ATOM     17  C   UNL     1      59.991 -52.042  58.023  0.00  0.00    +0.000 C 
ATOM     18  C   UNL     1      58.787 -52.747  58.200  0.00  0.00    +0.000 A 
ATOM     19  C   UNL     1      56.949 -53.499  59.171  0.00  0.00    +0.000 A 
ATOM     20  C   UNL     1      57.024 -53.929  57.853  0.00  0.00    +0.000 A 
ENDROOT
BRANCH   8  21
ATOM     21  O   UNL     1      58.257 -45.815  62.192  0.00  0.00    +0.000 OA
ATOM     22  H   UNL     1      58.332 -44.894  61.891  0.00  0.00    +0.000 HD
ENDBRANCH   8  21
BRANCH   8  23
ATOM     23  C   UNL     1      59.510 -45.751  60.194  0.00  0.00    +0.000 C 
BRANCH  23  24
ATOM     24  O   UNL     1      59.888 -44.996  59.161  0.00  0.00    +0.000 OA
ATOM     25  H   UNL     1      59.213 -45.005  58.460  0.00  0.00    +0.000 HD
ENDBRANCH  23  24
ENDBRANCH   8  23
TORSDOF 3
ENDMDL
MODEL 3
REMARK VINA RESULT:      -6.0     15.453     17.792
REMARK  Name = 114778_Kahweol.pdbqt.pdb
REMARK  3 active torsions:
REMARK  status: ('A' for Active; 'I' for Inactive)
REMARK    1  A    between atoms: C_8  and  O_21
REMARK    2  A    between atoms: C_8  and  C_23
REMARK    3  A    between atoms: C_23  and  O_24
REMARK                            x       y       z     vdW  Elec       q    Type
REMARK                         _______ _______ _______ _____ _____    ______ ____
ROOT
ATOM      1  O   UNL     1      65.105 -45.834  58.777  0.00  0.00    +0.000 OA
ATOM      2  C   UNL     1      59.729 -47.877  61.254  0.00  0.00    +0.000 C 
ATOM      3  C   UNL     1      60.230 -47.957  59.746  0.00  0.00    +0.000 C 
ATOM      4  C   UNL     1      58.093 -49.605  60.991  0.00  0.00    +0.000 C 
ATOM      5  C   UNL     1      58.269 -48.163  61.231  0.00  0.00    +0.000 C 
ATOM      6  C   UNL     1      60.129 -49.122  61.945  0.00  0.00    +0.000 C 
ATOM      7  C   UNL     1      60.952 -46.788  59.067  0.00  0.00    +0.000 C 
ATOM      8  C   UNL     1      59.158 -50.235  61.983  0.00  0.00    +0.000 C 
ATOM      9  C   UNL     1      60.199 -46.651  61.846  0.00  0.00    +0.000 C 
ATOM     10  C   UNL     1      59.530 -48.990  59.000  0.00  0.00    +0.000 C 
ATOM     11  C   UNL     1      58.383 -49.827  59.582  0.00  0.00    +0.000 C 
ATOM     12  C   UNL     1      61.714 -45.754  60.063  0.00  0.00    +0.000 C 
ATOM     13  C   UNL     1      61.153 -45.611  61.352  0.00  0.00    +0.000 C 
ATOM     14  C   UNL     1      59.910 -45.940  58.267  0.00  0.00    +0.000 C 
ATOM     15  C   UNL     1      62.013 -47.324  58.171  0.00  0.00    +0.000 C 
ATOM     16  C   UNL     1      63.117 -45.504  59.822  0.00  0.00    +0.000 A 
ATOM     17  C   UNL     1      63.182 -47.118  58.004  0.00  0.00    +0.000 C 
ATOM     18  C   UNL     1      63.808 -46.165  58.828  0.00  0.00    +0.000 A 
ATOM     19  C   UNL     1      64.078 -44.685  60.448  0.00  0.00    +0.000 A 
ATOM     20  C   UNL     1      65.273 -44.906  59.775  0.00  0.00    +0.000 A 
ENDROOT
BRANCH   8  21
ATOM     21  O   UNL     1      58.612 -50.337  63.286  0.00  0.00    +0.000 OA
ATOM     22  H   UNL     1      59.347 -50.160  63.897  0.00  0.00    +0.000 HD
ENDBRANCH   8  21
BRANCH   8  23
ATOM     23  C   UNL     1      59.676 -51.542  61.560  0.00  0.00    +0.000 C 
BRANCH  23  24
ATOM     24  O   UNL     1      60.145 -52.735  61.193  0.00  0.00    +0.000 OA
ATOM     25  H   UNL     1      60.555 -52.691  60.311  0.00  0.00    +0.000 HD
ENDBRANCH  23  24
ENDBRANCH   8  23
TORSDOF 3
ENDMDL
MODEL 4
REMARK VINA RESULT:      -6.0      5.121      6.612
REMARK  Name = 114778_Kahweol.pdbqt.pdb
REMARK  3 active torsions:
REMARK  status: ('A' for Active; 'I' for Inactive)
REMARK    1  A    between atoms: C_8  and  O_21
REMARK    2  A    between atoms: C_8  and  C_23
REMARK    3  A    between atoms: C_23  and  O_24
REMARK                            x       y       z     vdW  Elec       q    Type
REMARK                         _______ _______ _______ _____ _____    ______ ____
ROOT
ATOM      1  O   UNL     1      54.427 -49.401  45.312  0.00  0.00    +0.000 OA
ATOM      2  C   UNL     1      50.439 -47.166  49.591  0.00  0.00    +0.000 C 
ATOM      3  C   UNL     1      50.125 -47.964  48.251  0.00  0.00    +0.000 C 
ATOM      4  C   UNL     1      48.312 -47.638  50.583  0.00  0.00    +0.000 C 
ATOM      5  C   UNL     1      49.154 -46.561  50.035  0.00  0.00    +0.000 C 
ATOM      6  C   UNL     1      50.553 -48.140  50.699  0.00  0.00    +0.000 C 
ATOM      7  C   UNL     1      50.874 -47.682  46.944  0.00  0.00    +0.000 C 
ATOM      8  C   UNL     1      49.341 -48.428  51.493  0.00  0.00    +0.000 C 
ATOM      9  C   UNL     1      51.583 -46.317  49.381  0.00  0.00    +0.000 C 
ATOM     10  C   UNL     1      48.809 -48.580  48.288  0.00  0.00    +0.000 C 
ATOM     11  C   UNL     1      47.817 -48.395  49.443  0.00  0.00    +0.000 C 
ATOM     12  C   UNL     1      52.352 -47.025  47.103  0.00  0.00    +0.000 C 
ATOM     13  C   UNL     1      52.546 -46.210  48.242  0.00  0.00    +0.000 C 
ATOM     14  C   UNL     1      50.039 -46.679  46.083  0.00  0.00    +0.000 C 
ATOM     15  C   UNL     1      51.090 -48.965  46.219  0.00  0.00    +0.000 C 
ATOM     16  C   UNL     1      53.458 -47.704  46.468  0.00  0.00    +0.000 A 
ATOM     17  C   UNL     1      52.026 -49.522  45.719  0.00  0.00    +0.000 C 
ATOM     18  C   UNL     1      53.285 -48.901  45.805  0.00  0.00    +0.000 A 
ATOM     19  C   UNL     1      54.839 -47.436  46.379  0.00  0.00    +0.000 A 
ATOM     20  C   UNL     1      55.391 -48.487  45.658  0.00  0.00    +0.000 A 
ENDROOT
BRANCH   8  21
ATOM     21  O   UNL     1      49.453 -47.806  52.761  0.00  0.00    +0.000 OA
ATOM     22  H   UNL     1      49.192 -48.479  53.411  0.00  0.00    +0.000 HD
ENDBRANCH   8  21
BRANCH   8  23
ATOM     23  C   UNL     1      49.023 -49.851  51.667  0.00  0.00    +0.000 C 
BRANCH  23  24
ATOM     24  O   UNL     1      48.751 -51.148  51.819  0.00  0.00    +0.000 OA
ATOM     25  H   UNL     1      48.383 -51.524  51.000  0.00  0.00    +0.000 HD
ENDBRANCH  23  24
ENDBRANCH   8  23
TORSDOF 3
ENDMDL
MODEL 5
REMARK VINA RESULT:      -5.9     15.951     17.751
REMARK  Name = 114778_Kahweol.pdbqt.pdb
REMARK  3 active torsions:
REMARK  status: ('A' for Active; 'I' for Inactive)
REMARK    1  A    between atoms: C_8  and  O_21
REMARK    2  A    between atoms: C_8  and  C_23
REMARK    3  A    between atoms: C_23  and  O_24
REMARK                            x       y       z     vdW  Elec       q    Type
REMARK                         _______ _______ _______ _____ _____    ______ ____
ROOT
ATOM      1  O   UNL     1      59.119 -53.312  60.956  0.00  0.00    +0.000 OA
ATOM      2  C   UNL     1      59.732 -47.080  60.932  0.00  0.00    +0.000 C 
ATOM      3  C   UNL     1      60.730 -48.181  61.498  0.00  0.00    +0.000 C 
ATOM      4  C   UNL     1      61.404 -45.371  60.803  0.00  0.00    +0.000 C 
ATOM      5  C   UNL     1      60.172 -45.776  61.500  0.00  0.00    +0.000 C 
ATOM      6  C   UNL     1      60.108 -46.784  59.533  0.00  0.00    +0.000 C 
ATOM      7  C   UNL     1      60.234 -49.405  62.276  0.00  0.00    +0.000 C 
ATOM      8  C   UNL     1      61.033 -45.658  59.288  0.00  0.00    +0.000 C 
ATOM      9  C   UNL     1      58.376 -47.517  61.139  0.00  0.00    +0.000 C 
ATOM     10  C   UNL     1      62.085 -47.668  61.620  0.00  0.00    +0.000 C 
ATOM     11  C   UNL     1      62.470 -46.212  61.328  0.00  0.00    +0.000 C 
ATOM     12  C   UNL     1      58.701 -49.857  61.978  0.00  0.00    +0.000 C 
ATOM     13  C   UNL     1      57.813 -48.821  61.609  0.00  0.00    +0.000 C 
ATOM     14  C   UNL     1      60.313 -49.105  63.808  0.00  0.00    +0.000 C 
ATOM     15  C   UNL     1      61.067 -50.585  61.913  0.00  0.00    +0.000 C 
ATOM     16  C   UNL     1      58.473 -51.223  61.568  0.00  0.00    +0.000 A 
ATOM     17  C   UNL     1      60.856 -51.708  61.551  0.00  0.00    +0.000 C 
ATOM     18  C   UNL     1      59.518 -52.101  61.369  0.00  0.00    +0.000 A 
ATOM     19  C   UNL     1      57.315 -51.960  61.246  0.00  0.00    +0.000 A 
ATOM     20  C   UNL     1      57.750 -53.229  60.889  0.00  0.00    +0.000 A 
ENDROOT
BRANCH   8  21
ATOM     21  O   UNL     1      60.311 -44.567  58.746  0.00  0.00    +0.000 OA
ATOM     22  H   UNL     1      59.500 -44.495  59.277  0.00  0.00    +0.000 HD
ENDBRANCH   8  21
BRANCH   8  23
ATOM     23  C   UNL     1      62.187 -45.962  58.433  0.00  0.00    +0.000 C 
BRANCH  23  24
ATOM     24  O   UNL     1      63.241 -46.221  57.658  0.00  0.00    +0.000 OA
ATOM     25  H   UNL     1      62.984 -46.247  56.719  0.00  0.00    +0.000 HD
ENDBRANCH  23  24
ENDBRANCH   8  23
TORSDOF 3
ENDMDL
MODEL 6
REMARK VINA RESULT:      -5.8     11.876     14.323
REMARK  Name = 114778_Kahweol.pdbqt.pdb
REMARK  3 active torsions:
REMARK  status: ('A' for Active; 'I' for Inactive)
REMARK    1  A    between atoms: C_8  and  O_21
REMARK    2  A    between atoms: C_8  and  C_23
REMARK    3  A    between atoms: C_23  and  O_24
REMARK                            x       y       z     vdW  Elec       q    Type
REMARK                         _______ _______ _______ _____ _____    ______ ____
ROOT
ATOM      1  O   UNL     1      50.223 -53.800  53.065  0.00  0.00    +0.000 OA
ATOM      2  C   UNL     1      44.504 -54.150  55.593  0.00  0.00    +0.000 C 
ATOM      3  C   UNL     1      44.987 -53.326  54.320  0.00  0.00    +0.000 C 
ATOM      4  C   UNL     1      42.190 -54.078  54.985  0.00  0.00    +0.000 C 
ATOM      5  C   UNL     1      43.174 -53.602  55.972  0.00  0.00    +0.000 C 
ATOM      6  C   UNL     1      44.015 -55.469  55.136  0.00  0.00    +0.000 C 
ATOM      7  C   UNL     1      46.322 -52.573  54.298  0.00  0.00    +0.000 C 
ATOM      8  C   UNL     1      42.572 -55.611  54.854  0.00  0.00    +0.000 C 
ATOM      9  C   UNL     1      45.561 -54.175  56.570  0.00  0.00    +0.000 C 
ATOM     10  C   UNL     1      43.876 -52.984  53.447  0.00  0.00    +0.000 C 
ATOM     11  C   UNL     1      42.411 -53.301  53.774  0.00  0.00    +0.000 C 
ATOM     12  C   UNL     1      47.461 -53.125  55.318  0.00  0.00    +0.000 C 
ATOM     13  C   UNL     1      46.987 -53.730  56.504  0.00  0.00    +0.000 C 
ATOM     14  C   UNL     1      46.072 -51.079  54.686  0.00  0.00    +0.000 C 
ATOM     15  C   UNL     1      46.923 -52.684  52.941  0.00  0.00    +0.000 C 
ATOM     16  C   UNL     1      48.748 -53.472  54.759  0.00  0.00    +0.000 A 
ATOM     17  C   UNL     1      47.991 -52.999  52.497  0.00  0.00    +0.000 C 
ATOM     18  C   UNL     1      48.988 -53.405  53.403  0.00  0.00    +0.000 A 
ATOM     19  C   UNL     1      49.949 -53.957  55.316  0.00  0.00    +0.000 A 
ATOM     20  C   UNL     1      50.825 -54.132  54.253  0.00  0.00    +0.000 A 
ENDROOT
BRANCH   8  21
ATOM     21  O   UNL     1      41.963 -56.358  55.892  0.00  0.00    +0.000 OA
ATOM     22  H   UNL     1      41.683 -57.196  55.488  0.00  0.00    +0.000 HD
ENDBRANCH   8  21
BRANCH   8  23
ATOM     23  C   UNL     1      42.238 -56.207  53.554  0.00  0.00    +0.000 C 
BRANCH  23  24
ATOM     24  O   UNL     1      41.919 -56.754  52.380  0.00  0.00    +0.000 OA
ATOM     25  H   UNL     1      40.953 -56.812  52.275  0.00  0.00    +0.000 HD
ENDBRANCH  23  24
ENDBRANCH   8  23
TORSDOF 3
ENDMDL
MODEL 7
REMARK VINA RESULT:      -5.8      5.042      7.925
REMARK  Name = 114778_Kahweol.pdbqt.pdb
REMARK  3 active torsions:
REMARK  status: ('A' for Active; 'I' for Inactive)
REMARK    1  A    between atoms: C_8  and  O_21
REMARK    2  A    between atoms: C_8  and  C_23
REMARK    3  A    between atoms: C_23  and  O_24
REMARK                            x       y       z     vdW  Elec       q    Type
REMARK                         _______ _______ _______ _____ _____    ______ ____
ROOT
ATOM      1  O   UNL     1      51.235 -45.976  46.760  0.00  0.00    +0.000 OA
ATOM      2  C   UNL     1      48.748 -49.158  51.546  0.00  0.00    +0.000 C 
ATOM      3  C   UNL     1      48.069 -48.065  50.611  0.00  0.00    +0.000 C 
ATOM      4  C   UNL     1      46.666 -50.069  52.297  0.00  0.00    +0.000 C 
ATOM      5  C   UNL     1      47.857 -49.318  52.727  0.00  0.00    +0.000 C 
ATOM      6  C   UNL     1      48.491 -50.494  50.965  0.00  0.00    +0.000 C 
ATOM      7  C   UNL     1      48.808 -46.793  50.179  0.00  0.00    +0.000 C 
ATOM      8  C   UNL     1      47.307 -51.238  51.439  0.00  0.00    +0.000 C 
ATOM      9  C   UNL     1      50.132 -48.816  51.748  0.00  0.00    +0.000 C 
ATOM     10  C   UNL     1      46.619 -48.163  50.633  0.00  0.00    +0.000 C 
ATOM     11  C   UNL     1      45.849 -49.142  51.529  0.00  0.00    +0.000 C 
ATOM     12  C   UNL     1      50.431 -46.885  50.179  0.00  0.00    +0.000 C 
ATOM     13  C   UNL     1      51.000 -47.771  51.122  0.00  0.00    +0.000 C 
ATOM     14  C   UNL     1      48.435 -45.629  51.153  0.00  0.00    +0.000 C 
ATOM     15  C   UNL     1      48.434 -46.464  48.776  0.00  0.00    +0.000 C 
ATOM     16  C   UNL     1      51.121 -46.547  48.954  0.00  0.00    +0.000 A 
ATOM     17  C   UNL     1      49.026 -46.209  47.765  0.00  0.00    +0.000 C 
ATOM     18  C   UNL     1      50.432 -46.223  47.804  0.00  0.00    +0.000 A 
ATOM     19  C   UNL     1      52.481 -46.498  48.588  0.00  0.00    +0.000 A 
ATOM     20  C   UNL     1      52.508 -46.136  47.248  0.00  0.00    +0.000 A 
ENDROOT
BRANCH   8  21
ATOM     21  O   UNL     1      47.726 -52.294  52.287  0.00  0.00    +0.000 OA
ATOM     22  H   UNL     1      48.580 -52.595  51.934  0.00  0.00    +0.000 HD
ENDBRANCH   8  21
BRANCH   8  23
ATOM     23  C   UNL     1      46.428 -51.766  50.388  0.00  0.00    +0.000 C 
BRANCH  23  24
ATOM     24  O   UNL     1      45.620 -52.230  49.434  0.00  0.00    +0.000 OA
ATOM     25  H   UNL     1      46.081 -52.271  48.578  0.00  0.00    +0.000 HD
ENDBRANCH  23  24
ENDBRANCH   8  23
TORSDOF 3
ENDMDL
MODEL 8
REMARK VINA RESULT:      -5.4     15.752     18.175
REMARK  Name = 114778_Kahweol.pdbqt.pdb
REMARK  3 active torsions:
REMARK  status: ('A' for Active; 'I' for Inactive)
REMARK    1  A    between atoms: C_8  and  O_21
REMARK    2  A    between atoms: C_8  and  C_23
REMARK    3  A    between atoms: C_23  and  O_24
REMARK                            x       y       z     vdW  Elec       q    Type
REMARK                         _______ _______ _______ _____ _____    ______ ____
ROOT
ATOM      1  O   UNL     1      62.520 -45.237  58.770  0.00  0.00    +0.000 OA
ATOM      2  C   UNL     1      60.061 -50.279  61.552  0.00  0.00    +0.000 C 
ATOM      3  C   UNL     1      59.353 -49.212  60.608  0.00  0.00    +0.000 C 
ATOM      4  C   UNL     1      58.374 -51.948  61.233  0.00  0.00    +0.000 C 
ATOM      5  C   UNL     1      58.972 -51.039  62.225  0.00  0.00    +0.000 C 
ATOM      6  C   UNL     1      60.545 -51.397  60.713  0.00  0.00    +0.000 C 
ATOM      7  C   UNL     1      59.637 -47.711  60.723  0.00  0.00    +0.000 C 
ATOM      8  C   UNL     1      59.658 -52.565  60.538  0.00  0.00    +0.000 C 
ATOM      9  C   UNL     1      61.058 -49.617  62.353  0.00  0.00    +0.000 C 
ATOM     10  C   UNL     1      58.132 -49.740  60.021  0.00  0.00    +0.000 C 
ATOM     11  C   UNL     1      57.557 -51.122  60.356  0.00  0.00    +0.000 C 
ATOM     12  C   UNL     1      61.074 -47.311  61.371  0.00  0.00    +0.000 C 
ATOM     13  C   UNL     1      61.603 -48.225  62.310  0.00  0.00    +0.000 C 
ATOM     14  C   UNL     1      58.548 -47.052  61.631  0.00  0.00    +0.000 C 
ATOM     15  C   UNL     1      59.640 -47.108  59.361  0.00  0.00    +0.000 C 
ATOM     16  C   UNL     1      61.934 -46.438  60.605  0.00  0.00    +0.000 A 
ATOM     17  C   UNL     1      60.379 -46.403  58.735  0.00  0.00    +0.000 C 
ATOM     18  C   UNL     1      61.585 -46.009  59.342  0.00  0.00    +0.000 A 
ATOM     19  C   UNL     1      63.207 -45.881  60.839  0.00  0.00    +0.000 A 
ATOM     20  C   UNL     1      63.523 -45.148  59.703  0.00  0.00    +0.000 A 
ENDROOT
BRANCH   8  21
ATOM     21  O   UNL     1      60.155 -53.649  61.303  0.00  0.00    +0.000 OA
ATOM     22  H   UNL     1      61.084 -53.437  61.493  0.00  0.00    +0.000 HD
ENDBRANCH   8  21
BRANCH   8  23
ATOM     23  C   UNL     1      59.444 -52.995  59.150  0.00  0.00    +0.000 C 
BRANCH  23  24
ATOM     24  O   UNL     1      59.263 -53.374  57.885  0.00  0.00    +0.000 OA
ATOM     25  H   UNL     1      60.093 -53.704  57.498  0.00  0.00    +0.000 HD
ENDBRANCH  23  24
ENDBRANCH   8  23
TORSDOF 3
ENDMDL
MODEL 9
REMARK VINA RESULT:      -5.4     16.247     18.220
REMARK  Name = 114778_Kahweol.pdbqt.pdb
REMARK  3 active torsions:
REMARK  status: ('A' for Active; 'I' for Inactive)
REMARK    1  A    between atoms: C_8  and  O_21
REMARK    2  A    between atoms: C_8  and  C_23
REMARK    3  A    between atoms: C_23  and  O_24
REMARK                            x       y       z     vdW  Elec       q    Type
REMARK                         _______ _______ _______ _____ _____    ______ ____
ROOT
ATOM      1  O   UNL     1      63.928 -46.543  57.336  0.00  0.00    +0.000 OA
ATOM      2  C   UNL     1      60.659 -48.806  62.174  0.00  0.00    +0.000 C 
ATOM      3  C   UNL     1      60.183 -47.822  61.017  0.00  0.00    +0.000 C 
ATOM      4  C   UNL     1      58.436 -49.456  62.780  0.00  0.00    +0.000 C 
ATOM      5  C   UNL     1      59.629 -48.729  63.245  0.00  0.00    +0.000 C 
ATOM      6  C   UNL     1      60.359 -50.193  61.758  0.00  0.00    +0.000 C 
ATOM      7  C   UNL     1      61.070 -46.680  60.506  0.00  0.00    +0.000 C 
ATOM      8  C   UNL     1      59.071 -50.780  62.181  0.00  0.00    +0.000 C 
ATOM      9  C   UNL     1      62.034 -48.529  62.496  0.00  0.00    +0.000 C 
ATOM     10  C   UNL     1      58.736 -47.820  60.872  0.00  0.00    +0.000 C 
ATOM     11  C   UNL     1      57.791 -48.602  61.793  0.00  0.00    +0.000 C 
ATOM     12  C   UNL     1      62.669 -46.877  60.721  0.00  0.00    +0.000 C 
ATOM     13  C   UNL     1      63.051 -47.648  61.843  0.00  0.00    +0.000 C 
ATOM     14  C   UNL     1      60.685 -45.362  61.253  0.00  0.00    +0.000 C 
ATOM     15  C   UNL     1      60.886 -46.540  59.035  0.00  0.00    +0.000 C 
ATOM     16  C   UNL     1      63.518 -46.772  59.557  0.00  0.00    +0.000 A 
ATOM     17  C   UNL     1      61.608 -46.479  58.081  0.00  0.00    +0.000 C 
ATOM     18  C   UNL     1      62.994 -46.578  58.296  0.00  0.00    +0.000 A 
ATOM     19  C   UNL     1      64.911 -46.867  59.360  0.00  0.00    +0.000 A 
ATOM     20  C   UNL     1      65.120 -46.711  57.996  0.00  0.00    +0.000 A 
ENDROOT
BRANCH   8  21
ATOM     21  O   UNL     1      59.302 -51.722  63.213  0.00  0.00    +0.000 OA
ATOM     22  H   UNL     1      59.698 -52.498  62.782  0.00  0.00    +0.000 HD
ENDBRANCH   8  21
BRANCH   8  23
ATOM     23  C   UNL     1      58.277 -51.400  61.113  0.00  0.00    +0.000 C 
BRANCH  23  24
ATOM     24  O   UNL     1      57.556 -51.979  60.153  0.00  0.00    +0.000 OA
ATOM     25  H   UNL     1      56.962 -51.334  59.728  0.00  0.00    +0.000 HD
ENDBRANCH  23  24
ENDBRANCH   8  23
TORSDOF 3
ENDMDL
