MODEL 1
REMARK VINA RESULT:      -4.7      0.000      0.000
REMARK  Name = 1174_Uracil.pdbqt.pdb
REMARK  0 active torsions:
REMARK  status: ('A' for Active; 'I' for Inactive)
REMARK                            x       y       z     vdW  Elec       q    Type
REMARK                         _______ _______ _______ _____ _____    ______ ____
ROOT
ATOM      1  O   UNL     1      47.133 -40.644  50.829  0.00  0.00    +0.000 OA
ATOM      2  O   UNL     1      47.438 -36.047  50.328  0.00  0.00    +0.000 OA
ATOM      3  N   UNL     1      47.217 -38.349  50.566  0.00  0.00    +0.000 N 
ATOM      4  N   UNL     1      49.157 -39.557  51.084  0.00  0.00    +0.000 N 
ATOM      5  C   UNL     1      47.782 -39.606  50.827  0.00  0.00    +0.000 A 
ATOM      6  C   UNL     1      47.920 -37.146  50.555  0.00  0.00    +0.000 A 
ATOM      7  C   UNL     1      49.820 -38.390  51.069  0.00  0.00    +0.000 A 
ATOM      8  C   UNL     1      49.318 -37.332  50.845  0.00  0.00    +0.000 A 
ATOM      9  H   UNL     1      46.229 -38.315  50.373  0.00  0.00    +0.000 HD
ATOM     10  H   UNL     1      49.640 -40.425  51.282  0.00  0.00    +0.000 HD
ENDROOT
TORSDOF 0
ENDMDL
MODEL 2
REMARK VINA RESULT:      -4.1     12.656     13.792
REMARK  Name = 1174_Uracil.pdbqt.pdb
REMARK  0 active torsions:
REMARK  status: ('A' for Active; 'I' for Inactive)
REMARK                            x       y       z     vdW  Elec       q    Type
REMARK                         _______ _______ _______ _____ _____    ______ ____
ROOT
ATOM      1  O   UNL     1      40.853 -30.519  53.974  0.00  0.00    +0.000 OA
ATOM      2  O   UNL     1      40.157 -25.961  54.444  0.00  0.00    +0.000 OA
ATOM      3  N   UNL     1      40.556 -28.234  54.161  0.00  0.00    +0.000 N 
ATOM      4  N   UNL     1      39.254 -29.710  55.433  0.00  0.00    +0.000 N 
ATOM      5  C   UNL     1      40.269 -29.569  54.481  0.00  0.00    +0.000 A 
ATOM      6  C   UNL     1      39.915 -27.127  54.714  0.00  0.00    +0.000 A 
ATOM      7  C   UNL     1      38.646 -28.632  55.957  0.00  0.00    +0.000 A 
ATOM      8  C   UNL     1      38.906 -27.505  55.670  0.00  0.00    +0.000 A 
ATOM      9  H   UNL     1      41.279 -28.064  53.480  0.00  0.00    +0.000 HD
ATOM     10  H   UNL     1      38.988 -30.644  55.718  0.00  0.00    +0.000 HD
ENDROOT
TORSDOF 0
ENDMDL
MODEL 3
REMARK VINA RESULT:      -3.9     12.528     13.705
REMARK  Name = 1174_Uracil.pdbqt.pdb
REMARK  0 active torsions:
REMARK  status: ('A' for Active; 'I' for Inactive)
REMARK                            x       y       z     vdW  Elec       q    Type
REMARK                         _______ _______ _______ _____ _____    ______ ____
ROOT
ATOM      1  O   UNL     1      40.881 -30.749  53.736  0.00  0.00    +0.000 OA
ATOM      2  O   UNL     1      38.557 -28.092  56.739  0.00  0.00    +0.000 OA
ATOM      3  N   UNL     1      39.753 -29.458  55.287  0.00  0.00    +0.000 N 
ATOM      4  N   UNL     1      39.430 -29.112  52.991  0.00  0.00    +0.000 N 
ATOM      5  C   UNL     1      40.088 -29.849  53.982  0.00  0.00    +0.000 A 
ATOM      6  C   UNL     1      38.857 -28.440  55.607  0.00  0.00    +0.000 A 
ATOM      7  C   UNL     1      38.569 -28.134  53.317  0.00  0.00    +0.000 A 
ATOM      8  C   UNL     1      38.299 -27.818  54.434  0.00  0.00    +0.000 A 
ATOM      9  H   UNL     1      40.193 -29.950  56.047  0.00  0.00    +0.000 HD
ATOM     10  H   UNL     1      39.619 -29.335  52.022  0.00  0.00    +0.000 HD
ENDROOT
TORSDOF 0
ENDMDL
MODEL 4
REMARK VINA RESULT:      -3.9     16.468     17.357
REMARK  Name = 1174_Uracil.pdbqt.pdb
REMARK  0 active torsions:
REMARK  status: ('A' for Active; 'I' for Inactive)
REMARK                            x       y       z     vdW  Elec       q    Type
REMARK                         _______ _______ _______ _____ _____    ______ ____
ROOT
ATOM      1  O   UNL     1      62.102 -45.208  61.643  0.00  0.00    +0.000 OA
ATOM      2  O   UNL     1      59.133 -48.079  59.541  0.00  0.00    +0.000 OA
ATOM      3  N   UNL     1      60.630 -46.685  60.647  0.00  0.00    +0.000 N 
ATOM      4  N   UNL     1      61.110 -44.625  59.639  0.00  0.00    +0.000 N 
ATOM      5  C   UNL     1      61.345 -45.481  60.720  0.00  0.00    +0.000 A 
ATOM      6  C   UNL     1      59.760 -47.033  59.615  0.00  0.00    +0.000 A 
ATOM      7  C   UNL     1      60.268 -44.975  58.652  0.00  0.00    +0.000 A 
ATOM      8  C   UNL     1      59.670 -46.005  58.611  0.00  0.00    +0.000 A 
ATOM      9  H   UNL     1      60.755 -47.347  61.396  0.00  0.00    +0.000 HD
ATOM     10  H   UNL     1      61.590 -43.734  59.618  0.00  0.00    +0.000 HD
ENDROOT
TORSDOF 0
ENDMDL
MODEL 5
REMARK VINA RESULT:      -3.6     16.434     17.486
REMARK  Name = 1174_Uracil.pdbqt.pdb
REMARK  0 active torsions:
REMARK  status: ('A' for Active; 'I' for Inactive)
REMARK                            x       y       z     vdW  Elec       q    Type
REMARK                         _______ _______ _______ _____ _____    ______ ____
ROOT
ATOM      1  O   UNL     1      59.551 -44.603  58.178  0.00  0.00    +0.000 OA
ATOM      2  O   UNL     1      63.119 -45.048  61.101  0.00  0.00    +0.000 OA
ATOM      3  N   UNL     1      61.363 -44.772  59.604  0.00  0.00    +0.000 N 
ATOM      4  N   UNL     1      59.531 -46.216  59.832  0.00  0.00    +0.000 N 
ATOM      5  C   UNL     1      60.100 -45.152  59.125  0.00  0.00    +0.000 A 
ATOM      6  C   UNL     1      62.020 -45.370  60.677  0.00  0.00    +0.000 A 
ATOM      7  C   UNL     1      60.178 -46.782  60.865  0.00  0.00    +0.000 A 
ATOM      8  C   UNL     1      61.252 -46.443  61.255  0.00  0.00    +0.000 A 
ATOM      9  H   UNL     1      61.827 -44.010  59.137  0.00  0.00    +0.000 HD
ATOM     10  H   UNL     1      58.619 -46.550  59.548  0.00  0.00    +0.000 HD
ENDROOT
TORSDOF 0
ENDMDL
MODEL 6
REMARK VINA RESULT:      -3.6     23.294     24.002
REMARK  Name = 1174_Uracil.pdbqt.pdb
REMARK  0 active torsions:
REMARK  status: ('A' for Active; 'I' for Inactive)
REMARK                            x       y       z     vdW  Elec       q    Type
REMARK                         _______ _______ _______ _____ _____    ______ ____
ROOT
ATOM      1  O   UNL     1      43.469 -53.508  70.130  0.00  0.00    +0.000 OA
ATOM      2  O   UNL     1      43.827 -54.859  65.711  0.00  0.00    +0.000 OA
ATOM      3  N   UNL     1      43.581 -54.161  67.915  0.00  0.00    +0.000 N 
ATOM      4  N   UNL     1      45.439 -54.405  69.323  0.00  0.00    +0.000 N 
ATOM      5  C   UNL     1      44.110 -53.984  69.202  0.00  0.00    +0.000 A 
ATOM      6  C   UNL     1      44.278 -54.699  66.835  0.00  0.00    +0.000 A 
ATOM      7  C   UNL     1      46.097 -54.922  68.272  0.00  0.00    +0.000 A 
ATOM      8  C   UNL     1      45.627 -55.063  67.186  0.00  0.00    +0.000 A 
ATOM      9  H   UNL     1      42.627 -53.878  67.762  0.00  0.00    +0.000 HD
ATOM     10  H   UNL     1      45.894 -54.310  70.222  0.00  0.00    +0.000 HD
ENDROOT
TORSDOF 0
ENDMDL
MODEL 7
REMARK VINA RESULT:      -3.5     22.712     23.497
REMARK  Name = 1174_Uracil.pdbqt.pdb
REMARK  0 active torsions:
REMARK  status: ('A' for Active; 'I' for Inactive)
REMARK                            x       y       z     vdW  Elec       q    Type
REMARK                         _______ _______ _______ _____ _____    ______ ____
ROOT
ATOM      1  O   UNL     1      43.252 -54.663  64.881  0.00  0.00    +0.000 OA
ATOM      2  O   UNL     1      43.357 -53.616  69.394  0.00  0.00    +0.000 OA
ATOM      3  N   UNL     1      43.241 -54.112  67.126  0.00  0.00    +0.000 N 
ATOM      4  N   UNL     1      45.068 -55.240  66.188  0.00  0.00    +0.000 N 
ATOM      5  C   UNL     1      43.808 -54.672  65.972  0.00  0.00    +0.000 A 
ATOM      6  C   UNL     1      43.841 -54.102  68.383  0.00  0.00    +0.000 A 
ATOM      7  C   UNL     1      45.633 -55.223  67.407  0.00  0.00    +0.000 A 
ATOM      8  C   UNL     1      45.132 -54.740  68.374  0.00  0.00    +0.000 A 
ATOM      9  H   UNL     1      42.333 -53.686  67.038  0.00  0.00    +0.000 HD
ATOM     10  H   UNL     1      45.545 -55.666  65.403  0.00  0.00    +0.000 HD
ENDROOT
TORSDOF 0
ENDMDL
MODEL 8
REMARK VINA RESULT:      -3.5     23.006     23.634
REMARK  Name = 1174_Uracil.pdbqt.pdb
REMARK  0 active torsions:
REMARK  status: ('A' for Active; 'I' for Inactive)
REMARK                            x       y       z     vdW  Elec       q    Type
REMARK                         _______ _______ _______ _____ _____    ______ ____
ROOT
ATOM      1  O   UNL     1      40.585 -56.398  65.868  0.00  0.00    +0.000 OA
ATOM      2  O   UNL     1      43.382 -53.919  68.607  0.00  0.00    +0.000 OA
ATOM      3  N   UNL     1      41.937 -55.175  67.288  0.00  0.00    +0.000 N 
ATOM      4  N   UNL     1      42.505 -55.425  65.028  0.00  0.00    +0.000 N 
ATOM      5  C   UNL     1      41.591 -55.723  66.045  0.00  0.00    +0.000 A 
ATOM      6  C   UNL     1      43.072 -54.402  67.529  0.00  0.00    +0.000 A 
ATOM      7  C   UNL     1      43.594 -54.679  65.277  0.00  0.00    +0.000 A 
ATOM      8  C   UNL     1      43.869 -54.222  66.343  0.00  0.00    +0.000 A 
ATOM      9  H   UNL     1      41.319 -55.353  68.063  0.00  0.00    +0.000 HD
ATOM     10  H   UNL     1      42.326 -55.786  64.100  0.00  0.00    +0.000 HD
ENDROOT
TORSDOF 0
ENDMDL
MODEL 9
REMARK VINA RESULT:      -3.4      9.378     10.361
REMARK  Name = 1174_Uracil.pdbqt.pdb
REMARK  0 active torsions:
REMARK  status: ('A' for Active; 'I' for Inactive)
REMARK                            x       y       z     vdW  Elec       q    Type
REMARK                         _______ _______ _______ _____ _____    ______ ____
ROOT
ATOM      1  O   UNL     1      54.636 -43.965  45.250  0.00  0.00    +0.000 OA
ATOM      2  O   UNL     1      52.524 -45.627  49.025  0.00  0.00    +0.000 OA
ATOM      3  N   UNL     1      53.552 -44.732  47.142  0.00  0.00    +0.000 N 
ATOM      4  N   UNL     1      54.982 -46.144  45.937  0.00  0.00    +0.000 N 
ATOM      5  C   UNL     1      54.410 -44.871  46.041  0.00  0.00    +0.000 A 
ATOM      6  C   UNL     1      53.269 -45.738  48.063  0.00  0.00    +0.000 A 
ATOM      7  C   UNL     1      54.700 -47.103  46.834  0.00  0.00    +0.000 A 
ATOM      8  C   UNL     1      53.966 -46.962  47.762  0.00  0.00    +0.000 A 
ATOM      9  H   UNL     1      53.107 -43.838  47.274  0.00  0.00    +0.000 HD
ATOM     10  H   UNL     1      55.615 -46.325  45.168  0.00  0.00    +0.000 HD
ENDROOT
TORSDOF 0
ENDMDL
