MODEL 1
REMARK VINA RESULT:      -6.2      0.000      0.000
REMARK  Name = 122180587_TripolinolateA.pdbqt.pdb
REMARK  9 active torsions:
REMARK  status: ('A' for Active; 'I' for Inactive)
REMARK    1  A    between atoms: C_1  and  O_16
REMARK    2  A    between atoms: C_2  and  O_7
REMARK    3  A    between atoms: C_3  and  C_9
REMARK    4  A    between atoms: C_10  and  C_11
REMARK    5  A    between atoms: C_11  and  O_12
REMARK    6  A    between atoms: O_12  and  C_14
REMARK    7  A    between atoms: O_16  and  C_18
REMARK    8  A    between atoms: C_18  and  C_19
REMARK    9  A    between atoms: C_19  and  C_21
REMARK                            x       y       z     vdW  Elec       q    Type
REMARK                         _______ _______ _______ _____ _____    ______ ____
ROOT
ATOM      1  C   UNL     1      48.861 -38.780  50.189  0.00  0.00    +0.000 A 
ATOM      2  C   UNL     1      48.254 -37.530  50.343  0.00  0.00    +0.000 A 
ATOM      3  C   UNL     1      49.441 -36.773  48.368  0.00  0.00    +0.000 A 
ATOM      4  C   UNL     1      49.773 -39.026  49.160  0.00  0.00    +0.000 A 
ATOM      5  C   UNL     1      48.552 -36.529  49.414  0.00  0.00    +0.000 A 
ATOM      6  C   UNL     1      50.054 -38.019  48.242  0.00  0.00    +0.000 A 
ENDROOT
BRANCH   2   7
ATOM      7  O   UNL     1      47.415 -37.366  51.417  0.00  0.00    +0.000 OA
ATOM      8  C   UNL     1      46.570 -36.250  51.361  0.00  0.00    +0.000 C 
ENDBRANCH   2   7
BRANCH   3   9
ATOM      9  C   UNL     1      49.730 -35.741  47.427  0.00  0.00    +0.000 C 
ATOM     10  C   UNL     1      49.973 -34.873  46.633  0.00  0.00    +0.000 C 
BRANCH  10  11
ATOM     11  C   UNL     1      50.287 -33.768  45.619  0.00  0.00    +0.000 C 
BRANCH  11  12
ATOM     12  O   UNL     1      50.558 -32.809  44.738  0.00  0.00    +0.000 OA
BRANCH  12  14
ATOM     13  O   UNL     1      52.251 -31.203  44.590  0.00  0.00    +0.000 OA
ATOM     14  C   UNL     1      51.405 -31.855  45.173  0.00  0.00    +0.000 C 
ATOM     15  C   UNL     1      51.288 -31.544  46.627  0.00  0.00    +0.000 C 
ENDBRANCH  12  14
ENDBRANCH  11  12
ENDBRANCH  10  11
ENDBRANCH   3   9
BRANCH   1  16
ATOM     16  O   UNL     1      48.626 -39.791  51.131  0.00  0.00    +0.000 OA
BRANCH  16  18
ATOM     17  O   UNL     1      46.537 -40.457  50.355  0.00  0.00    +0.000 OA
ATOM     18  C   UNL     1      47.677 -40.718  50.719  0.00  0.00    +0.000 C 
BRANCH  18  19
ATOM     19  C   UNL     1      48.224 -42.096  50.794  0.00  0.00    +0.000 C 
ATOM     20  C   UNL     1      48.091 -42.985  52.023  0.00  0.00    +0.000 C 
BRANCH  19  21
ATOM     21  C   UNL     1      48.905 -42.629  49.668  0.00  0.00    +0.000 C 
ATOM     22  C   UNL     1      49.650 -43.206  48.450  0.00  0.00    +0.000 C 
ENDBRANCH  19  21
ENDBRANCH  18  19
ENDBRANCH  16  18
ENDBRANCH   1  16
TORSDOF 9
ENDMDL
MODEL 2
REMARK VINA RESULT:      -5.7      4.542      7.052
REMARK  Name = 122180587_TripolinolateA.pdbqt.pdb
REMARK  9 active torsions:
REMARK  status: ('A' for Active; 'I' for Inactive)
REMARK    1  A    between atoms: C_1  and  O_16
REMARK    2  A    between atoms: C_2  and  O_7
REMARK    3  A    between atoms: C_3  and  C_9
REMARK    4  A    between atoms: C_10  and  C_11
REMARK    5  A    between atoms: C_11  and  O_12
REMARK    6  A    between atoms: O_12  and  C_14
REMARK    7  A    between atoms: O_16  and  C_18
REMARK    8  A    between atoms: C_18  and  C_19
REMARK    9  A    between atoms: C_19  and  C_21
REMARK                            x       y       z     vdW  Elec       q    Type
REMARK                         _______ _______ _______ _____ _____    ______ ____
ROOT
ATOM      1  C   UNL     1      48.486 -44.608  50.797  0.00  0.00    +0.000 A 
ATOM      2  C   UNL     1      49.055 -43.868  49.756  0.00  0.00    +0.000 A 
ATOM      3  C   UNL     1      48.215 -41.850  50.807  0.00  0.00    +0.000 A 
ATOM      4  C   UNL     1      47.760 -43.991  51.819  0.00  0.00    +0.000 A 
ATOM      5  C   UNL     1      48.915 -42.478  49.778  0.00  0.00    +0.000 A 
ATOM      6  C   UNL     1      47.635 -42.605  51.825  0.00  0.00    +0.000 A 
ENDROOT
BRANCH   2   7
ATOM      7  O   UNL     1      49.702 -44.567  48.768  0.00  0.00    +0.000 OA
ATOM      8  C   UNL     1      51.078 -44.747  48.952  0.00  0.00    +0.000 C 
ENDBRANCH   2   7
BRANCH   3   9
ATOM      9  C   UNL     1      48.087 -40.430  50.815  0.00  0.00    +0.000 C 
ATOM     10  C   UNL     1      47.980 -39.234  50.820  0.00  0.00    +0.000 C 
BRANCH  10  11
ATOM     11  C   UNL     1      47.847 -37.708  50.825  0.00  0.00    +0.000 C 
BRANCH  11  12
ATOM     12  O   UNL     1      47.731 -36.382  50.831  0.00  0.00    +0.000 OA
BRANCH  12  14
ATOM     13  O   UNL     1      45.789 -35.717  51.951  0.00  0.00    +0.000 OA
ATOM     14  C   UNL     1      46.990 -35.877  51.837  0.00  0.00    +0.000 C 
ATOM     15  C   UNL     1      47.780 -35.436  53.023  0.00  0.00    +0.000 C 
ENDBRANCH  12  14
ENDBRANCH  11  12
ENDBRANCH  10  11
ENDBRANCH   3   9
BRANCH   1  16
ATOM     16  O   UNL     1      48.562 -46.008  50.781  0.00  0.00    +0.000 OA
BRANCH  16  18
ATOM     17  O   UNL     1      47.084 -46.605  49.087  0.00  0.00    +0.000 OA
ATOM     18  C   UNL     1      47.425 -46.616  50.264  0.00  0.00    +0.000 C 
BRANCH  18  19
ATOM     19  C   UNL     1      46.651 -47.281  51.341  0.00  0.00    +0.000 C 
ATOM     20  C   UNL     1      47.237 -48.343  52.262  0.00  0.00    +0.000 C 
BRANCH  19  21
ATOM     21  C   UNL     1      45.293 -46.916  51.541  0.00  0.00    +0.000 C 
ATOM     22  C   UNL     1      43.818 -46.527  51.754  0.00  0.00    +0.000 C 
ENDBRANCH  19  21
ENDBRANCH  18  19
ENDBRANCH  16  18
ENDBRANCH   1  16
TORSDOF 9
ENDMDL
MODEL 3
REMARK VINA RESULT:      -5.3      8.093     13.458
REMARK  Name = 122180587_TripolinolateA.pdbqt.pdb
REMARK  9 active torsions:
REMARK  status: ('A' for Active; 'I' for Inactive)
REMARK    1  A    between atoms: C_1  and  O_16
REMARK    2  A    between atoms: C_2  and  O_7
REMARK    3  A    between atoms: C_3  and  C_9
REMARK    4  A    between atoms: C_10  and  C_11
REMARK    5  A    between atoms: C_11  and  O_12
REMARK    6  A    between atoms: O_12  and  C_14
REMARK    7  A    between atoms: O_16  and  C_18
REMARK    8  A    between atoms: C_18  and  C_19
REMARK    9  A    between atoms: C_19  and  C_21
REMARK                            x       y       z     vdW  Elec       q    Type
REMARK                         _______ _______ _______ _____ _____    ______ ____
ROOT
ATOM      1  C   UNL     1      50.717 -46.219  49.648  0.00  0.00    +0.000 A 
ATOM      2  C   UNL     1      49.372 -45.905  49.869  0.00  0.00    +0.000 A 
ATOM      3  C   UNL     1      49.238 -47.798  51.379  0.00  0.00    +0.000 A 
ATOM      4  C   UNL     1      51.317 -47.324  50.254  0.00  0.00    +0.000 A 
ATOM      5  C   UNL     1      48.641 -46.707  50.748  0.00  0.00    +0.000 A 
ATOM      6  C   UNL     1      50.574 -48.109  51.130  0.00  0.00    +0.000 A 
ENDROOT
BRANCH   2   7
ATOM      7  O   UNL     1      48.856 -44.833  49.186  0.00  0.00    +0.000 OA
ATOM      8  C   UNL     1      48.523 -43.719  49.967  0.00  0.00    +0.000 C 
ENDBRANCH   2   7
BRANCH   3   9
ATOM      9  C   UNL     1      48.477 -48.603  52.277  0.00  0.00    +0.000 C 
ATOM     10  C   UNL     1      47.834 -49.281  53.032  0.00  0.00    +0.000 C 
BRANCH  10  11
ATOM     11  C   UNL     1      47.011 -50.143  53.995  0.00  0.00    +0.000 C 
BRANCH  11  12
ATOM     12  O   UNL     1      46.294 -50.892  54.829  0.00  0.00    +0.000 OA
BRANCH  12  14
ATOM     13  O   UNL     1      47.021 -52.358  56.500  0.00  0.00    +0.000 OA
ATOM     14  C   UNL     1      46.949 -51.945  55.357  0.00  0.00    +0.000 C 
ATOM     15  C   UNL     1      47.723 -52.749  54.367  0.00  0.00    +0.000 C 
ENDBRANCH  12  14
ENDBRANCH  11  12
ENDBRANCH  10  11
ENDBRANCH   3   9
BRANCH   1  16
ATOM     16  O   UNL     1      51.468 -45.468  48.733  0.00  0.00    +0.000 OA
BRANCH  16  18
ATOM     17  O   UNL     1      51.177 -46.690  46.776  0.00  0.00    +0.000 OA
ATOM     18  C   UNL     1      51.899 -46.204  47.637  0.00  0.00    +0.000 C 
BRANCH  18  19
ATOM     19  C   UNL     1      53.377 -46.345  47.650  0.00  0.00    +0.000 C 
ATOM     20  C   UNL     1      54.311 -45.326  48.290  0.00  0.00    +0.000 C 
BRANCH  19  21
ATOM     21  C   UNL     1      53.966 -47.486  47.044  0.00  0.00    +0.000 C 
ATOM     22  C   UNL     1      54.611 -48.723  46.392  0.00  0.00    +0.000 C 
ENDBRANCH  19  21
ENDBRANCH  18  19
ENDBRANCH  16  18
ENDBRANCH   1  16
TORSDOF 9
ENDMDL
MODEL 4
REMARK VINA RESULT:      -5.2      1.341      2.658
REMARK  Name = 122180587_TripolinolateA.pdbqt.pdb
REMARK  9 active torsions:
REMARK  status: ('A' for Active; 'I' for Inactive)
REMARK    1  A    between atoms: C_1  and  O_16
REMARK    2  A    between atoms: C_2  and  O_7
REMARK    3  A    between atoms: C_3  and  C_9
REMARK    4  A    between atoms: C_10  and  C_11
REMARK    5  A    between atoms: C_11  and  O_12
REMARK    6  A    between atoms: O_12  and  C_14
REMARK    7  A    between atoms: O_16  and  C_18
REMARK    8  A    between atoms: C_18  and  C_19
REMARK    9  A    between atoms: C_19  and  C_21
REMARK                            x       y       z     vdW  Elec       q    Type
REMARK                         _______ _______ _______ _____ _____    ______ ____
ROOT
ATOM      1  C   UNL     1      49.294 -39.544  49.553  0.00  0.00    +0.000 A 
ATOM      2  C   UNL     1      49.700 -39.588  48.215  0.00  0.00    +0.000 A 
ATOM      3  C   UNL     1      49.549 -37.167  48.150  0.00  0.00    +0.000 A 
ATOM      4  C   UNL     1      48.986 -38.336  50.182  0.00  0.00    +0.000 A 
ATOM      5  C   UNL     1      49.829 -38.381  47.522  0.00  0.00    +0.000 A 
ATOM      6  C   UNL     1      49.125 -37.145  49.478  0.00  0.00    +0.000 A 
ENDROOT
BRANCH   2   7
ATOM      7  O   UNL     1      49.926 -40.825  47.666  0.00  0.00    +0.000 OA
ATOM      8  C   UNL     1      49.403 -41.023  46.382  0.00  0.00    +0.000 C 
ENDBRANCH   2   7
BRANCH   3   9
ATOM      9  C   UNL     1      49.692 -35.946  47.428  0.00  0.00    +0.000 C 
ATOM     10  C   UNL     1      49.810 -34.916  46.821  0.00  0.00    +0.000 C 
BRANCH  10  11
ATOM     11  C   UNL     1      49.957 -33.603  46.046  0.00  0.00    +0.000 C 
BRANCH  11  12
ATOM     12  O   UNL     1      50.084 -32.464  45.370  0.00  0.00    +0.000 OA
BRANCH  12  14
ATOM     13  O   UNL     1      51.940 -31.130  44.878  0.00  0.00    +0.000 OA
ATOM     14  C   UNL     1      51.219 -31.779  45.613  0.00  0.00    +0.000 C 
ATOM     15  C   UNL     1      51.674 -31.823  47.032  0.00  0.00    +0.000 C 
ENDBRANCH  12  14
ENDBRANCH  11  12
ENDBRANCH  10  11
ENDBRANCH   3   9
BRANCH   1  16
ATOM     16  O   UNL     1      49.104 -40.737  50.263  0.00  0.00    +0.000 OA
BRANCH  16  18
ATOM     17  O   UNL     1      46.800 -40.463  50.427  0.00  0.00    +0.000 OA
ATOM     18  C   UNL     1      47.785 -41.173  50.266  0.00  0.00    +0.000 C 
BRANCH  18  19
ATOM     19  C   UNL     1      47.719 -42.642  50.061  0.00  0.00    +0.000 C 
ATOM     20  C   UNL     1      47.553 -43.291  48.693  0.00  0.00    +0.000 C 
BRANCH  19  21
ATOM     21  C   UNL     1      47.819 -43.500  51.187  0.00  0.00    +0.000 C 
ATOM     22  C   UNL     1      47.925 -44.437  52.405  0.00  0.00    +0.000 C 
ENDBRANCH  19  21
ENDBRANCH  18  19
ENDBRANCH  16  18
ENDBRANCH   1  16
TORSDOF 9
ENDMDL
MODEL 5
REMARK VINA RESULT:      -5.1      4.975      8.876
REMARK  Name = 122180587_TripolinolateA.pdbqt.pdb
REMARK  9 active torsions:
REMARK  status: ('A' for Active; 'I' for Inactive)
REMARK    1  A    between atoms: C_1  and  O_16
REMARK    2  A    between atoms: C_2  and  O_7
REMARK    3  A    between atoms: C_3  and  C_9
REMARK    4  A    between atoms: C_10  and  C_11
REMARK    5  A    between atoms: C_11  and  O_12
REMARK    6  A    between atoms: O_12  and  C_14
REMARK    7  A    between atoms: O_16  and  C_18
REMARK    8  A    between atoms: C_18  and  C_19
REMARK    9  A    between atoms: C_19  and  C_21
REMARK                            x       y       z     vdW  Elec       q    Type
REMARK                         _______ _______ _______ _____ _____    ______ ____
ROOT
ATOM      1  C   UNL     1      51.451 -46.009  48.094  0.00  0.00    +0.000 A 
ATOM      2  C   UNL     1      50.963 -46.002  49.405  0.00  0.00    +0.000 A 
ATOM      3  C   UNL     1      50.014 -43.810  48.978  0.00  0.00    +0.000 A 
ATOM      4  C   UNL     1      51.257 -44.924  47.237  0.00  0.00    +0.000 A 
ATOM      5  C   UNL     1      50.236 -44.888  49.834  0.00  0.00    +0.000 A 
ATOM      6  C   UNL     1      50.526 -43.826  47.682  0.00  0.00    +0.000 A 
ENDROOT
BRANCH   2   7
ATOM      7  O   UNL     1      51.251 -47.089  50.190  0.00  0.00    +0.000 OA
ATOM      8  C   UNL     1      50.153 -47.698  50.811  0.00  0.00    +0.000 C 
ENDBRANCH   2   7
BRANCH   3   9
ATOM      9  C   UNL     1      49.265 -42.685  49.433  0.00  0.00    +0.000 C 
ATOM     10  C   UNL     1      48.634 -41.738  49.815  0.00  0.00    +0.000 C 
BRANCH  10  11
ATOM     11  C   UNL     1      47.826 -40.529  50.299  0.00  0.00    +0.000 C 
BRANCH  11  12
ATOM     12  O   UNL     1      47.122 -39.480  50.718  0.00  0.00    +0.000 OA
BRANCH  12  14
ATOM     13  O   UNL     1      49.047 -38.223  51.146  0.00  0.00    +0.000 OA
ATOM     14  C   UNL     1      47.849 -38.380  50.999  0.00  0.00    +0.000 C 
ATOM     15  C   UNL     1      47.044 -37.135  51.159  0.00  0.00    +0.000 C 
ENDBRANCH  12  14
ENDBRANCH  11  12
ENDBRANCH  10  11
ENDBRANCH   3   9
BRANCH   1  16
ATOM     16  O   UNL     1      52.228 -47.086  47.645  0.00  0.00    +0.000 OA
BRANCH  16  18
ATOM     17  O   UNL     1      54.183 -46.282  48.615  0.00  0.00    +0.000 OA
ATOM     18  C   UNL     1      53.594 -46.839  47.697  0.00  0.00    +0.000 C 
BRANCH  18  19
ATOM     19  C   UNL     1      54.262 -47.331  46.466  0.00  0.00    +0.000 C 
ATOM     20  C   UNL     1      54.769 -46.413  45.363  0.00  0.00    +0.000 C 
BRANCH  19  21
ATOM     21  C   UNL     1      54.450 -48.728  46.296  0.00  0.00    +0.000 C 
ATOM     22  C   UNL     1      54.646 -50.245  46.109  0.00  0.00    +0.000 C 
ENDBRANCH  19  21
ENDBRANCH  18  19
ENDBRANCH  16  18
ENDBRANCH   1  16
TORSDOF 9
ENDMDL
MODEL 6
REMARK VINA RESULT:      -5.1      1.790      2.095
REMARK  Name = 122180587_TripolinolateA.pdbqt.pdb
REMARK  9 active torsions:
REMARK  status: ('A' for Active; 'I' for Inactive)
REMARK    1  A    between atoms: C_1  and  O_16
REMARK    2  A    between atoms: C_2  and  O_7
REMARK    3  A    between atoms: C_3  and  C_9
REMARK    4  A    between atoms: C_10  and  C_11
REMARK    5  A    between atoms: C_11  and  O_12
REMARK    6  A    between atoms: O_12  and  C_14
REMARK    7  A    between atoms: O_16  and  C_18
REMARK    8  A    between atoms: C_18  and  C_19
REMARK    9  A    between atoms: C_19  and  C_21
REMARK                            x       y       z     vdW  Elec       q    Type
REMARK                         _______ _______ _______ _____ _____    ______ ____
ROOT
ATOM      1  C   UNL     1      49.398 -39.517  48.082  0.00  0.00    +0.000 A 
ATOM      2  C   UNL     1      49.972 -38.528  48.888  0.00  0.00    +0.000 A 
ATOM      3  C   UNL     1      49.437 -36.900  47.172  0.00  0.00    +0.000 A 
ATOM      4  C   UNL     1      48.876 -39.219  46.822  0.00  0.00    +0.000 A 
ATOM      5  C   UNL     1      49.979 -37.212  48.418  0.00  0.00    +0.000 A 
ATOM      6  C   UNL     1      48.889 -37.902  46.372  0.00  0.00    +0.000 A 
ENDROOT
BRANCH   2   7
ATOM      7  O   UNL     1      50.509 -38.927  50.086  0.00  0.00    +0.000 OA
ATOM      8  C   UNL     1      49.905 -38.390  51.230  0.00  0.00    +0.000 C 
ENDBRANCH   2   7
BRANCH   3   9
ATOM      9  C   UNL     1      49.450 -35.550  46.711  0.00  0.00    +0.000 C 
ATOM     10  C   UNL     1      49.459 -34.413  46.324  0.00  0.00    +0.000 C 
BRANCH  10  11
ATOM     11  C   UNL     1      49.467 -32.962  45.833  0.00  0.00    +0.000 C 
BRANCH  11  12
ATOM     12  O   UNL     1      49.476 -31.702  45.406  0.00  0.00    +0.000 OA
BRANCH  12  14
ATOM     13  O   UNL     1      51.253 -31.023  46.766  0.00  0.00    +0.000 OA
ATOM     14  C   UNL     1      50.221 -30.854  46.142  0.00  0.00    +0.000 C 
ATOM     15  C   UNL     1      49.690 -29.462  46.205  0.00  0.00    +0.000 C 
ENDBRANCH  12  14
ENDBRANCH  11  12
ENDBRANCH  10  11
ENDBRANCH   3   9
BRANCH   1  16
ATOM     16  O   UNL     1      49.419 -40.855  48.498  0.00  0.00    +0.000 OA
BRANCH  16  18
ATOM     17  O   UNL     1      47.224 -40.674  49.243  0.00  0.00    +0.000 OA
ATOM     18  C   UNL     1      48.325 -41.208  49.278  0.00  0.00    +0.000 C 
BRANCH  18  19
ATOM     19  C   UNL     1      48.672 -42.326  50.191  0.00  0.00    +0.000 C 
ATOM     20  C   UNL     1      48.161 -42.430  51.622  0.00  0.00    +0.000 C 
BRANCH  19  21
ATOM     21  C   UNL     1      49.517 -43.364  49.718  0.00  0.00    +0.000 C 
ATOM     22  C   UNL     1      50.429 -44.496  49.208  0.00  0.00    +0.000 C 
ENDBRANCH  19  21
ENDBRANCH  18  19
ENDBRANCH  16  18
ENDBRANCH   1  16
TORSDOF 9
ENDMDL
MODEL 7
REMARK VINA RESULT:      -5.0      3.168      9.337
REMARK  Name = 122180587_TripolinolateA.pdbqt.pdb
REMARK  9 active torsions:
REMARK  status: ('A' for Active; 'I' for Inactive)
REMARK    1  A    between atoms: C_1  and  O_16
REMARK    2  A    between atoms: C_2  and  O_7
REMARK    3  A    between atoms: C_3  and  C_9
REMARK    4  A    between atoms: C_10  and  C_11
REMARK    5  A    between atoms: C_11  and  O_12
REMARK    6  A    between atoms: O_12  and  C_14
REMARK    7  A    between atoms: O_16  and  C_18
REMARK    8  A    between atoms: C_18  and  C_19
REMARK    9  A    between atoms: C_19  and  C_21
REMARK                            x       y       z     vdW  Elec       q    Type
REMARK                         _______ _______ _______ _____ _____    ______ ____
ROOT
ATOM      1  C   UNL     1      49.747 -39.592  46.874  0.00  0.00    +0.000 A 
ATOM      2  C   UNL     1      49.876 -39.149  48.194  0.00  0.00    +0.000 A 
ATOM      3  C   UNL     1      49.059 -41.309  48.938  0.00  0.00    +0.000 A 
ATOM      4  C   UNL     1      49.251 -40.863  46.576  0.00  0.00    +0.000 A 
ATOM      5  C   UNL     1      49.530 -40.028  49.224  0.00  0.00    +0.000 A 
ATOM      6  C   UNL     1      48.916 -41.726  47.615  0.00  0.00    +0.000 A 
ENDROOT
BRANCH   2   7
ATOM      7  O   UNL     1      50.319 -37.865  48.386  0.00  0.00    +0.000 OA
ATOM      8  C   UNL     1      49.539 -37.076  49.240  0.00  0.00    +0.000 C 
ENDBRANCH   2   7
BRANCH   3   9
ATOM      9  C   UNL     1      48.716 -42.193  50.003  0.00  0.00    +0.000 C 
ATOM     10  C   UNL     1      48.427 -42.937  50.901  0.00  0.00    +0.000 C 
BRANCH  10  11
ATOM     11  C   UNL     1      48.060 -43.882  52.049  0.00  0.00    +0.000 C 
BRANCH  11  12
ATOM     12  O   UNL     1      47.740 -44.704  53.046  0.00  0.00    +0.000 OA
BRANCH  12  14
ATOM     13  O   UNL     1      45.899 -46.134  53.230  0.00  0.00    +0.000 OA
ATOM     14  C   UNL     1      46.917 -45.717  52.710  0.00  0.00    +0.000 C 
ATOM     15  C   UNL     1      47.324 -46.460  51.482  0.00  0.00    +0.000 C 
ENDBRANCH  12  14
ENDBRANCH  11  12
ENDBRANCH  10  11
ENDBRANCH   3   9
BRANCH   1  16
ATOM     16  O   UNL     1      50.034 -38.721  45.814  0.00  0.00    +0.000 OA
BRANCH  16  18
ATOM     17  O   UNL     1      47.767 -38.294  45.526  0.00  0.00    +0.000 OA
ATOM     18  C   UNL     1      48.941 -37.967  45.407  0.00  0.00    +0.000 C 
BRANCH  18  19
ATOM     19  C   UNL     1      49.385 -36.696  44.782  0.00  0.00    +0.000 C 
ATOM     20  C   UNL     1      49.470 -36.488  43.275  0.00  0.00    +0.000 C 
BRANCH  19  21
ATOM     21  C   UNL     1      49.747 -35.607  45.617  0.00  0.00    +0.000 C 
ATOM     22  C   UNL     1      50.146 -34.422  46.517  0.00  0.00    +0.000 C 
ENDBRANCH  19  21
ENDBRANCH  18  19
ENDBRANCH  16  18
ENDBRANCH   1  16
TORSDOF 9
ENDMDL
MODEL 8
REMARK VINA RESULT:      -4.9     11.552     16.655
REMARK  Name = 122180587_TripolinolateA.pdbqt.pdb
REMARK  9 active torsions:
REMARK  status: ('A' for Active; 'I' for Inactive)
REMARK    1  A    between atoms: C_1  and  O_16
REMARK    2  A    between atoms: C_2  and  O_7
REMARK    3  A    between atoms: C_3  and  C_9
REMARK    4  A    between atoms: C_10  and  C_11
REMARK    5  A    between atoms: C_11  and  O_12
REMARK    6  A    between atoms: O_12  and  C_14
REMARK    7  A    between atoms: O_16  and  C_18
REMARK    8  A    between atoms: C_18  and  C_19
REMARK    9  A    between atoms: C_19  and  C_21
REMARK                            x       y       z     vdW  Elec       q    Type
REMARK                         _______ _______ _______ _____ _____    ______ ____
ROOT
ATOM      1  C   UNL     1      45.780 -53.900  55.910  0.00  0.00    +0.000 A 
ATOM      2  C   UNL     1      47.098 -53.435  55.856  0.00  0.00    +0.000 A 
ATOM      3  C   UNL     1      46.324 -51.570  54.512  0.00  0.00    +0.000 A 
ATOM      4  C   UNL     1      44.744 -53.235  55.251  0.00  0.00    +0.000 A 
ATOM      5  C   UNL     1      47.356 -52.256  55.152  0.00  0.00    +0.000 A 
ATOM      6  C   UNL     1      45.020 -52.060  54.558  0.00  0.00    +0.000 A 
ENDROOT
BRANCH   2   7
ATOM      7  O   UNL     1      48.057 -54.186  56.488  0.00  0.00    +0.000 OA
ATOM      8  C   UNL     1      48.855 -53.499  57.411  0.00  0.00    +0.000 C 
ENDBRANCH   2   7
BRANCH   3   9
ATOM      9  C   UNL     1      46.606 -50.366  53.802  0.00  0.00    +0.000 C 
ATOM     10  C   UNL     1      46.844 -49.351  53.206  0.00  0.00    +0.000 C 
BRANCH  10  11
ATOM     11  C   UNL     1      47.145 -48.054  52.449  0.00  0.00    +0.000 C 
BRANCH  11  12
ATOM     12  O   UNL     1      47.408 -46.926  51.792  0.00  0.00    +0.000 OA
BRANCH  12  14
ATOM     13  O   UNL     1      46.597 -44.747  52.038  0.00  0.00    +0.000 OA
ATOM     14  C   UNL     1      46.485 -45.954  51.933  0.00  0.00    +0.000 C 
ATOM     15  C   UNL     1      45.076 -46.442  51.967  0.00  0.00    +0.000 C 
ENDBRANCH  12  14
ENDBRANCH  11  12
ENDBRANCH  10  11
ENDBRANCH   3   9
BRANCH   1  16
ATOM     16  O   UNL     1      45.492 -55.107  56.563  0.00  0.00    +0.000 OA
BRANCH  16  18
ATOM     17  O   UNL     1      45.648 -54.363  58.761  0.00  0.00    +0.000 OA
ATOM     18  C   UNL     1      45.040 -54.935  57.865  0.00  0.00    +0.000 C 
BRANCH  18  19
ATOM     19  C   UNL     1      43.705 -55.559  58.042  0.00  0.00    +0.000 C 
ATOM     20  C   UNL     1      42.661 -55.635  56.936  0.00  0.00    +0.000 C 
BRANCH  19  21
ATOM     21  C   UNL     1      43.370 -56.125  59.300  0.00  0.00    +0.000 C 
ATOM     22  C   UNL     1      43.014 -56.744  60.665  0.00  0.00    +0.000 C 
ENDBRANCH  19  21
ENDBRANCH  18  19
ENDBRANCH  16  18
ENDBRANCH   1  16
TORSDOF 9
ENDMDL
MODEL 9
REMARK VINA RESULT:      -4.9      7.898     14.695
REMARK  Name = 122180587_TripolinolateA.pdbqt.pdb
REMARK  9 active torsions:
REMARK  status: ('A' for Active; 'I' for Inactive)
REMARK    1  A    between atoms: C_1  and  O_16
REMARK    2  A    between atoms: C_2  and  O_7
REMARK    3  A    between atoms: C_3  and  C_9
REMARK    4  A    between atoms: C_10  and  C_11
REMARK    5  A    between atoms: C_11  and  O_12
REMARK    6  A    between atoms: O_12  and  C_14
REMARK    7  A    between atoms: O_16  and  C_18
REMARK    8  A    between atoms: C_18  and  C_19
REMARK    9  A    between atoms: C_19  and  C_21
REMARK                            x       y       z     vdW  Elec       q    Type
REMARK                         _______ _______ _______ _____ _____    ______ ____
ROOT
ATOM      1  C   UNL     1      47.418 -47.142  51.461  0.00  0.00    +0.000 A 
ATOM      2  C   UNL     1      46.267 -47.280  52.243  0.00  0.00    +0.000 A 
ATOM      3  C   UNL     1      47.209 -49.316  53.168  0.00  0.00    +0.000 A 
ATOM      4  C   UNL     1      48.444 -48.089  51.499  0.00  0.00    +0.000 A 
ATOM      5  C   UNL     1      46.179 -48.378  53.103  0.00  0.00    +0.000 A 
ATOM      6  C   UNL     1      48.339 -49.174  52.364  0.00  0.00    +0.000 A 
ENDROOT
BRANCH   2   7
ATOM      7  O   UNL     1      45.289 -46.329  52.097  0.00  0.00    +0.000 OA
ATOM      8  C   UNL     1      44.120 -46.755  51.453  0.00  0.00    +0.000 C 
ENDBRANCH   2   7
BRANCH   3   9
ATOM      9  C   UNL     1      47.103 -50.427  54.055  0.00  0.00    +0.000 C 
ATOM     10  C   UNL     1      47.012 -51.364  54.801  0.00  0.00    +0.000 C 
BRANCH  10  11
ATOM     11  C   UNL     1      46.893 -52.560  55.751  0.00  0.00    +0.000 C 
BRANCH  11  12
ATOM     12  O   UNL     1      46.787 -53.598  56.577  0.00  0.00    +0.000 OA
BRANCH  12  14
ATOM     13  O   UNL     1      48.089 -55.477  57.065  0.00  0.00    +0.000 OA
ATOM     14  C   UNL     1      47.914 -54.318  56.737  0.00  0.00    +0.000 C 
ATOM     15  C   UNL     1      49.172 -53.564  56.464  0.00  0.00    +0.000 C 
ENDBRANCH  12  14
ENDBRANCH  11  12
ENDBRANCH  10  11
ENDBRANCH   3   9
BRANCH   1  16
ATOM     16  O   UNL     1      47.519 -46.082  50.550  0.00  0.00    +0.000 OA
BRANCH  16  18
ATOM     17  O   UNL     1      48.278 -44.502  52.078  0.00  0.00    +0.000 OA
ATOM     18  C   UNL     1      48.346 -45.055  50.988  0.00  0.00    +0.000 C 
BRANCH  18  19
ATOM     19  C   UNL     1      49.333 -44.695  49.939  0.00  0.00    +0.000 C 
ATOM     20  C   UNL     1      49.392 -43.323  49.279  0.00  0.00    +0.000 C 
BRANCH  19  21
ATOM     21  C   UNL     1      50.282 -45.665  49.523  0.00  0.00    +0.000 C 
ATOM     22  C   UNL     1      51.306 -46.721  49.065  0.00  0.00    +0.000 C 
ENDBRANCH  19  21
ENDBRANCH  18  19
ENDBRANCH  16  18
ENDBRANCH   1  16
TORSDOF 9
ENDMDL
