MODEL 1
REMARK VINA RESULT:      -7.4      0.000      0.000
REMARK  Name = 122178712_SalternamideA.pdbqt.pdb
REMARK  8 active torsions:
REMARK  status: ('A' for Active; 'I' for Inactive)
REMARK    1  A    between atoms: C_3  and  O_24
REMARK    2  A    between atoms: C_3  and  C_26
REMARK    3  A    between atoms: C_6  and  N_10
REMARK    4  A    between atoms: C_11  and  C_14
REMARK    5  A    between atoms: C_13  and  C_15
REMARK    6  A    between atoms: C_27  and  C_28
REMARK    7  A    between atoms: C_29  and  C_31
REMARK    8  A    between atoms: C_31  and  O_32
REMARK                            x       y       z     vdW  Elec       q    Type
REMARK                         _______ _______ _______ _____ _____    ______ ____
ROOT
ATOM      1 CL   UNL     1      44.059 -47.449  49.261  0.00  0.00    +0.000 Cl
ATOM      2  O   UNL     1      46.968 -46.916  48.167  0.00  0.00    +0.000 OA
ATOM      3  C   UNL     1      46.612 -47.406  52.432  0.00  0.00    +0.000 C 
ATOM      4  C   UNL     1      47.788 -47.202  51.570  0.00  0.00    +0.000 C 
ATOM      5  C   UNL     1      45.575 -47.396  51.386  0.00  0.00    +0.000 C 
ATOM      6  C   UNL     1      48.058 -47.030  50.308  0.00  0.00    +0.000 C 
ATOM      7  C   UNL     1      45.520 -47.248  50.095  0.00  0.00    +0.000 C 
ATOM      8  C   UNL     1      46.840 -47.047  49.377  0.00  0.00    +0.000 C 
ENDROOT
BRANCH   6  10
ATOM      9  O   UNL     1      50.660 -47.852  51.357  0.00  0.00    +0.000 OA
ATOM     10  N   UNL     1      49.302 -46.851  49.762  0.00  0.00    +0.000 N 
ATOM     11  C   UNL     1      50.497 -47.261  50.299  0.00  0.00    +0.000 C 
ATOM     12  H   UNL     1      49.317 -46.362  48.869  0.00  0.00    +0.000 HD
BRANCH  11  14
ATOM     13  C   UNL     1      52.632 -46.677  48.851  0.00  0.00    +0.000 C 
ATOM     14  C   UNL     1      51.658 -46.942  49.503  0.00  0.00    +0.000 C 
BRANCH  13  15
ATOM     15  C   UNL     1      53.785 -46.369  48.087  0.00  0.00    +0.000 C 
ATOM     16  C   UNL     1      54.394 -45.004  48.244  0.00  0.00    +0.000 C 
ATOM     17  C   UNL     1      54.380 -47.233  47.146  0.00  0.00    +0.000 C 
ATOM     18  C   UNL     1      54.987 -48.087  46.204  0.00  0.00    +0.000 C 
ATOM     19  C   UNL     1      54.670 -49.551  46.291  0.00  0.00    +0.000 C 
ATOM     20  C   UNL     1      55.847 -47.662  45.178  0.00  0.00    +0.000 C 
ATOM     21  C   UNL     1      56.631 -47.273  44.232  0.00  0.00    +0.000 C 
ATOM     22  C   UNL     1      58.101 -47.159  44.494  0.00  0.00    +0.000 C 
ATOM     23  C   UNL     1      56.043 -46.625  43.017  0.00  0.00    +0.000 C 
ENDBRANCH  13  15
ENDBRANCH  11  14
ENDBRANCH   6  10
BRANCH   3  24
ATOM     24  O   UNL     1      46.441 -46.279  53.266  0.00  0.00    +0.000 OA
ATOM     25  H   UNL     1      46.411 -46.623  54.176  0.00  0.00    +0.000 HD
ENDBRANCH   3  24
BRANCH   3  26
ATOM     26  C   UNL     1      46.651 -48.628  53.225  0.00  0.00    +0.000 C 
ATOM     27  C   UNL     1      46.692 -49.909  54.064  0.00  0.00    +0.000 C 
BRANCH  27  28
ATOM     28  C   UNL     1      46.731 -51.188  54.906  0.00  0.00    +0.000 C 
ATOM     29  C   UNL     1      46.769 -52.465  55.750  0.00  0.00    +0.000 C 
BRANCH  29  31
ATOM     30  O   UNL     1      46.868 -54.779  56.062  0.00  0.00    +0.000 OA
ATOM     31  C   UNL     1      46.803 -53.659  56.539  0.00  0.00    +0.000 C 
BRANCH  31  32
ATOM     32  O   UNL     1      46.757 -53.440  57.865  0.00  0.00    +0.000 OA
ATOM     33  H   UNL     1      46.531 -54.318  58.236  0.00  0.00    +0.000 HD
ENDBRANCH  31  32
ENDBRANCH  29  31
ENDBRANCH  27  28
ENDBRANCH   3  26
TORSDOF 8
ENDMDL
MODEL 2
REMARK VINA RESULT:      -7.3      5.538     11.608
REMARK  Name = 122178712_SalternamideA.pdbqt.pdb
REMARK  8 active torsions:
REMARK  status: ('A' for Active; 'I' for Inactive)
REMARK    1  A    between atoms: C_3  and  O_24
REMARK    2  A    between atoms: C_3  and  C_26
REMARK    3  A    between atoms: C_6  and  N_10
REMARK    4  A    between atoms: C_11  and  C_14
REMARK    5  A    between atoms: C_13  and  C_15
REMARK    6  A    between atoms: C_27  and  C_28
REMARK    7  A    between atoms: C_29  and  C_31
REMARK    8  A    between atoms: C_31  and  O_32
REMARK                            x       y       z     vdW  Elec       q    Type
REMARK                         _______ _______ _______ _____ _____    ______ ____
ROOT
ATOM      1 CL   UNL     1      49.180 -47.444  49.344  0.00  0.00    +0.000 Cl
ATOM      2  O   UNL     1      49.271 -49.639  51.605  0.00  0.00    +0.000 OA
ATOM      3  C   UNL     1      46.274 -46.578  52.059  0.00  0.00    +0.000 C 
ATOM      4  C   UNL     1      46.577 -47.771  52.867  0.00  0.00    +0.000 C 
ATOM      5  C   UNL     1      47.314 -46.744  51.031  0.00  0.00    +0.000 C 
ATOM      6  C   UNL     1      47.426 -48.758  52.873  0.00  0.00    +0.000 C 
ATOM      7  C   UNL     1      48.277 -47.579  50.770  0.00  0.00    +0.000 C 
ATOM      8  C   UNL     1      48.435 -48.751  51.718  0.00  0.00    +0.000 C 
ENDROOT
BRANCH   6  10
ATOM      9  O   UNL     1      45.605 -51.016  53.231  0.00  0.00    +0.000 OA
ATOM     10  N   UNL     1      47.483 -49.773  53.792  0.00  0.00    +0.000 N 
ATOM     11  C   UNL     1      46.597 -50.815  53.916  0.00  0.00    +0.000 C 
ATOM     12  H   UNL     1      48.268 -49.729  54.439  0.00  0.00    +0.000 HD
BRANCH  11  14
ATOM     13  C   UNL     1      47.169 -52.529  55.847  0.00  0.00    +0.000 C 
ATOM     14  C   UNL     1      46.905 -51.747  54.974  0.00  0.00    +0.000 C 
BRANCH  13  15
ATOM     15  C   UNL     1      47.489 -53.452  56.873  0.00  0.00    +0.000 C 
ATOM     16  C   UNL     1      48.923 -53.560  57.307  0.00  0.00    +0.000 C 
ATOM     17  C   UNL     1      46.566 -54.322  57.488  0.00  0.00    +0.000 C 
ATOM     18  C   UNL     1      45.653 -55.195  58.114  0.00  0.00    +0.000 C 
ATOM     19  C   UNL     1      44.193 -54.867  58.003  0.00  0.00    +0.000 C 
ATOM     20  C   UNL     1      46.013 -56.360  58.811  0.00  0.00    +0.000 C 
ATOM     21  C   UNL     1      46.341 -57.433  59.445  0.00  0.00    +0.000 C 
ATOM     22  C   UNL     1      46.666 -57.354  60.905  0.00  0.00    +0.000 C 
ATOM     23  C   UNL     1      46.719 -58.655  58.667  0.00  0.00    +0.000 C 
ENDBRANCH  13  15
ENDBRANCH  11  14
ENDBRANCH   6  10
BRANCH   3  24
ATOM     24  O   UNL     1      46.550 -45.418  52.817  0.00  0.00    +0.000 OA
ATOM     25  H   UNL     1      46.009 -45.490  53.622  0.00  0.00    +0.000 HD
ENDBRANCH   3  24
BRANCH   3  26
ATOM     26  C   UNL     1      44.914 -46.535  51.535  0.00  0.00    +0.000 C 
ATOM     27  C   UNL     1      43.485 -46.484  50.988  0.00  0.00    +0.000 C 
BRANCH  27  28
ATOM     28  C   UNL     1      42.055 -46.430  50.442  0.00  0.00    +0.000 C 
ATOM     29  C   UNL     1      40.625 -46.379  49.896  0.00  0.00    +0.000 C 
BRANCH  29  31
ATOM     30  O   UNL     1      38.833 -47.155  48.613  0.00  0.00    +0.000 OA
ATOM     31  C   UNL     1      39.288 -46.331  49.387  0.00  0.00    +0.000 C 
BRANCH  31  32
ATOM     32  O   UNL     1      38.568 -45.289  49.839  0.00  0.00    +0.000 OA
ATOM     33  H   UNL     1      37.683 -45.432  49.445  0.00  0.00    +0.000 HD
ENDBRANCH  31  32
ENDBRANCH  29  31
ENDBRANCH  27  28
ENDBRANCH   3  26
TORSDOF 8
ENDMDL
MODEL 3
REMARK VINA RESULT:      -7.1      4.507     11.461
REMARK  Name = 122178712_SalternamideA.pdbqt.pdb
REMARK  8 active torsions:
REMARK  status: ('A' for Active; 'I' for Inactive)
REMARK    1  A    between atoms: C_3  and  O_24
REMARK    2  A    between atoms: C_3  and  C_26
REMARK    3  A    between atoms: C_6  and  N_10
REMARK    4  A    between atoms: C_11  and  C_14
REMARK    5  A    between atoms: C_13  and  C_15
REMARK    6  A    between atoms: C_27  and  C_28
REMARK    7  A    between atoms: C_29  and  C_31
REMARK    8  A    between atoms: C_31  and  O_32
REMARK                            x       y       z     vdW  Elec       q    Type
REMARK                         _______ _______ _______ _____ _____    ______ ____
ROOT
ATOM      1 CL   UNL     1      49.341 -48.817  46.280  0.00  0.00    +0.000 Cl
ATOM      2  O   UNL     1      48.308 -50.511  48.730  0.00  0.00    +0.000 OA
ATOM      3  C   UNL     1      50.377 -46.857  49.695  0.00  0.00    +0.000 C 
ATOM      4  C   UNL     1      49.720 -47.859  50.551  0.00  0.00    +0.000 C 
ATOM      5  C   UNL     1      50.111 -47.483  48.389  0.00  0.00    +0.000 C 
ATOM      6  C   UNL     1      49.080 -48.987  50.423  0.00  0.00    +0.000 C 
ATOM      7  C   UNL     1      49.532 -48.559  47.943  0.00  0.00    +0.000 C 
ATOM      8  C   UNL     1      48.910 -49.474  48.979  0.00  0.00    +0.000 C 
ENDROOT
BRANCH   6  10
ATOM      9  O   UNL     1      47.024 -48.270  52.373  0.00  0.00    +0.000 OA
ATOM     10  N   UNL     1      48.557 -49.741  51.440  0.00  0.00    +0.000 N 
ATOM     11  C   UNL     1      47.587 -49.354  52.331  0.00  0.00    +0.000 C 
ATOM     12  H   UNL     1      48.943 -50.680  51.526  0.00  0.00    +0.000 HD
BRANCH  11  14
ATOM     13  C   UNL     1      46.929 -51.202  54.105  0.00  0.00    +0.000 C 
ATOM     14  C   UNL     1      47.221 -50.359  53.300  0.00  0.00    +0.000 C 
BRANCH  13  15
ATOM     15  C   UNL     1      46.591 -52.196  55.056  0.00  0.00    +0.000 C 
ATOM     16  C   UNL     1      47.613 -52.553  56.099  0.00  0.00    +0.000 C 
ATOM     17  C   UNL     1      45.382 -52.918  55.070  0.00  0.00    +0.000 C 
ATOM     18  C   UNL     1      44.175 -53.646  55.097  0.00  0.00    +0.000 C 
ATOM     19  C   UNL     1      43.005 -53.077  54.349  0.00  0.00    +0.000 C 
ATOM     20  C   UNL     1      43.999 -54.875  55.753  0.00  0.00    +0.000 C 
ATOM     21  C   UNL     1      43.837 -56.007  56.349  0.00  0.00    +0.000 C 
ATOM     22  C   UNL     1      43.428 -56.028  57.789  0.00  0.00    +0.000 C 
ATOM     23  C   UNL     1      44.379 -57.250  55.715  0.00  0.00    +0.000 C 
ENDBRANCH  13  15
ENDBRANCH  11  14
ENDBRANCH   6  10
BRANCH   3  24
ATOM     24  O   UNL     1      51.767 -46.871  49.942  0.00  0.00    +0.000 OA
ATOM     25  H   UNL     1      52.109 -46.032  49.589  0.00  0.00    +0.000 HD
ENDBRANCH   3  24
BRANCH   3  26
ATOM     26  C   UNL     1      49.846 -45.507  49.832  0.00  0.00    +0.000 C 
ATOM     27  C   UNL     1      49.286 -44.089  49.982  0.00  0.00    +0.000 C 
BRANCH  27  28
ATOM     28  C   UNL     1      48.725 -42.672  50.136  0.00  0.00    +0.000 C 
ATOM     29  C   UNL     1      48.167 -41.254  50.288  0.00  0.00    +0.000 C 
BRANCH  29  31
ATOM     30  O   UNL     1      48.337 -38.955  50.667  0.00  0.00    +0.000 OA
ATOM     31  C   UNL     1      47.645 -39.929  50.430  0.00  0.00    +0.000 C 
BRANCH  31  32
ATOM     32  O   UNL     1      46.311 -39.848  50.277  0.00  0.00    +0.000 OA
ATOM     33  H   UNL     1      45.975 -40.624  50.770  0.00  0.00    +0.000 HD
ENDBRANCH  31  32
ENDBRANCH  29  31
ENDBRANCH  27  28
ENDBRANCH   3  26
TORSDOF 8
ENDMDL
MODEL 4
REMARK VINA RESULT:      -6.7      9.550     10.817
REMARK  Name = 122178712_SalternamideA.pdbqt.pdb
REMARK  8 active torsions:
REMARK  status: ('A' for Active; 'I' for Inactive)
REMARK    1  A    between atoms: C_3  and  O_24
REMARK    2  A    between atoms: C_3  and  C_26
REMARK    3  A    between atoms: C_6  and  N_10
REMARK    4  A    between atoms: C_11  and  C_14
REMARK    5  A    between atoms: C_13  and  C_15
REMARK    6  A    between atoms: C_27  and  C_28
REMARK    7  A    between atoms: C_29  and  C_31
REMARK    8  A    between atoms: C_31  and  O_32
REMARK                            x       y       z     vdW  Elec       q    Type
REMARK                         _______ _______ _______ _____ _____    ______ ____
ROOT
ATOM      1 CL   UNL     1      45.648 -39.521  44.103  0.00  0.00    +0.000 Cl
ATOM      2  O   UNL     1      48.218 -41.171  43.321  0.00  0.00    +0.000 OA
ATOM      3  C   UNL     1      48.905 -37.523  45.508  0.00  0.00    +0.000 C 
ATOM      4  C   UNL     1      49.833 -38.561  45.028  0.00  0.00    +0.000 C 
ATOM      5  C   UNL     1      47.651 -38.113  45.013  0.00  0.00    +0.000 C 
ATOM      6  C   UNL     1      49.791 -39.681  44.366  0.00  0.00    +0.000 C 
ATOM      7  C   UNL     1      47.287 -39.167  44.342  0.00  0.00    +0.000 C 
ATOM      8  C   UNL     1      48.389 -40.124  43.933  0.00  0.00    +0.000 C 
ENDROOT
BRANCH   6  10
ATOM      9  O   UNL     1      51.631 -39.456  42.106  0.00  0.00    +0.000 OA
ATOM     10  N   UNL     1      50.862 -40.474  44.044  0.00  0.00    +0.000 N 
ATOM     11  C   UNL     1      51.697 -40.322  42.966  0.00  0.00    +0.000 C 
ATOM     12  H   UNL     1      51.034 -41.249  44.682  0.00  0.00    +0.000 HD
BRANCH  11  14
ATOM     13  C   UNL     1      53.637 -42.113  42.802  0.00  0.00    +0.000 C 
ATOM     14  C   UNL     1      52.751 -41.305  42.875  0.00  0.00    +0.000 C 
BRANCH  13  15
ATOM     15  C   UNL     1      54.685 -43.062  42.723  0.00  0.00    +0.000 C 
ATOM     16  C   UNL     1      55.450 -43.167  41.433  0.00  0.00    +0.000 C 
ATOM     17  C   UNL     1      55.037 -43.959  43.751  0.00  0.00    +0.000 C 
ATOM     18  C   UNL     1      55.401 -44.860  44.772  0.00  0.00    +0.000 C 
ATOM     19  C   UNL     1      54.951 -44.544  46.168  0.00  0.00    +0.000 C 
ATOM     20  C   UNL     1      56.134 -46.041  44.571  0.00  0.00    +0.000 C 
ATOM     21  C   UNL     1      56.801 -47.129  44.387  0.00  0.00    +0.000 C 
ATOM     22  C   UNL     1      58.297 -47.090  44.424  0.00  0.00    +0.000 C 
ATOM     23  C   UNL     1      56.104 -48.323  43.811  0.00  0.00    +0.000 C 
ENDBRANCH  13  15
ENDBRANCH  11  14
ENDBRANCH   6  10
BRANCH   3  24
ATOM     24  O   UNL     1      49.156 -36.317  44.818  0.00  0.00    +0.000 OA
ATOM     25  H   UNL     1      48.478 -36.261  44.123  0.00  0.00    +0.000 HD
ENDBRANCH   3  24
BRANCH   3  26
ATOM     26  C   UNL     1      48.938 -37.305  46.949  0.00  0.00    +0.000 C 
ATOM     27  C   UNL     1      48.968 -37.071  48.462  0.00  0.00    +0.000 C 
BRANCH  27  28
ATOM     28  C   UNL     1      48.997 -36.833  49.974  0.00  0.00    +0.000 C 
ATOM     29  C   UNL     1      49.022 -36.596  51.487  0.00  0.00    +0.000 C 
BRANCH  29  31
ATOM     30  O   UNL     1      48.226 -35.695  53.491  0.00  0.00    +0.000 OA
ATOM     31  C   UNL     1      49.047 -36.376  52.901  0.00  0.00    +0.000 C 
BRANCH  31  32
ATOM     32  O   UNL     1      50.063 -36.991  53.533  0.00  0.00    +0.000 OA
ATOM     33  H   UNL     1      50.856 -36.513  53.214  0.00  0.00    +0.000 HD
ENDBRANCH  31  32
ENDBRANCH  29  31
ENDBRANCH  27  28
ENDBRANCH   3  26
TORSDOF 8
ENDMDL
MODEL 5
REMARK VINA RESULT:      -6.4      5.407      9.953
REMARK  Name = 122178712_SalternamideA.pdbqt.pdb
REMARK  8 active torsions:
REMARK  status: ('A' for Active; 'I' for Inactive)
REMARK    1  A    between atoms: C_3  and  O_24
REMARK    2  A    between atoms: C_3  and  C_26
REMARK    3  A    between atoms: C_6  and  N_10
REMARK    4  A    between atoms: C_11  and  C_14
REMARK    5  A    between atoms: C_13  and  C_15
REMARK    6  A    between atoms: C_27  and  C_28
REMARK    7  A    between atoms: C_29  and  C_31
REMARK    8  A    between atoms: C_31  and  O_32
REMARK                            x       y       z     vdW  Elec       q    Type
REMARK                         _______ _______ _______ _____ _____    ______ ____
ROOT
ATOM      1 CL   UNL     1      50.670 -47.980  51.620  0.00  0.00    +0.000 Cl
ATOM      2  O   UNL     1      47.850 -46.839  50.789  0.00  0.00    +0.000 OA
ATOM      3  C   UNL     1      47.977 -51.029  51.783  0.00  0.00    +0.000 C 
ATOM      4  C   UNL     1      46.857 -50.150  51.410  0.00  0.00    +0.000 C 
ATOM      5  C   UNL     1      49.061 -50.034  51.718  0.00  0.00    +0.000 C 
ATOM      6  C   UNL     1      46.656 -48.907  51.079  0.00  0.00    +0.000 C 
ATOM      7  C   UNL     1      49.185 -48.772  51.426  0.00  0.00    +0.000 C 
ATOM      8  C   UNL     1      47.914 -48.030  51.065  0.00  0.00    +0.000 C 
ENDROOT
BRANCH   6  10
ATOM      9  O   UNL     1      45.401 -48.594  48.458  0.00  0.00    +0.000 OA
ATOM     10  N   UNL     1      45.451 -48.335  50.764  0.00  0.00    +0.000 N 
ATOM     11  C   UNL     1      44.906 -48.216  49.509  0.00  0.00    +0.000 C 
ATOM     12  H   UNL     1      44.925 -47.968  51.555  0.00  0.00    +0.000 HD
BRANCH  11  14
ATOM     13  C   UNL     1      42.536 -47.044  49.429  0.00  0.00    +0.000 C 
ATOM     14  C   UNL     1      43.615 -47.571  49.471  0.00  0.00    +0.000 C 
BRANCH  13  15
ATOM     15  C   UNL     1      41.260 -46.430  49.380  0.00  0.00    +0.000 C 
ATOM     16  C   UNL     1      40.295 -46.713  50.496  0.00  0.00    +0.000 C 
ATOM     17  C   UNL     1      40.804 -45.609  48.330  0.00  0.00    +0.000 C 
ATOM     18  C   UNL     1      40.335 -44.783  47.288  0.00  0.00    +0.000 C 
ATOM     19  C   UNL     1      41.357 -44.171  46.376  0.00  0.00    +0.000 C 
ATOM     20  C   UNL     1      38.981 -44.514  47.030  0.00  0.00    +0.000 C 
ATOM     21  C   UNL     1      37.738 -44.271  46.788  0.00  0.00    +0.000 C 
ATOM     22  C   UNL     1      37.066 -43.123  47.474  0.00  0.00    +0.000 C 
ATOM     23  C   UNL     1      36.909 -45.316  46.108  0.00  0.00    +0.000 C 
ENDBRANCH  13  15
ENDBRANCH  11  14
ENDBRANCH   6  10
BRANCH   3  24
ATOM     24  O   UNL     1      48.171 -51.995  50.772  0.00  0.00    +0.000 OA
ATOM     25  H   UNL     1      47.284 -52.223  50.446  0.00  0.00    +0.000 HD
ENDBRANCH   3  24
BRANCH   3  26
ATOM     26  C   UNL     1      47.832 -51.672  53.083  0.00  0.00    +0.000 C 
ATOM     27  C   UNL     1      47.682 -52.343  54.451  0.00  0.00    +0.000 C 
BRANCH  27  28
ATOM     28  C   UNL     1      47.535 -53.012  55.821  0.00  0.00    +0.000 C 
ATOM     29  C   UNL     1      47.390 -53.679  57.192  0.00  0.00    +0.000 C 
BRANCH  29  31
ATOM     30  O   UNL     1      48.086 -55.058  58.946  0.00  0.00    +0.000 OA
ATOM     31  C   UNL     1      47.255 -54.302  58.474  0.00  0.00    +0.000 C 
BRANCH  31  32
ATOM     32  O   UNL     1      46.120 -53.980  59.121  0.00  0.00    +0.000 OA
ATOM     33  H   UNL     1      46.236 -53.030  59.331  0.00  0.00    +0.000 HD
ENDBRANCH  31  32
ENDBRANCH  29  31
ENDBRANCH  27  28
ENDBRANCH   3  26
TORSDOF 8
ENDMDL
MODEL 6
REMARK VINA RESULT:      -6.4     23.448     24.913
REMARK  Name = 122178712_SalternamideA.pdbqt.pdb
REMARK  8 active torsions:
REMARK  status: ('A' for Active; 'I' for Inactive)
REMARK    1  A    between atoms: C_3  and  O_24
REMARK    2  A    between atoms: C_3  and  C_26
REMARK    3  A    between atoms: C_6  and  N_10
REMARK    4  A    between atoms: C_11  and  C_14
REMARK    5  A    between atoms: C_13  and  C_15
REMARK    6  A    between atoms: C_27  and  C_28
REMARK    7  A    between atoms: C_29  and  C_31
REMARK    8  A    between atoms: C_31  and  O_32
REMARK                            x       y       z     vdW  Elec       q    Type
REMARK                         _______ _______ _______ _____ _____    ______ ____
ROOT
ATOM      1 CL   UNL     1      66.231 -43.814  71.722  0.00  0.00    +0.000 Cl
ATOM      2  O   UNL     1      66.858 -42.688  68.844  0.00  0.00    +0.000 OA
ATOM      3  C   UNL     1      62.828 -42.125  70.260  0.00  0.00    +0.000 C 
ATOM      4  C   UNL     1      63.493 -41.697  69.018  0.00  0.00    +0.000 C 
ATOM      5  C   UNL     1      63.969 -42.812  70.887  0.00  0.00    +0.000 C 
ATOM      6  C   UNL     1      64.661 -41.792  68.450  0.00  0.00    +0.000 C 
ATOM      7  C   UNL     1      65.208 -43.076  70.592  0.00  0.00    +0.000 C 
ATOM      8  C   UNL     1      65.716 -42.551  69.264  0.00  0.00    +0.000 C 
ENDROOT
BRANCH   6  10
ATOM      9  O   UNL     1      65.399 -39.050  67.757  0.00  0.00    +0.000 OA
ATOM     10  N   UNL     1      65.014 -41.277  67.230  0.00  0.00    +0.000 N 
ATOM     11  C   UNL     1      65.354 -39.975  66.960  0.00  0.00    +0.000 C 
ATOM     12  H   UNL     1      65.015 -41.946  66.462  0.00  0.00    +0.000 HD
BRANCH  11  14
ATOM     13  C   UNL     1      65.977 -39.501  64.433  0.00  0.00    +0.000 C 
ATOM     14  C   UNL     1      65.688 -39.712  65.579  0.00  0.00    +0.000 C 
BRANCH  13  15
ATOM     15  C   UNL     1      66.321 -39.259  63.080  0.00  0.00    +0.000 C 
ATOM     16  C   UNL     1      66.511 -40.444  62.176  0.00  0.00    +0.000 C 
ATOM     17  C   UNL     1      66.550 -37.985  62.524  0.00  0.00    +0.000 C 
ATOM     18  C   UNL     1      66.779 -36.717  61.954  0.00  0.00    +0.000 C 
ATOM     19  C   UNL     1      66.237 -35.522  62.683  0.00  0.00    +0.000 C 
ATOM     20  C   UNL     1      67.497 -36.492  60.768  0.00  0.00    +0.000 C 
ATOM     21  C   UNL     1      68.162 -36.283  59.684  0.00  0.00    +0.000 C 
ATOM     22  C   UNL     1      67.450 -36.314  58.367  0.00  0.00    +0.000 C 
ATOM     23  C   UNL     1      69.657 -36.353  59.719  0.00  0.00    +0.000 C 
ENDBRANCH  13  15
ENDBRANCH  11  14
ENDBRANCH   6  10
BRANCH   3  24
ATOM     24  O   UNL     1      61.827 -43.072  69.952  0.00  0.00    +0.000 OA
ATOM     25  H   UNL     1      61.380 -43.271  70.793  0.00  0.00    +0.000 HD
ENDBRANCH   3  24
BRANCH   3  26
ATOM     26  C   UNL     1      62.274 -41.035  71.053  0.00  0.00    +0.000 C 
ATOM     27  C   UNL     1      61.694 -39.886  71.882  0.00  0.00    +0.000 C 
BRANCH  27  28
ATOM     28  C   UNL     1      61.113 -38.734  72.708  0.00  0.00    +0.000 C 
ATOM     29  C   UNL     1      60.534 -37.580  73.532  0.00  0.00    +0.000 C 
BRANCH  29  31
ATOM     30  O   UNL     1      60.502 -36.081  75.324  0.00  0.00    +0.000 OA
ATOM     31  C   UNL     1      59.992 -36.502  74.301  0.00  0.00    +0.000 C 
BRANCH  31  32
ATOM     32  O   UNL     1      58.858 -35.985  73.795  0.00  0.00    +0.000 OA
ATOM     33  H   UNL     1      58.639 -35.258  74.413  0.00  0.00    +0.000 HD
ENDBRANCH  31  32
ENDBRANCH  29  31
ENDBRANCH  27  28
ENDBRANCH   3  26
TORSDOF 8
ENDMDL
MODEL 7
REMARK VINA RESULT:      -6.1      4.647     10.455
REMARK  Name = 122178712_SalternamideA.pdbqt.pdb
REMARK  8 active torsions:
REMARK  status: ('A' for Active; 'I' for Inactive)
REMARK    1  A    between atoms: C_3  and  O_24
REMARK    2  A    between atoms: C_3  and  C_26
REMARK    3  A    between atoms: C_6  and  N_10
REMARK    4  A    between atoms: C_11  and  C_14
REMARK    5  A    between atoms: C_13  and  C_15
REMARK    6  A    between atoms: C_27  and  C_28
REMARK    7  A    between atoms: C_29  and  C_31
REMARK    8  A    between atoms: C_31  and  O_32
REMARK                            x       y       z     vdW  Elec       q    Type
REMARK                         _______ _______ _______ _____ _____    ______ ____
ROOT
ATOM      1 CL   UNL     1      47.970 -48.584  45.529  0.00  0.00    +0.000 Cl
ATOM      2  O   UNL     1      47.621 -50.446  48.050  0.00  0.00    +0.000 OA
ATOM      3  C   UNL     1      49.968 -46.882  48.642  0.00  0.00    +0.000 C 
ATOM      4  C   UNL     1      49.551 -47.940  49.577  0.00  0.00    +0.000 C 
ATOM      5  C   UNL     1      49.332 -47.410  47.423  0.00  0.00    +0.000 C 
ATOM      6  C   UNL     1      48.873 -49.052  49.557  0.00  0.00    +0.000 C 
ATOM      7  C   UNL     1      48.625 -48.449  47.086  0.00  0.00    +0.000 C 
ATOM      8  C   UNL     1      48.294 -49.433  48.190  0.00  0.00    +0.000 C 
ENDROOT
BRANCH   6  10
ATOM      9  O   UNL     1      47.568 -48.435  52.099  0.00  0.00    +0.000 OA
ATOM     10  N   UNL     1      48.636 -49.876  50.627  0.00  0.00    +0.000 N 
ATOM     11  C   UNL     1      48.015 -49.533  51.802  0.00  0.00    +0.000 C 
ATOM     12  H   UNL     1      48.964 -50.834  50.516  0.00  0.00    +0.000 HD
BRANCH  11  14
ATOM     13  C   UNL     1      47.810 -51.504  53.554  0.00  0.00    +0.000 C 
ATOM     14  C   UNL     1      47.895 -50.608  52.758  0.00  0.00    +0.000 C 
BRANCH  13  15
ATOM     15  C   UNL     1      47.715 -52.558  54.495  0.00  0.00    +0.000 C 
ATOM     16  C   UNL     1      46.480 -52.638  55.347  0.00  0.00    +0.000 C 
ATOM     17  C   UNL     1      48.721 -53.516  54.732  0.00  0.00    +0.000 C 
ATOM     18  C   UNL     1      49.717 -54.483  54.977  0.00  0.00    +0.000 C 
ATOM     19  C   UNL     1      50.765 -54.681  53.922  0.00  0.00    +0.000 C 
ATOM     20  C   UNL     1      49.811 -55.253  56.148  0.00  0.00    +0.000 C 
ATOM     21  C   UNL     1      49.903 -55.957  57.225  0.00  0.00    +0.000 C 
ATOM     22  C   UNL     1      49.167 -57.258  57.318  0.00  0.00    +0.000 C 
ATOM     23  C   UNL     1      50.447 -55.322  58.467  0.00  0.00    +0.000 C 
ENDBRANCH  13  15
ENDBRANCH  11  14
ENDBRANCH   6  10
BRANCH   3  24
ATOM     24  O   UNL     1      51.371 -46.921  48.487  0.00  0.00    +0.000 OA
ATOM     25  H   UNL     1      51.567 -47.759  48.036  0.00  0.00    +0.000 HD
ENDBRANCH   3  24
BRANCH   3  26
ATOM     26  C   UNL     1      49.530 -45.543  49.014  0.00  0.00    +0.000 C 
ATOM     27  C   UNL     1      49.066 -44.137  49.407  0.00  0.00    +0.000 C 
BRANCH  27  28
ATOM     28  C   UNL     1      48.598 -42.733  49.801  0.00  0.00    +0.000 C 
ATOM     29  C   UNL     1      48.131 -41.328  50.193  0.00  0.00    +0.000 C 
BRANCH  29  31
ATOM     30  O   UNL     1      48.429 -39.170  51.038  0.00  0.00    +0.000 OA
ATOM     31  C   UNL     1      47.694 -40.015  50.558  0.00  0.00    +0.000 C 
BRANCH  31  32
ATOM     32  O   UNL     1      46.388 -39.790  50.327  0.00  0.00    +0.000 OA
ATOM     33  H   UNL     1      46.210 -40.288  49.503  0.00  0.00    +0.000 HD
ENDBRANCH  31  32
ENDBRANCH  29  31
ENDBRANCH  27  28
ENDBRANCH   3  26
TORSDOF 8
ENDMDL
MODEL 8
REMARK VINA RESULT:      -6.0     11.261     19.479
REMARK  Name = 122178712_SalternamideA.pdbqt.pdb
REMARK  8 active torsions:
REMARK  status: ('A' for Active; 'I' for Inactive)
REMARK    1  A    between atoms: C_3  and  O_24
REMARK    2  A    between atoms: C_3  and  C_26
REMARK    3  A    between atoms: C_6  and  N_10
REMARK    4  A    between atoms: C_11  and  C_14
REMARK    5  A    between atoms: C_13  and  C_15
REMARK    6  A    between atoms: C_27  and  C_28
REMARK    7  A    between atoms: C_29  and  C_31
REMARK    8  A    between atoms: C_31  and  O_32
REMARK                            x       y       z     vdW  Elec       q    Type
REMARK                         _______ _______ _______ _____ _____    ______ ____
ROOT
ATOM      1 CL   UNL     1      38.832 -56.621  62.353  0.00  0.00    +0.000 Cl
ATOM      2  O   UNL     1      40.867 -55.903  64.652  0.00  0.00    +0.000 OA
ATOM      3  C   UNL     1      42.598 -57.264  60.950  0.00  0.00    +0.000 C 
ATOM      4  C   UNL     1      43.218 -56.798  62.201  0.00  0.00    +0.000 C 
ATOM      5  C   UNL     1      41.187 -57.124  61.344  0.00  0.00    +0.000 C 
ATOM      6  C   UNL     1      42.851 -56.376  63.377  0.00  0.00    +0.000 C 
ATOM      7  C   UNL     1      40.520 -56.754  62.398  0.00  0.00    +0.000 C 
ATOM      8  C   UNL     1      41.334 -56.304  63.594  0.00  0.00    +0.000 C 
ENDROOT
BRANCH   6  10
ATOM      9  O   UNL     1      44.551 -58.036  65.080  0.00  0.00    +0.000 OA
ATOM     10  N   UNL     1      43.682 -55.995  64.398  0.00  0.00    +0.000 N 
ATOM     11  C   UNL     1      44.462 -56.820  65.168  0.00  0.00    +0.000 C 
ATOM     12  H   UNL     1      43.704 -54.994  64.587  0.00  0.00    +0.000 HD
BRANCH  11  14
ATOM     13  C   UNL     1      45.900 -55.592  67.019  0.00  0.00    +0.000 C 
ATOM     14  C   UNL     1      45.246 -56.143  66.175  0.00  0.00    +0.000 C 
BRANCH  13  15
ATOM     15  C   UNL     1      46.676 -54.949  68.014  0.00  0.00    +0.000 C 
ATOM     16  C   UNL     1      48.091 -54.574  67.677  0.00  0.00    +0.000 C 
ATOM     17  C   UNL     1      46.236 -54.678  69.325  0.00  0.00    +0.000 C 
ATOM     18  C   UNL     1      45.808 -54.397  70.639  0.00  0.00    +0.000 C 
ATOM     19  C   UNL     1      44.331 -54.392  70.900  0.00  0.00    +0.000 C 
ATOM     20  C   UNL     1      46.667 -54.146  71.722  0.00  0.00    +0.000 C 
ATOM     21  C   UNL     1      47.454 -53.923  72.718  0.00  0.00    +0.000 C 
ATOM     22  C   UNL     1      47.919 -52.525  72.988  0.00  0.00    +0.000 C 
ATOM     23  C   UNL     1      48.152 -55.075  73.370  0.00  0.00    +0.000 C 
ENDBRANCH  13  15
ENDBRANCH  11  14
ENDBRANCH   6  10
BRANCH   3  24
ATOM     24  O   UNL     1      42.895 -58.633  60.763  0.00  0.00    +0.000 OA
ATOM     25  H   UNL     1      42.151 -59.000  60.254  0.00  0.00    +0.000 HD
ENDBRANCH   3  24
BRANCH   3  26
ATOM     26  C   UNL     1      42.971 -56.495  59.769  0.00  0.00    +0.000 C 
ATOM     27  C   UNL     1      43.365 -55.691  58.527  0.00  0.00    +0.000 C 
BRANCH  27  28
ATOM     28  C   UNL     1      43.761 -54.891  57.282  0.00  0.00    +0.000 C 
ATOM     29  C   UNL     1      44.154 -54.089  56.038  0.00  0.00    +0.000 C 
BRANCH  29  31
ATOM     30  O   UNL     1      43.717 -52.928  54.057  0.00  0.00    +0.000 OA
ATOM     31  C   UNL     1      44.521 -53.339  54.876  0.00  0.00    +0.000 C 
BRANCH  31  32
ATOM     32  O   UNL     1      45.844 -53.123  54.760  0.00  0.00    +0.000 OA
ATOM     33  H   UNL     1      45.970 -52.240  55.164  0.00  0.00    +0.000 HD
ENDBRANCH  31  32
ENDBRANCH  29  31
ENDBRANCH  27  28
ENDBRANCH   3  26
TORSDOF 8
ENDMDL
MODEL 9
REMARK VINA RESULT:      -5.9     19.480     24.066
REMARK  Name = 122178712_SalternamideA.pdbqt.pdb
REMARK  8 active torsions:
REMARK  status: ('A' for Active; 'I' for Inactive)
REMARK    1  A    between atoms: C_3  and  O_24
REMARK    2  A    between atoms: C_3  and  C_26
REMARK    3  A    between atoms: C_6  and  N_10
REMARK    4  A    between atoms: C_11  and  C_14
REMARK    5  A    between atoms: C_13  and  C_15
REMARK    6  A    between atoms: C_27  and  C_28
REMARK    7  A    between atoms: C_29  and  C_31
REMARK    8  A    between atoms: C_31  and  O_32
REMARK                            x       y       z     vdW  Elec       q    Type
REMARK                         _______ _______ _______ _____ _____    ______ ____
ROOT
ATOM      1 CL   UNL     1      52.520 -57.988  68.896  0.00  0.00    +0.000 Cl
ATOM      2  O   UNL     1      53.032 -55.899  71.202  0.00  0.00    +0.000 OA
ATOM      3  C   UNL     1      50.608 -54.530  67.915  0.00  0.00    +0.000 C 
ATOM      4  C   UNL     1      51.009 -53.872  69.169  0.00  0.00    +0.000 C 
ATOM      5  C   UNL     1      51.291 -55.818  68.121  0.00  0.00    +0.000 C 
ATOM      6  C   UNL     1      51.722 -54.134  70.227  0.00  0.00    +0.000 C 
ATOM      7  C   UNL     1      52.052 -56.365  69.023  0.00  0.00    +0.000 C 
ATOM      8  C   UNL     1      52.356 -55.530  70.251  0.00  0.00    +0.000 C 
ENDROOT
BRANCH   6  10
ATOM      9  O   UNL     1      50.080 -53.729  72.611  0.00  0.00    +0.000 OA
ATOM     10  N   UNL     1      51.936 -53.294  71.288  0.00  0.00    +0.000 N 
ATOM     11  C   UNL     1      51.129 -53.144  72.388  0.00  0.00    +0.000 C 
ATOM     12  H   UNL     1      52.785 -52.734  71.233  0.00  0.00    +0.000 HD
BRANCH  11  14
ATOM     13  C   UNL     1      52.008 -51.399  74.172  0.00  0.00    +0.000 C 
ATOM     14  C   UNL     1      51.604 -52.186  73.360  0.00  0.00    +0.000 C 
BRANCH  13  15
ATOM     15  C   UNL     1      52.492 -50.474  75.130  0.00  0.00    +0.000 C 
ATOM     16  C   UNL     1      53.864 -49.896  74.925  0.00  0.00    +0.000 C 
ATOM     17  C   UNL     1      51.801 -50.089  76.296  0.00  0.00    +0.000 C 
ATOM     18  C   UNL     1      51.120 -49.692  77.465  0.00  0.00    +0.000 C 
ATOM     19  C   UNL     1      49.639 -49.925  77.516  0.00  0.00    +0.000 C 
ATOM     20  C   UNL     1      51.734 -49.118  78.590  0.00  0.00    +0.000 C 
ATOM     21  C   UNL     1      52.296 -48.597  79.627  0.00  0.00    +0.000 C 
ATOM     22  C   UNL     1      52.477 -47.113  79.697  0.00  0.00    +0.000 C 
ATOM     23  C   UNL     1      53.054 -49.482  80.568  0.00  0.00    +0.000 C 
ENDBRANCH  13  15
ENDBRANCH  11  14
ENDBRANCH   6  10
BRANCH   3  24
ATOM     24  O   UNL     1      51.202 -53.858  66.824  0.00  0.00    +0.000 OA
ATOM     25  H   UNL     1      52.097 -54.229  66.737  0.00  0.00    +0.000 HD
ENDBRANCH   3  24
BRANCH   3  26
ATOM     26  C   UNL     1      49.167 -54.639  67.725  0.00  0.00    +0.000 C 
ATOM     27  C   UNL     1      47.654 -54.756  67.520  0.00  0.00    +0.000 C 
BRANCH  27  28
ATOM     28  C   UNL     1      46.141 -54.875  67.311  0.00  0.00    +0.000 C 
ATOM     29  C   UNL     1      44.628 -54.990  67.103  0.00  0.00    +0.000 C 
BRANCH  29  31
ATOM     30  O   UNL     1      42.703 -55.850  66.096  0.00  0.00    +0.000 OA
ATOM     31  C   UNL     1      43.214 -55.098  66.907  0.00  0.00    +0.000 C 
BRANCH  31  32
ATOM     32  O   UNL     1      42.489 -54.291  67.702  0.00  0.00    +0.000 OA
ATOM     33  H   UNL     1      43.163 -53.732  68.140  0.00  0.00    +0.000 HD
ENDBRANCH  31  32
ENDBRANCH  29  31
ENDBRANCH  27  28
ENDBRANCH   3  26
TORSDOF 8
ENDMDL
