MODEL 1
REMARK VINA RESULT:      -8.2      0.000      0.000
REMARK  Name = 135423438_Nintedanib.pdbqt.pdb
REMARK  9 active torsions:
REMARK  status: ('A' for Active; 'I' for Inactive)
REMARK    1  A    between atoms: N_1  and  C_22
REMARK    2  A    between atoms: C_2  and  C_4
REMARK    3  A    between atoms: C_2  and  C_37
REMARK    4  A    between atoms: C_7  and  O_13
REMARK    5  A    between atoms: C_10  and  C_16
REMARK    6  A    between atoms: C_16  and  O_17
REMARK    7  A    between atoms: C_19  and  N_26
REMARK    8  A    between atoms: C_27  and  C_29
REMARK    9  A    between atoms: C_29  and  N_30
REMARK                            x       y       z     vdW  Elec       q    Type
REMARK                         _______ _______ _______ _____ _____    ______ ____
ROOT
ATOM      1  N   UNL     1      47.947 -44.634  51.778  0.00  0.00    +0.000 NA
ATOM      2  C   UNL     1      48.361 -44.216  50.617  0.00  0.00    +0.000 C 
ENDROOT
BRANCH   2   4
ATOM      3  N   UNL     1      48.387 -40.558  50.814  0.00  0.00    +0.000 N 
ATOM      4  C   UNL     1      48.461 -42.761  50.438  0.00  0.00    +0.000 A 
ATOM      5  C   UNL     1      48.863 -42.062  49.246  0.00  0.00    +0.000 A 
ATOM      6  C   UNL     1      48.808 -40.696  49.515  0.00  0.00    +0.000 A 
ATOM      7  C   UNL     1      48.169 -41.786  51.383  0.00  0.00    +0.000 A 
ATOM      8  C   UNL     1      49.276 -42.471  47.961  0.00  0.00    +0.000 A 
ATOM      9  C   UNL     1      49.139 -39.719  48.570  0.00  0.00    +0.000 A 
ATOM     10  C   UNL     1      49.541 -40.157  47.302  0.00  0.00    +0.000 A 
ATOM     11  C   UNL     1      49.611 -41.513  47.002  0.00  0.00    +0.000 A 
ATOM     12  H   UNL     1      48.255 -39.668  51.272  0.00  0.00    +0.000 HD
BRANCH   7  13
ATOM     13  O   UNL     1      47.740 -41.901  52.636  0.00  0.00    +0.000 OA
ATOM     14  H   UNL     1      46.779 -42.053  52.658  0.00  0.00    +0.000 HD
ENDBRANCH   7  13
BRANCH  10  16
ATOM     15  O   UNL     1      49.559 -38.025  46.259  0.00  0.00    +0.000 OA
ATOM     16  C   UNL     1      49.910 -39.196  46.240  0.00  0.00    +0.000 C 
BRANCH  16  17
ATOM     17  O   UNL     1      50.666 -39.844  45.309  0.00  0.00    +0.000 OA
ATOM     18  C   UNL     1      50.468 -39.524  43.955  0.00  0.00    +0.000 C 
ENDBRANCH  16  17
ENDBRANCH  10  16
ENDBRANCH   2   4
BRANCH   1  22
ATOM     19  C   UNL     1      47.429 -48.782  52.432  0.00  0.00    +0.000 A 
ATOM     20  C   UNL     1      46.340 -47.909  52.372  0.00  0.00    +0.000 A 
ATOM     21  C   UNL     1      48.704 -48.224  52.267  0.00  0.00    +0.000 A 
ATOM     22  C   UNL     1      47.786 -46.001  52.032  0.00  0.00    +0.000 A 
ATOM     23  C   UNL     1      46.507 -46.541  52.165  0.00  0.00    +0.000 A 
ATOM     24  C   UNL     1      48.885 -46.858  52.060  0.00  0.00    +0.000 A 
BRANCH  19  26
ATOM     25  O   UNL     1      46.542 -49.995  54.906  0.00  0.00    +0.000 OA
ATOM     26  N   UNL     1      47.261 -50.201  52.653  0.00  0.00    +0.000 N 
ATOM     27  C   UNL     1      46.819 -50.667  53.916  0.00  0.00    +0.000 C 
ATOM     28  C   UNL     1      47.583 -51.054  51.506  0.00  0.00    +0.000 C 
BRANCH  27  29
ATOM     29  C   UNL     1      46.681 -52.109  54.066  0.00  0.00    +0.000 C 
BRANCH  29  30
ATOM     30  N   UNL     1      46.554 -53.554  54.243  0.00  0.00    +0.000 N 
ATOM     31  N   UNL     1      48.720 -54.989  56.662  0.00  0.00    +0.000 N 
ATOM     32  C   UNL     1      47.927 -54.122  54.142  0.00  0.00    +0.000 C 
ATOM     33  C   UNL     1      46.400 -53.788  55.706  0.00  0.00    +0.000 C 
ATOM     34  C   UNL     1      48.878 -54.748  55.202  0.00  0.00    +0.000 C 
ATOM     35  C   UNL     1      47.351 -54.414  56.767  0.00  0.00    +0.000 C 
ATOM     36  C   UNL     1      49.619 -54.067  57.342  0.00  0.00    +0.000 C 
ENDBRANCH  29  30
ENDBRANCH  27  29
ENDBRANCH  19  26
ENDBRANCH   1  22
BRANCH   2  37
ATOM     37  C   UNL     1      48.725 -45.088  49.486  0.00  0.00    +0.000 A 
ATOM     38  C   UNL     1      50.060 -45.439  49.293  0.00  0.00    +0.000 A 
ATOM     39  C   UNL     1      47.719 -45.573  48.651  0.00  0.00    +0.000 A 
ATOM     40  C   UNL     1      50.391 -46.285  48.239  0.00  0.00    +0.000 A 
ATOM     41  C   UNL     1      48.062 -46.418  47.600  0.00  0.00    +0.000 A 
ATOM     42  C   UNL     1      49.395 -46.773  47.394  0.00  0.00    +0.000 A 
ENDBRANCH   2  37
TORSDOF 9
ENDMDL
MODEL 2
REMARK VINA RESULT:      -8.0      3.849     13.445
REMARK  Name = 135423438_Nintedanib.pdbqt.pdb
REMARK  9 active torsions:
REMARK  status: ('A' for Active; 'I' for Inactive)
REMARK    1  A    between atoms: N_1  and  C_22
REMARK    2  A    between atoms: C_2  and  C_4
REMARK    3  A    between atoms: C_2  and  C_37
REMARK    4  A    between atoms: C_7  and  O_13
REMARK    5  A    between atoms: C_10  and  C_16
REMARK    6  A    between atoms: C_16  and  O_17
REMARK    7  A    between atoms: C_19  and  N_26
REMARK    8  A    between atoms: C_27  and  C_29
REMARK    9  A    between atoms: C_29  and  N_30
REMARK                            x       y       z     vdW  Elec       q    Type
REMARK                         _______ _______ _______ _____ _____    ______ ____
ROOT
ATOM      1  N   UNL     1      46.734 -52.041  55.574  0.00  0.00    +0.000 NA
ATOM      2  C   UNL     1      45.878 -53.020  55.501  0.00  0.00    +0.000 C 
ENDROOT
BRANCH   2   4
ATOM      3  N   UNL     1      45.845 -54.644  58.784  0.00  0.00    +0.000 N 
ATOM      4  C   UNL     1      45.618 -53.760  56.742  0.00  0.00    +0.000 A 
ATOM      5  C   UNL     1      44.454 -54.548  57.050  0.00  0.00    +0.000 A 
ATOM      6  C   UNL     1      44.626 -55.080  58.327  0.00  0.00    +0.000 A 
ATOM      7  C   UNL     1      46.457 -53.854  57.845  0.00  0.00    +0.000 A 
ATOM      8  C   UNL     1      43.263 -54.851  56.359  0.00  0.00    +0.000 A 
ATOM      9  C   UNL     1      43.677 -55.901  58.946  0.00  0.00    +0.000 A 
ATOM     10  C   UNL     1      42.506 -56.186  58.231  0.00  0.00    +0.000 A 
ATOM     11  C   UNL     1      42.301 -55.667  56.958  0.00  0.00    +0.000 A 
ATOM     12  H   UNL     1      46.227 -54.884  59.687  0.00  0.00    +0.000 HD
BRANCH   7  13
ATOM     13  O   UNL     1      47.659 -53.330  58.060  0.00  0.00    +0.000 OA
ATOM     14  H   UNL     1      48.100 -53.774  58.806  0.00  0.00    +0.000 HD
ENDBRANCH   7  13
BRANCH  10  16
ATOM     15  O   UNL     1      41.026 -56.896  59.945  0.00  0.00    +0.000 OA
ATOM     16  C   UNL     1      41.447 -57.044  58.807  0.00  0.00    +0.000 C 
BRANCH  16  17
ATOM     17  O   UNL     1      41.071 -57.960  57.870  0.00  0.00    +0.000 OA
ATOM     18  C   UNL     1      41.668 -59.230  57.909  0.00  0.00    +0.000 C 
ENDBRANCH  16  17
ENDBRANCH  10  16
ENDBRANCH   2   4
BRANCH   1  22
ATOM     19  C   UNL     1      47.834 -49.733  52.203  0.00  0.00    +0.000 A 
ATOM     20  C   UNL     1      46.950 -49.243  53.168  0.00  0.00    +0.000 A 
ATOM     21  C   UNL     1      48.342 -51.024  52.398  0.00  0.00    +0.000 A 
ATOM     22  C   UNL     1      47.072 -51.299  54.436  0.00  0.00    +0.000 A 
ATOM     23  C   UNL     1      46.578 -50.005  54.275  0.00  0.00    +0.000 A 
ATOM     24  C   UNL     1      47.978 -51.795  53.501  0.00  0.00    +0.000 A 
BRANCH  19  26
ATOM     25  O   UNL     1      50.014 -47.830  52.120  0.00  0.00    +0.000 OA
ATOM     26  N   UNL     1      48.216 -48.950  51.049  0.00  0.00    +0.000 N 
ATOM     27  C   UNL     1      49.307 -48.049  51.142  0.00  0.00    +0.000 C 
ATOM     28  C   UNL     1      47.401 -49.165  49.850  0.00  0.00    +0.000 C 
BRANCH  27  29
ATOM     29  C   UNL     1      49.627 -47.290  49.941  0.00  0.00    +0.000 C 
BRANCH  29  30
ATOM     30  N   UNL     1      49.927 -46.543  48.721  0.00  0.00    +0.000 N 
ATOM     31  N   UNL     1      48.678 -43.221  48.622  0.00  0.00    +0.000 N 
ATOM     32  C   UNL     1      48.638 -45.975  48.237  0.00  0.00    +0.000 C 
ATOM     33  C   UNL     1      50.513 -45.243  49.154  0.00  0.00    +0.000 C 
ATOM     34  C   UNL     1      48.089 -44.520  48.196  0.00  0.00    +0.000 C 
ATOM     35  C   UNL     1      49.963 -43.787  49.113  0.00  0.00    +0.000 C 
ATOM     36  C   UNL     1      47.933 -42.783  49.794  0.00  0.00    +0.000 C 
ENDBRANCH  29  30
ENDBRANCH  27  29
ENDBRANCH  19  26
ENDBRANCH   1  22
BRANCH   2  37
ATOM     37  C   UNL     1      45.168 -53.430  54.276  0.00  0.00    +0.000 A 
ATOM     38  C   UNL     1      45.602 -54.553  53.574  0.00  0.00    +0.000 A 
ATOM     39  C   UNL     1      44.051 -52.704  53.863  0.00  0.00    +0.000 A 
ATOM     40  C   UNL     1      44.910 -54.948  52.434  0.00  0.00    +0.000 A 
ATOM     41  C   UNL     1      43.367 -53.108  52.722  0.00  0.00    +0.000 A 
ATOM     42  C   UNL     1      43.794 -54.228  52.009  0.00  0.00    +0.000 A 
ENDBRANCH   2  37
TORSDOF 9
ENDMDL
MODEL 3
REMARK VINA RESULT:      -8.0      2.719      4.828
REMARK  Name = 135423438_Nintedanib.pdbqt.pdb
REMARK  9 active torsions:
REMARK  status: ('A' for Active; 'I' for Inactive)
REMARK    1  A    between atoms: N_1  and  C_22
REMARK    2  A    between atoms: C_2  and  C_4
REMARK    3  A    between atoms: C_2  and  C_37
REMARK    4  A    between atoms: C_7  and  O_13
REMARK    5  A    between atoms: C_10  and  C_16
REMARK    6  A    between atoms: C_16  and  O_17
REMARK    7  A    between atoms: C_19  and  N_26
REMARK    8  A    between atoms: C_27  and  C_29
REMARK    9  A    between atoms: C_29  and  N_30
REMARK                            x       y       z     vdW  Elec       q    Type
REMARK                         _______ _______ _______ _____ _____    ______ ____
ROOT
ATOM      1  N   UNL     1      48.409 -48.423  51.987  0.00  0.00    +0.000 NA
ATOM      2  C   UNL     1      47.738 -47.634  51.197  0.00  0.00    +0.000 C 
ENDROOT
BRANCH   2   4
ATOM      3  N   UNL     1      49.986 -45.464  49.285  0.00  0.00    +0.000 N 
ATOM      4  C   UNL     1      48.495 -46.560  50.541  0.00  0.00    +0.000 A 
ATOM      5  C   UNL     1      48.297 -45.143  50.697  0.00  0.00    +0.000 A 
ATOM      6  C   UNL     1      49.237 -44.492  49.901  0.00  0.00    +0.000 A 
ATOM      7  C   UNL     1      49.559 -46.712  49.660  0.00  0.00    +0.000 A 
ATOM      8  C   UNL     1      47.394 -44.355  51.439  0.00  0.00    +0.000 A 
ATOM      9  C   UNL     1      49.328 -43.099  49.811  0.00  0.00    +0.000 A 
ATOM     10  C   UNL     1      48.419 -42.344  50.565  0.00  0.00    +0.000 A 
ATOM     11  C   UNL     1      47.466 -42.962  51.365  0.00  0.00    +0.000 A 
ATOM     12  H   UNL     1      50.747 -45.272  48.650  0.00  0.00    +0.000 HD
BRANCH   7  13
ATOM     13  O   UNL     1      50.148 -47.811  49.202  0.00  0.00    +0.000 OA
ATOM     14  H   UNL     1      49.590 -48.249  48.536  0.00  0.00    +0.000 HD
ENDBRANCH   7  13
BRANCH  10  16
ATOM     15  O   UNL     1      47.733 -40.181  51.258  0.00  0.00    +0.000 OA
ATOM     16  C   UNL     1      48.440 -40.865  50.532  0.00  0.00    +0.000 C 
BRANCH  16  17
ATOM     17  O   UNL     1      49.343 -40.462  49.594  0.00  0.00    +0.000 OA
ATOM     18  C   UNL     1      49.657 -39.095  49.522  0.00  0.00    +0.000 C 
ENDBRANCH  16  17
ENDBRANCH  10  16
ENDBRANCH   2   4
BRANCH   1  22
ATOM     19  C   UNL     1      46.574 -51.562  54.150  0.00  0.00    +0.000 A 
ATOM     20  C   UNL     1      47.414 -51.816  53.063  0.00  0.00    +0.000 A 
ATOM     21  C   UNL     1      46.363 -50.220  54.495  0.00  0.00    +0.000 A 
ATOM     22  C   UNL     1      47.768 -49.454  52.683  0.00  0.00    +0.000 A 
ATOM     23  C   UNL     1      48.013 -50.784  52.342  0.00  0.00    +0.000 A 
ATOM     24  C   UNL     1      46.957 -49.180  53.782  0.00  0.00    +0.000 A 
BRANCH  19  26
ATOM     25  O   UNL     1      47.617 -52.749  56.576  0.00  0.00    +0.000 OA
ATOM     26  N   UNL     1      45.945 -52.629  54.896  0.00  0.00    +0.000 N 
ATOM     27  C   UNL     1      46.563 -53.123  56.072  0.00  0.00    +0.000 C 
ATOM     28  C   UNL     1      44.683 -53.122  54.337  0.00  0.00    +0.000 C 
BRANCH  27  29
ATOM     29  C   UNL     1      45.874 -54.204  56.764  0.00  0.00    +0.000 C 
BRANCH  29  30
ATOM     30  N   UNL     1      45.196 -55.279  57.484  0.00  0.00    +0.000 N 
ATOM     31  N   UNL     1      42.218 -56.485  55.974  0.00  0.00    +0.000 N 
ATOM     32  C   UNL     1      43.770 -54.872  57.623  0.00  0.00    +0.000 C 
ATOM     33  C   UNL     1      44.948 -56.362  56.491  0.00  0.00    +0.000 C 
ATOM     34  C   UNL     1      42.465 -55.397  56.959  0.00  0.00    +0.000 C 
ATOM     35  C   UNL     1      43.642 -56.888  55.827  0.00  0.00    +0.000 C 
ATOM     36  C   UNL     1      41.829 -55.843  54.725  0.00  0.00    +0.000 C 
ENDBRANCH  29  30
ENDBRANCH  27  29
ENDBRANCH  19  26
ENDBRANCH   1  22
BRANCH   2  37
ATOM     37  C   UNL     1      46.293 -47.742  50.925  0.00  0.00    +0.000 A 
ATOM     38  C   UNL     1      45.846 -48.603  49.926  0.00  0.00    +0.000 A 
ATOM     39  C   UNL     1      45.400 -47.002  51.699  0.00  0.00    +0.000 A 
ATOM     40  C   UNL     1      44.479 -48.719  49.693  0.00  0.00    +0.000 A 
ATOM     41  C   UNL     1      44.035 -47.124  51.458  0.00  0.00    +0.000 A 
ATOM     42  C   UNL     1      43.576 -47.981  50.458  0.00  0.00    +0.000 A 
ENDBRANCH   2  37
TORSDOF 9
ENDMDL
MODEL 4
REMARK VINA RESULT:      -7.8      3.232      5.141
REMARK  Name = 135423438_Nintedanib.pdbqt.pdb
REMARK  9 active torsions:
REMARK  status: ('A' for Active; 'I' for Inactive)
REMARK    1  A    between atoms: N_1  and  C_22
REMARK    2  A    between atoms: C_2  and  C_4
REMARK    3  A    between atoms: C_2  and  C_37
REMARK    4  A    between atoms: C_7  and  O_13
REMARK    5  A    between atoms: C_10  and  C_16
REMARK    6  A    between atoms: C_16  and  O_17
REMARK    7  A    between atoms: C_19  and  N_26
REMARK    8  A    between atoms: C_27  and  C_29
REMARK    9  A    between atoms: C_29  and  N_30
REMARK                            x       y       z     vdW  Elec       q    Type
REMARK                         _______ _______ _______ _____ _____    ______ ____
ROOT
ATOM      1  N   UNL     1      48.227 -48.277  52.411  0.00  0.00    +0.000 NA
ATOM      2  C   UNL     1      47.557 -47.632  51.500  0.00  0.00    +0.000 C 
ENDROOT
BRANCH   2   4
ATOM      3  N   UNL     1      48.651 -44.310  50.410  0.00  0.00    +0.000 N 
ATOM      4  C   UNL     1      48.196 -46.436  50.937  0.00  0.00    +0.000 A 
ATOM      5  C   UNL     1      49.356 -46.395  50.086  0.00  0.00    +0.000 A 
ATOM      6  C   UNL     1      49.613 -45.060  49.780  0.00  0.00    +0.000 A 
ATOM      7  C   UNL     1      47.789 -45.119  51.107  0.00  0.00    +0.000 A 
ATOM      8  C   UNL     1      50.217 -47.377  49.552  0.00  0.00    +0.000 A 
ATOM      9  C   UNL     1      50.677 -44.654  48.968  0.00  0.00    +0.000 A 
ATOM     10  C   UNL     1      51.511 -45.654  48.450  0.00  0.00    +0.000 A 
ATOM     11  C   UNL     1      51.286 -46.995  48.740  0.00  0.00    +0.000 A 
ATOM     12  H   UNL     1      48.595 -43.304  50.356  0.00  0.00    +0.000 HD
BRANCH   7  13
ATOM     13  O   UNL     1      46.764 -44.614  51.785  0.00  0.00    +0.000 OA
ATOM     14  H   UNL     1      47.002 -43.758  52.183  0.00  0.00    +0.000 HD
ENDBRANCH   7  13
BRANCH  10  16
ATOM     15  O   UNL     1      52.555 -44.615  46.589  0.00  0.00    +0.000 OA
ATOM     16  C   UNL     1      52.662 -45.319  47.583  0.00  0.00    +0.000 C 
BRANCH  16  17
ATOM     17  O   UNL     1      53.778 -45.916  48.089  0.00  0.00    +0.000 OA
ATOM     18  C   UNL     1      54.478 -46.816  47.269  0.00  0.00    +0.000 C 
ENDBRANCH  16  17
ENDBRANCH  10  16
ENDBRANCH   2   4
BRANCH   1  22
ATOM     19  C   UNL     1      46.495 -51.689  54.218  0.00  0.00    +0.000 A 
ATOM     20  C   UNL     1      46.125 -50.395  54.593  0.00  0.00    +0.000 A 
ATOM     21  C   UNL     1      47.467 -51.810  53.216  0.00  0.00    +0.000 A 
ATOM     22  C   UNL     1      47.687 -49.410  53.031  0.00  0.00    +0.000 A 
ATOM     23  C   UNL     1      46.700 -49.269  54.006  0.00  0.00    +0.000 A 
ATOM     24  C   UNL     1      48.049 -50.692  52.621  0.00  0.00    +0.000 A 
BRANCH  19  26
ATOM     25  O   UNL     1      47.105 -52.677  56.869  0.00  0.00    +0.000 OA
ATOM     26  N   UNL     1      45.907 -52.859  54.829  0.00  0.00    +0.000 N 
ATOM     27  C   UNL     1      46.294 -53.238  56.139  0.00  0.00    +0.000 C 
ATOM     28  C   UNL     1      44.933 -53.575  53.999  0.00  0.00    +0.000 C 
BRANCH  27  29
ATOM     29  C   UNL     1      45.664 -54.432  56.684  0.00  0.00    +0.000 C 
BRANCH  29  30
ATOM     30  N   UNL     1      45.005 -55.617  57.229  0.00  0.00    +0.000 N 
ATOM     31  N   UNL     1      42.060 -56.639  55.530  0.00  0.00    +0.000 N 
ATOM     32  C   UNL     1      43.571 -55.263  57.416  0.00  0.00    +0.000 C 
ATOM     33  C   UNL     1      44.785 -56.543  56.082  0.00  0.00    +0.000 C 
ATOM     34  C   UNL     1      42.280 -55.708  56.671  0.00  0.00    +0.000 C 
ATOM     35  C   UNL     1      43.493 -56.988  55.336  0.00  0.00    +0.000 C 
ATOM     36  C   UNL     1      41.664 -55.824  54.390  0.00  0.00    +0.000 C 
ENDBRANCH  29  30
ENDBRANCH  27  29
ENDBRANCH  19  26
ENDBRANCH   1  22
BRANCH   2  37
ATOM     37  C   UNL     1      46.221 -48.012  51.008  0.00  0.00    +0.000 A 
ATOM     38  C   UNL     1      45.088 -47.452  51.595  0.00  0.00    +0.000 A 
ATOM     39  C   UNL     1      46.119 -48.901  49.938  0.00  0.00    +0.000 A 
ATOM     40  C   UNL     1      43.832 -47.796  51.106  0.00  0.00    +0.000 A 
ATOM     41  C   UNL     1      44.858 -49.239  49.458  0.00  0.00    +0.000 A 
ATOM     42  C   UNL     1      43.717 -48.688  50.040  0.00  0.00    +0.000 A 
ENDBRANCH   2  37
TORSDOF 9
ENDMDL
MODEL 5
REMARK VINA RESULT:      -7.8      4.151     13.316
REMARK  Name = 135423438_Nintedanib.pdbqt.pdb
REMARK  9 active torsions:
REMARK  status: ('A' for Active; 'I' for Inactive)
REMARK    1  A    between atoms: N_1  and  C_22
REMARK    2  A    between atoms: C_2  and  C_4
REMARK    3  A    between atoms: C_2  and  C_37
REMARK    4  A    between atoms: C_7  and  O_13
REMARK    5  A    between atoms: C_10  and  C_16
REMARK    6  A    between atoms: C_16  and  O_17
REMARK    7  A    between atoms: C_19  and  N_26
REMARK    8  A    between atoms: C_27  and  C_29
REMARK    9  A    between atoms: C_29  and  N_30
REMARK                            x       y       z     vdW  Elec       q    Type
REMARK                         _______ _______ _______ _____ _____    ______ ____
ROOT
ATOM      1  N   UNL     1      46.933 -51.817  55.395  0.00  0.00    +0.000 NA
ATOM      2  C   UNL     1      46.097 -52.815  55.371  0.00  0.00    +0.000 C 
ENDROOT
BRANCH   2   4
ATOM      3  N   UNL     1      46.378 -54.529  58.597  0.00  0.00    +0.000 N 
ATOM      4  C   UNL     1      45.955 -53.584  56.614  0.00  0.00    +0.000 A 
ATOM      5  C   UNL     1      44.811 -54.354  57.027  0.00  0.00    +0.000 A 
ATOM      6  C   UNL     1      45.107 -54.925  58.263  0.00  0.00    +0.000 A 
ATOM      7  C   UNL     1      46.905 -53.726  57.617  0.00  0.00    +0.000 A 
ATOM      8  C   UNL     1      43.545 -54.612  56.462  0.00  0.00    +0.000 A 
ATOM      9  C   UNL     1      44.211 -55.742  58.961  0.00  0.00    +0.000 A 
ATOM     10  C   UNL     1      42.963 -55.982  58.371  0.00  0.00    +0.000 A 
ATOM     11  C   UNL     1      42.634 -55.424  57.141  0.00  0.00    +0.000 A 
ATOM     12  H   UNL     1      46.850 -54.801  59.446  0.00  0.00    +0.000 HD
BRANCH   7  13
ATOM     13  O   UNL     1      48.136 -53.234  57.714  0.00  0.00    +0.000 OA
ATOM     14  H   UNL     1      48.325 -52.629  56.975  0.00  0.00    +0.000 HD
ENDBRANCH   7  13
BRANCH  10  16
ATOM     15  O   UNL     1      40.811 -56.953  58.612  0.00  0.00    +0.000 OA
ATOM     16  C   UNL     1      41.951 -56.832  59.036  0.00  0.00    +0.000 C 
BRANCH  16  17
ATOM     17  O   UNL     1      42.518 -57.405  60.135  0.00  0.00    +0.000 OA
ATOM     18  C   UNL     1      41.800 -57.375  61.342  0.00  0.00    +0.000 C 
ENDBRANCH  16  17
ENDBRANCH  10  16
ENDBRANCH   2   4
BRANCH   1  22
ATOM     19  C   UNL     1      47.707 -49.423  51.994  0.00  0.00    +0.000 A 
ATOM     20  C   UNL     1      46.899 -48.969  53.039  0.00  0.00    +0.000 A 
ATOM     21  C   UNL     1      48.252 -50.708  52.118  0.00  0.00    +0.000 A 
ATOM     22  C   UNL     1      47.162 -51.046  54.249  0.00  0.00    +0.000 A 
ATOM     23  C   UNL     1      46.635 -49.759  54.157  0.00  0.00    +0.000 A 
ATOM     24  C   UNL     1      47.995 -51.507  53.231  0.00  0.00    +0.000 A 
BRANCH  19  26
ATOM     25  O   UNL     1      49.941 -47.604  51.705  0.00  0.00    +0.000 OA
ATOM     26  N   UNL     1      47.978 -48.610  50.829  0.00  0.00    +0.000 N 
ATOM     27  C   UNL     1      49.110 -47.757  50.815  0.00  0.00    +0.000 C 
ATOM     28  C   UNL     1      47.013 -48.746  49.734  0.00  0.00    +0.000 C 
BRANCH  27  29
ATOM     29  C   UNL     1      49.312 -46.964  49.611  0.00  0.00    +0.000 C 
BRANCH  29  30
ATOM     30  N   UNL     1      49.543 -46.179  48.400  0.00  0.00    +0.000 N 
ATOM     31  N   UNL     1      52.941 -45.830  47.433  0.00  0.00    +0.000 N 
ATOM     32  C   UNL     1      50.577 -45.162  48.737  0.00  0.00    +0.000 C 
ATOM     33  C   UNL     1      50.420 -47.004  47.523  0.00  0.00    +0.000 C 
ATOM     34  C   UNL     1      52.067 -45.010  48.316  0.00  0.00    +0.000 C 
ATOM     35  C   UNL     1      51.911 -46.852  47.102  0.00  0.00    +0.000 C 
ATOM     36  C   UNL     1      53.920 -46.480  48.294  0.00  0.00    +0.000 C 
ENDBRANCH  29  30
ENDBRANCH  27  29
ENDBRANCH  19  26
ENDBRANCH   1  22
BRANCH   2  37
ATOM     37  C   UNL     1      45.300 -53.220  54.199  0.00  0.00    +0.000 A 
ATOM     38  C   UNL     1      45.671 -54.353  53.476  0.00  0.00    +0.000 A 
ATOM     39  C   UNL     1      44.170 -52.479  53.857  0.00  0.00    +0.000 A 
ATOM     40  C   UNL     1      44.898 -54.743  52.388  0.00  0.00    +0.000 A 
ATOM     41  C   UNL     1      43.404 -52.879  52.767  0.00  0.00    +0.000 A 
ATOM     42  C   UNL     1      43.767 -54.008  52.033  0.00  0.00    +0.000 A 
ENDBRANCH   2  37
TORSDOF 9
ENDMDL
MODEL 6
REMARK VINA RESULT:      -7.8      5.656     10.502
REMARK  Name = 135423438_Nintedanib.pdbqt.pdb
REMARK  9 active torsions:
REMARK  status: ('A' for Active; 'I' for Inactive)
REMARK    1  A    between atoms: N_1  and  C_22
REMARK    2  A    between atoms: C_2  and  C_4
REMARK    3  A    between atoms: C_2  and  C_37
REMARK    4  A    between atoms: C_7  and  O_13
REMARK    5  A    between atoms: C_10  and  C_16
REMARK    6  A    between atoms: C_16  and  O_17
REMARK    7  A    between atoms: C_19  and  N_26
REMARK    8  A    between atoms: C_27  and  C_29
REMARK    9  A    between atoms: C_29  and  N_30
REMARK                            x       y       z     vdW  Elec       q    Type
REMARK                         _______ _______ _______ _____ _____    ______ ____
ROOT
ATOM      1  N   UNL     1      50.299 -46.993  49.565  0.00  0.00    +0.000 NA
ATOM      2  C   UNL     1      49.394 -46.071  49.725  0.00  0.00    +0.000 C 
ENDROOT
BRANCH   2   4
ATOM      3  N   UNL     1      47.212 -46.922  52.542  0.00  0.00    +0.000 N 
ATOM      4  C   UNL     1      48.316 -46.365  50.678  0.00  0.00    +0.000 A 
ATOM      5  C   UNL     1      46.901 -46.349  50.415  0.00  0.00    +0.000 A 
ATOM      6  C   UNL     1      46.245 -46.697  51.594  0.00  0.00    +0.000 A 
ATOM      7  C   UNL     1      48.462 -46.732  52.010  0.00  0.00    +0.000 A 
ATOM      8  C   UNL     1      46.118 -46.062  49.278  0.00  0.00    +0.000 A 
ATOM      9  C   UNL     1      44.852 -46.778  51.697  0.00  0.00    +0.000 A 
ATOM     10  C   UNL     1      44.103 -46.491  50.548  0.00  0.00    +0.000 A 
ATOM     11  C   UNL     1      44.726 -46.137  49.357  0.00  0.00    +0.000 A 
ATOM     12  H   UNL     1      47.016 -47.194  53.494  0.00  0.00    +0.000 HD
BRANCH   7  13
ATOM     13  O   UNL     1      49.558 -46.909  52.740  0.00  0.00    +0.000 OA
ATOM     14  H   UNL     1      49.859 -47.834  52.690  0.00  0.00    +0.000 HD
ENDBRANCH   7  13
BRANCH  10  16
ATOM     15  O   UNL     1      41.935 -45.679  51.071  0.00  0.00    +0.000 OA
ATOM     16  C   UNL     1      42.625 -46.551  50.563  0.00  0.00    +0.000 C 
BRANCH  16  17
ATOM     17  O   UNL     1      42.228 -47.695  49.937  0.00  0.00    +0.000 OA
ATOM     18  C   UNL     1      41.501 -48.639  50.681  0.00  0.00    +0.000 C 
ENDBRANCH  16  17
ENDBRANCH  10  16
ENDBRANCH   2   4
BRANCH   1  22
ATOM     19  C   UNL     1      53.526 -46.555  46.863  0.00  0.00    +0.000 A 
ATOM     20  C   UNL     1      53.580 -46.033  48.158  0.00  0.00    +0.000 A 
ATOM     21  C   UNL     1      52.355 -47.231  46.495  0.00  0.00    +0.000 A 
ATOM     22  C   UNL     1      51.347 -46.819  48.653  0.00  0.00    +0.000 A 
ATOM     23  C   UNL     1      52.515 -46.167  49.048  0.00  0.00    +0.000 A 
ATOM     24  C   UNL     1      51.284 -47.372  47.376  0.00  0.00    +0.000 A 
BRANCH  19  26
ATOM     25  O   UNL     1      54.256 -44.107  45.502  0.00  0.00    +0.000 OA
ATOM     26  N   UNL     1      54.625 -46.411  45.935  0.00  0.00    +0.000 N 
ATOM     27  C   UNL     1      54.876 -45.152  45.334  0.00  0.00    +0.000 C 
ATOM     28  C   UNL     1      55.399 -47.631  45.690  0.00  0.00    +0.000 C 
BRANCH  27  29
ATOM     29  C   UNL     1      55.995 -45.087  44.404  0.00  0.00    +0.000 C 
BRANCH  29  30
ATOM     30  N   UNL     1      57.120 -45.053  43.472  0.00  0.00    +0.000 N 
ATOM     31  N   UNL     1      58.915 -48.097  43.134  0.00  0.00    +0.000 N 
ATOM     32  C   UNL     1      58.297 -45.603  44.199  0.00  0.00    +0.000 C 
ATOM     33  C   UNL     1      56.948 -46.216  42.557  0.00  0.00    +0.000 C 
ATOM     34  C   UNL     1      59.083 -46.938  44.053  0.00  0.00    +0.000 C 
ATOM     35  C   UNL     1      57.733 -47.552  42.412  0.00  0.00    +0.000 C 
ATOM     36  C   UNL     1      58.440 -49.211  43.943  0.00  0.00    +0.000 C 
ENDBRANCH  29  30
ENDBRANCH  27  29
ENDBRANCH  19  26
ENDBRANCH   1  22
BRANCH   2  37
ATOM     37  C   UNL     1      49.376 -44.775  49.023  0.00  0.00    +0.000 A 
ATOM     38  C   UNL     1      49.040 -44.732  47.671  0.00  0.00    +0.000 A 
ATOM     39  C   UNL     1      49.663 -43.612  49.736  0.00  0.00    +0.000 A 
ATOM     40  C   UNL     1      49.000 -43.502  47.022  0.00  0.00    +0.000 A 
ATOM     41  C   UNL     1      49.620 -42.387  49.077  0.00  0.00    +0.000 A 
ATOM     42  C   UNL     1      49.289 -42.332  47.724  0.00  0.00    +0.000 A 
ENDBRANCH   2  37
TORSDOF 9
ENDMDL
MODEL 7
REMARK VINA RESULT:      -7.7      5.666      7.569
REMARK  Name = 135423438_Nintedanib.pdbqt.pdb
REMARK  9 active torsions:
REMARK  status: ('A' for Active; 'I' for Inactive)
REMARK    1  A    between atoms: N_1  and  C_22
REMARK    2  A    between atoms: C_2  and  C_4
REMARK    3  A    between atoms: C_2  and  C_37
REMARK    4  A    between atoms: C_7  and  O_13
REMARK    5  A    between atoms: C_10  and  C_16
REMARK    6  A    between atoms: C_16  and  O_17
REMARK    7  A    between atoms: C_19  and  N_26
REMARK    8  A    between atoms: C_27  and  C_29
REMARK    9  A    between atoms: C_29  and  N_30
REMARK                            x       y       z     vdW  Elec       q    Type
REMARK                         _______ _______ _______ _____ _____    ______ ____
ROOT
ATOM      1  N   UNL     1      50.464 -43.854  49.438  0.00  0.00    +0.000 NA
ATOM      2  C   UNL     1      49.178 -43.680  49.547  0.00  0.00    +0.000 C 
ENDROOT
BRANCH   2   4
ATOM      3  N   UNL     1      47.905 -41.362  52.083  0.00  0.00    +0.000 N 
ATOM      4  C   UNL     1      48.735 -42.557  50.384  0.00  0.00    +0.000 A 
ATOM      5  C   UNL     1      48.761 -41.160  50.039  0.00  0.00    +0.000 A 
ATOM      6  C   UNL     1      48.241 -40.446  51.118  0.00  0.00    +0.000 A 
ATOM      7  C   UNL     1      48.191 -42.635  51.659  0.00  0.00    +0.000 A 
ATOM      8  C   UNL     1      49.187 -40.436  48.907  0.00  0.00    +0.000 A 
ATOM      9  C   UNL     1      48.120 -39.053  51.123  0.00  0.00    +0.000 A 
ATOM     10  C   UNL     1      48.549 -38.363  49.981  0.00  0.00    +0.000 A 
ATOM     11  C   UNL     1      49.076 -39.045  48.890  0.00  0.00    +0.000 A 
ATOM     12  H   UNL     1      47.501 -41.120  52.975  0.00  0.00    +0.000 HD
BRANCH   7  13
ATOM     13  O   UNL     1      47.934 -43.692  52.424  0.00  0.00    +0.000 OA
ATOM     14  H   UNL     1      48.368 -44.488  52.069  0.00  0.00    +0.000 HD
ENDBRANCH   7  13
BRANCH  10  16
ATOM     15  O   UNL     1      48.449 -36.289  48.833  0.00  0.00    +0.000 OA
ATOM     16  C   UNL     1      48.460 -36.889  49.898  0.00  0.00    +0.000 C 
BRANCH  16  17
ATOM     17  O   UNL     1      48.398 -36.383  51.162  0.00  0.00    +0.000 OA
ATOM     18  C   UNL     1      47.301 -35.572  51.498  0.00  0.00    +0.000 C 
ENDBRANCH  16  17
ENDBRANCH  10  16
ENDBRANCH   2   4
BRANCH   1  22
ATOM     19  C   UNL     1      52.140 -47.018  47.184  0.00  0.00    +0.000 A 
ATOM     20  C   UNL     1      51.858 -45.778  46.606  0.00  0.00    +0.000 A 
ATOM     21  C   UNL     1      51.843 -47.171  48.545  0.00  0.00    +0.000 A 
ATOM     22  C   UNL     1      50.983 -44.917  48.690  0.00  0.00    +0.000 A 
ATOM     23  C   UNL     1      51.297 -44.736  47.344  0.00  0.00    +0.000 A 
ATOM     24  C   UNL     1      51.283 -46.137  49.293  0.00  0.00    +0.000 A 
BRANCH  19  26
ATOM     25  O   UNL     1      54.973 -47.522  46.864  0.00  0.00    +0.000 OA
ATOM     26  N   UNL     1      52.715 -48.103  46.421  0.00  0.00    +0.000 N 
ATOM     27  C   UNL     1      54.123 -48.239  46.343  0.00  0.00    +0.000 C 
ATOM     28  C   UNL     1      51.746 -48.990  45.770  0.00  0.00    +0.000 C 
BRANCH  27  29
ATOM     29  C   UNL     1      54.627 -49.351  45.550  0.00  0.00    +0.000 C 
BRANCH  29  30
ATOM     30  N   UNL     1      55.108 -50.466  44.736  0.00  0.00    +0.000 N 
ATOM     31  N   UNL     1      52.601 -52.684  43.555  0.00  0.00    +0.000 N 
ATOM     32  C   UNL     1      54.519 -51.706  45.314  0.00  0.00    +0.000 C 
ATOM     33  C   UNL     1      54.284 -50.470  43.495  0.00  0.00    +0.000 C 
ATOM     34  C   UNL     1      53.419 -52.677  44.798  0.00  0.00    +0.000 C 
ATOM     35  C   UNL     1      53.182 -51.441  42.980  0.00  0.00    +0.000 C 
ATOM     36  C   UNL     1      51.234 -52.370  43.946  0.00  0.00    +0.000 C 
ENDBRANCH  29  30
ENDBRANCH  27  29
ENDBRANCH  19  26
ENDBRANCH   1  22
BRANCH   2  37
ATOM     37  C   UNL     1      48.155 -44.522  48.903  0.00  0.00    +0.000 A 
ATOM     38  C   UNL     1      47.715 -45.678  49.544  0.00  0.00    +0.000 A 
ATOM     39  C   UNL     1      47.623 -44.125  47.677  0.00  0.00    +0.000 A 
ATOM     40  C   UNL     1      46.729 -46.453  48.941  0.00  0.00    +0.000 A 
ATOM     41  C   UNL     1      46.638 -44.908  47.082  0.00  0.00    +0.000 A 
ATOM     42  C   UNL     1      46.192 -46.069  47.713  0.00  0.00    +0.000 A 
ENDBRANCH   2  37
TORSDOF 9
ENDMDL
MODEL 8
REMARK VINA RESULT:      -7.6      3.564     12.895
REMARK  Name = 135423438_Nintedanib.pdbqt.pdb
REMARK  9 active torsions:
REMARK  status: ('A' for Active; 'I' for Inactive)
REMARK    1  A    between atoms: N_1  and  C_22
REMARK    2  A    between atoms: C_2  and  C_4
REMARK    3  A    between atoms: C_2  and  C_37
REMARK    4  A    between atoms: C_7  and  O_13
REMARK    5  A    between atoms: C_10  and  C_16
REMARK    6  A    between atoms: C_16  and  O_17
REMARK    7  A    between atoms: C_19  and  N_26
REMARK    8  A    between atoms: C_27  and  C_29
REMARK    9  A    between atoms: C_29  and  N_30
REMARK                            x       y       z     vdW  Elec       q    Type
REMARK                         _______ _______ _______ _____ _____    ______ ____
ROOT
ATOM      1  N   UNL     1      48.117 -42.631  49.745  0.00  0.00    +0.000 NA
ATOM      2  C   UNL     1      48.672 -43.808  49.700  0.00  0.00    +0.000 C 
ENDROOT
BRANCH   2   4
ATOM      3  N   UNL     1      47.702 -45.621  52.731  0.00  0.00    +0.000 N 
ATOM      4  C   UNL     1      48.292 -44.756  50.755  0.00  0.00    +0.000 A 
ATOM      5  C   UNL     1      48.166 -46.184  50.630  0.00  0.00    +0.000 A 
ATOM      6  C   UNL     1      47.796 -46.689  51.875  0.00  0.00    +0.000 A 
ATOM      7  C   UNL     1      48.000 -44.452  52.079  0.00  0.00    +0.000 A 
ATOM      8  C   UNL     1      48.328 -47.094  49.565  0.00  0.00    +0.000 A 
ATOM      9  C   UNL     1      47.583 -48.051  52.113  0.00  0.00    +0.000 A 
ATOM     10  C   UNL     1      47.756 -48.929  51.035  0.00  0.00    +0.000 A 
ATOM     11  C   UNL     1      48.121 -48.458  49.779  0.00  0.00    +0.000 A 
ATOM     12  H   UNL     1      47.451 -45.699  53.706  0.00  0.00    +0.000 HD
BRANCH   7  13
ATOM     13  O   UNL     1      47.990 -43.285  52.713  0.00  0.00    +0.000 OA
ATOM     14  H   UNL     1      47.099 -43.081  53.049  0.00  0.00    +0.000 HD
ENDBRANCH   7  13
BRANCH  10  16
ATOM     15  O   UNL     1      48.458 -51.196  51.060  0.00  0.00    +0.000 OA
ATOM     16  C   UNL     1      47.552 -50.386  51.193  0.00  0.00    +0.000 C 
BRANCH  16  17
ATOM     17  O   UNL     1      46.242 -50.613  51.494  0.00  0.00    +0.000 OA
ATOM     18  C   UNL     1      45.948 -51.381  52.632  0.00  0.00    +0.000 C 
ENDBRANCH  16  17
ENDBRANCH  10  16
ENDBRANCH   2   4
BRANCH   1  22
ATOM     19  C   UNL     1      49.021 -39.587  46.948  0.00  0.00    +0.000 A 
ATOM     20  C   UNL     1      47.860 -40.358  46.842  0.00  0.00    +0.000 A 
ATOM     21  C   UNL     1      49.877 -39.866  48.022  0.00  0.00    +0.000 A 
ATOM     22  C   UNL     1      48.442 -41.649  48.802  0.00  0.00    +0.000 A 
ATOM     23  C   UNL     1      47.564 -41.367  47.756  0.00  0.00    +0.000 A 
ATOM     24  C   UNL     1      49.591 -40.873  48.943  0.00  0.00    +0.000 A 
BRANCH  19  26
ATOM     25  O   UNL     1      48.516 -36.763  47.335  0.00  0.00    +0.000 OA
ATOM     26  N   UNL     1      49.336 -38.545  45.998  0.00  0.00    +0.000 N 
ATOM     27  C   UNL     1      49.035 -37.195  46.311  0.00  0.00    +0.000 C 
ATOM     28  C   UNL     1      49.954 -39.002  44.750  0.00  0.00    +0.000 C 
BRANCH  27  29
ATOM     29  C   UNL     1      49.374 -36.202  45.301  0.00  0.00    +0.000 C 
BRANCH  29  30
ATOM     30  N   UNL     1      49.700 -35.185  44.303  0.00  0.00    +0.000 N 
ATOM     31  N   UNL     1      51.241 -32.248  45.569  0.00  0.00    +0.000 N 
ATOM     32  C   UNL     1      49.139 -33.899  44.802  0.00  0.00    +0.000 C 
ATOM     33  C   UNL     1      51.128 -34.822  44.520  0.00  0.00    +0.000 C 
ATOM     34  C   UNL     1      49.814 -32.612  45.360  0.00  0.00    +0.000 C 
ATOM     35  C   UNL     1      51.803 -33.535  45.078  0.00  0.00    +0.000 C 
ATOM     36  C   UNL     1      51.461 -32.211  47.008  0.00  0.00    +0.000 C 
ENDBRANCH  29  30
ENDBRANCH  27  29
ENDBRANCH  19  26
ENDBRANCH   1  22
BRANCH   2  37
ATOM     37  C   UNL     1      49.643 -44.245  48.681  0.00  0.00    +0.000 A 
ATOM     38  C   UNL     1      50.956 -44.523  49.058  0.00  0.00    +0.000 A 
ATOM     39  C   UNL     1      49.219 -44.403  47.362  0.00  0.00    +0.000 A 
ATOM     40  C   UNL     1      51.859 -44.960  48.094  0.00  0.00    +0.000 A 
ATOM     41  C   UNL     1      50.130 -44.840  46.406  0.00  0.00    +0.000 A 
ATOM     42  C   UNL     1      51.447 -45.118  46.772  0.00  0.00    +0.000 A 
ENDBRANCH   2  37
TORSDOF 9
ENDMDL
MODEL 9
REMARK VINA RESULT:      -7.5      5.470     10.266
REMARK  Name = 135423438_Nintedanib.pdbqt.pdb
REMARK  9 active torsions:
REMARK  status: ('A' for Active; 'I' for Inactive)
REMARK    1  A    between atoms: N_1  and  C_22
REMARK    2  A    between atoms: C_2  and  C_4
REMARK    3  A    between atoms: C_2  and  C_37
REMARK    4  A    between atoms: C_7  and  O_13
REMARK    5  A    between atoms: C_10  and  C_16
REMARK    6  A    between atoms: C_16  and  O_17
REMARK    7  A    between atoms: C_19  and  N_26
REMARK    8  A    between atoms: C_27  and  C_29
REMARK    9  A    between atoms: C_29  and  N_30
REMARK                            x       y       z     vdW  Elec       q    Type
REMARK                         _______ _______ _______ _____ _____    ______ ____
ROOT
ATOM      1  N   UNL     1      49.342 -46.826  49.683  0.00  0.00    +0.000 NA
ATOM      2  C   UNL     1      48.574 -45.784  49.822  0.00  0.00    +0.000 C 
ENDROOT
BRANCH   2   4
ATOM      3  N   UNL     1      46.260 -46.005  52.654  0.00  0.00    +0.000 N 
ATOM      4  C   UNL     1      47.456 -45.912  50.766  0.00  0.00    +0.000 A 
ATOM      5  C   UNL     1      46.079 -46.177  50.443  0.00  0.00    +0.000 A 
ATOM      6  C   UNL     1      45.363 -46.225  51.638  0.00  0.00    +0.000 A 
ATOM      7  C   UNL     1      47.522 -45.819  52.150  0.00  0.00    +0.000 A 
ATOM      8  C   UNL     1      45.374 -46.373  49.238  0.00  0.00    +0.000 A 
ATOM      9  C   UNL     1      43.986 -46.463  51.694  0.00  0.00    +0.000 A 
ATOM     10  C   UNL     1      43.315 -46.659  50.479  0.00  0.00    +0.000 A 
ATOM     11  C   UNL     1      43.998 -46.612  49.269  0.00  0.00    +0.000 A 
ATOM     12  H   UNL     1      46.012 -45.989  53.632  0.00  0.00    +0.000 HD
BRANCH   7  13
ATOM     13  O   UNL     1      48.561 -45.604  52.951  0.00  0.00    +0.000 OA
ATOM     14  H   UNL     1      48.910 -44.704  52.829  0.00  0.00    +0.000 HD
ENDBRANCH   7  13
BRANCH  10  16
ATOM     15  O   UNL     1      41.377 -48.010  50.693  0.00  0.00    +0.000 OA
ATOM     16  C   UNL     1      41.859 -46.916  50.441  0.00  0.00    +0.000 C 
BRANCH  16  17
ATOM     17  O   UNL     1      41.222 -45.763  50.091  0.00  0.00    +0.000 OA
ATOM     18  C   UNL     1      40.296 -45.812  49.036  0.00  0.00    +0.000 C 
ENDBRANCH  16  17
ENDBRANCH  10  16
ENDBRANCH   2   4
BRANCH   1  22
ATOM     19  C   UNL     1      52.621 -46.885  47.010  0.00  0.00    +0.000 A 
ATOM     20  C   UNL     1      52.756 -46.428  48.324  0.00  0.00    +0.000 A 
ATOM     21  C   UNL     1      51.351 -47.323  46.613  0.00  0.00    +0.000 A 
ATOM     22  C   UNL     1      50.413 -46.813  48.782  0.00  0.00    +0.000 A 
ATOM     23  C   UNL     1      51.676 -46.399  49.204  0.00  0.00    +0.000 A 
ATOM     24  C   UNL     1      50.263 -47.299  47.485  0.00  0.00    +0.000 A 
BRANCH  19  26
ATOM     25  O   UNL     1      54.435 -49.111  46.641  0.00  0.00    +0.000 OA
ATOM     26  N   UNL     1      53.737 -46.910  46.092  0.00  0.00    +0.000 N 
ATOM     27  C   UNL     1      54.552 -48.066  46.007  0.00  0.00    +0.000 C 
ATOM     28  C   UNL     1      53.931 -45.685  45.310  0.00  0.00    +0.000 C 
BRANCH  27  29
ATOM     29  C   UNL     1      55.662 -48.013  45.065  0.00  0.00    +0.000 C 
BRANCH  29  30
ATOM     30  N   UNL     1      56.778 -47.930  44.126  0.00  0.00    +0.000 N 
ATOM     31  N   UNL     1      57.006 -44.898  42.294  0.00  0.00    +0.000 N 
ATOM     32  C   UNL     1      56.206 -47.510  42.816  0.00  0.00    +0.000 C 
ATOM     33  C   UNL     1      57.474 -46.644  44.409  0.00  0.00    +0.000 C 
ATOM     34  C   UNL     1      56.304 -46.180  42.014  0.00  0.00    +0.000 C 
ATOM     35  C   UNL     1      57.571 -45.313  43.606  0.00  0.00    +0.000 C 
ATOM     36  C   UNL     1      55.978 -43.905  42.572  0.00  0.00    +0.000 C 
ENDBRANCH  29  30
ENDBRANCH  27  29
ENDBRANCH  19  26
ENDBRANCH   1  22
BRANCH   2  37
ATOM     37  C   UNL     1      48.746 -44.508  49.105  0.00  0.00    +0.000 A 
ATOM     38  C   UNL     1      48.177 -44.348  47.843  0.00  0.00    +0.000 A 
ATOM     39  C   UNL     1      49.446 -43.472  49.721  0.00  0.00    +0.000 A 
ATOM     40  C   UNL     1      48.321 -43.131  47.185  0.00  0.00    +0.000 A 
ATOM     41  C   UNL     1      49.585 -42.259  49.054  0.00  0.00    +0.000 A 
ATOM     42  C   UNL     1      49.024 -42.089  47.789  0.00  0.00    +0.000 A 
ENDBRANCH   2  37
TORSDOF 9
ENDMDL
