MODEL 1
REMARK VINA RESULT:      -7.9      0.000      0.000
REMARK  Name = 135403648_CalciumFolinate.pdbqt.pdb
REMARK  10 active torsions:
REMARK  status: ('A' for Active; 'I' for Inactive)
REMARK    1  A    between atoms: N_1  and  C_3
REMARK    2  A    between atoms: N_1  and  C_24
REMARK    3  A    between atoms: C_6  and  C_11
REMARK    4  A    between atoms: CA_13  and  C_15
REMARK    5  A    between atoms: CA_13  and  CB_18
REMARK    6  A    between atoms: C_15  and  O_16
REMARK    7  A    between atoms: CG_19  and  CD_21
REMARK    8  A    between atoms: CD_21  and  OE1_22
REMARK    9  A    between atoms: C_24  and  C_32
REMARK   10  A    between atoms: N_27  and  C_37
REMARK                            x       y       z     vdW  Elec       q    Type
REMARK                         _______ _______ _______ _____ _____    ______ ____
ROOT
ATOM      1  N   UNL     1      49.513 -46.902  50.354  0.00  0.00    +0.000 N 
ATOM      2  H   UNL     1      50.510 -47.109  50.313  0.00  0.00    +0.000 HD
ENDROOT
BRANCH   1   3
ATOM      3  C   UNL     1      48.809 -47.829  51.151  0.00  0.00    +0.000 A 
ATOM      4  C   UNL     1      49.327 -49.118  51.314  0.00  0.00    +0.000 A 
ATOM      5  C   UNL     1      47.523 -47.568  51.638  0.00  0.00    +0.000 A 
ATOM      6  C   UNL     1      47.355 -49.809  52.525  0.00  0.00    +0.000 A 
ATOM      7  C   UNL     1      48.615 -50.096  52.008  0.00  0.00    +0.000 A 
ATOM      8  C   UNL     1      46.807 -48.540  52.334  0.00  0.00    +0.000 A 
BRANCH   6  11
ATOM      9  O   UNL     1      45.416 -51.051  52.909  0.00  0.00    +0.000 OA
ATOM     10  N   UNL     1      47.196 -51.415  54.346  0.00  0.00    +0.000 N 
ATOM     11  C   ACE A   0      46.562 -50.816  53.274  0.00  0.00    +0.000 C 
ATOM     12  H   UNL     1      48.150 -51.148  54.575  0.00  0.00    +0.000 HD
ATOM     13  CA  UNL     1      46.672 -52.374  55.195  0.00  0.00    +0.000 C 
BRANCH  13  15
ATOM     14  OXT UNL     1      48.665 -53.362  56.070  0.00  0.00    +0.000 OA
ATOM     15  C   UNL     1      47.576 -52.844  56.273  0.00  0.00    +0.000 C 
BRANCH  15  16
ATOM     16  O   UNL     1      47.101 -52.654  57.513  0.00  0.00    +0.000 OA
ATOM     17  H   UNL     1      47.561 -51.852  57.838  0.00  0.00    +0.000 HD
ENDBRANCH  15  16
ENDBRANCH  13  15
BRANCH  13  18
ATOM     18  CB  UNL     1      45.354 -52.880  55.046  0.00  0.00    +0.000 C 
ATOM     19  CG  UNL     1      43.935 -53.437  54.885  0.00  0.00    +0.000 C 
BRANCH  19  21
ATOM     20  OE2 UNL     1      42.198 -54.454  53.697  0.00  0.00    +0.000 OA
ATOM     21  CD  UNL     1      42.617 -53.975  54.736  0.00  0.00    +0.000 C 
BRANCH  21  22
ATOM     22  OE1 UNL     1      41.860 -53.887  55.844  0.00  0.00    +0.000 OA
ATOM     23  HE1 UNL     1      41.760 -54.820  56.124  0.00  0.00    +0.000 HD
ENDBRANCH  21  22
ENDBRANCH  19  21
ENDBRANCH  13  18
ENDBRANCH   6  11
ENDBRANCH   1   3
BRANCH   1  24
ATOM     24  C   UNL     1      49.159 -45.491  50.447  0.00  0.00    +0.000 C 
BRANCH  24  31
ATOM     25  O   UNL     1      49.614 -40.976  47.785  0.00  0.00    +0.000 OA
ATOM     26  N   UNL     1      49.017 -43.184  49.579  0.00  0.00    +0.000 N 
ATOM     27  N   UNL     1      47.571 -42.284  51.947  0.00  0.00    +0.000 N 
ATOM     28  N   UNL     1      47.707 -40.058  51.181  0.00  0.00    +0.000 NA
ATOM     29  N   UNL     1      48.573 -39.505  49.109  0.00  0.00    +0.000 N 
ATOM     30  N   UNL     1      47.708 -37.870  50.480  0.00  0.00    +0.000 N 
ATOM     31  C   UNL     1      48.778 -44.128  50.571  0.00  0.00    +0.000 C 
ATOM     32  C   UNL     1      48.107 -43.581  51.676  0.00  0.00    +0.000 C 
ATOM     33  C   UNL     1      48.639 -41.833  49.817  0.00  0.00    +0.000 A 
ATOM     34  C   UNL     1      47.984 -41.387  50.944  0.00  0.00    +0.000 A 
ATOM     35  C   UNL     1      48.983 -40.769  48.817  0.00  0.00    +0.000 A 
ATOM     36  C   UNL     1      47.991 -39.179  50.282  0.00  0.00    +0.000 A 
ATOM     37  H   UNL     1      47.623 -41.848  52.862  0.00  0.00    +0.000 HD
ATOM     38  H   UNL     1      48.849 -38.789  48.456  0.00  0.00    +0.000 HD
ATOM     39  H   UNL     1      47.091 -37.727  51.275  0.00  0.00    +0.000 HD
ATOM     40  H   UNL     1      47.425 -37.336  49.669  0.00  0.00    +0.000 HD
BRANCH  26  42
ATOM     41  O   UNL     1      50.232 -43.900  47.484  0.00  0.00    +0.000 OA
ATOM     42  C   UNL     1      49.633 -43.578  48.443  0.00  0.00    +0.000 C 
ENDBRANCH  26  42
ENDBRANCH  24  31
ENDBRANCH   1  24
TORSDOF 10
ENDMDL
MODEL 2
REMARK VINA RESULT:      -7.7      2.021      3.054
REMARK  Name = 135403648_CalciumFolinate.pdbqt.pdb
REMARK  10 active torsions:
REMARK  status: ('A' for Active; 'I' for Inactive)
REMARK    1  A    between atoms: N_1  and  C_3
REMARK    2  A    between atoms: N_1  and  C_24
REMARK    3  A    between atoms: C_6  and  C_11
REMARK    4  A    between atoms: CA_13  and  C_15
REMARK    5  A    between atoms: CA_13  and  CB_18
REMARK    6  A    between atoms: C_15  and  O_16
REMARK    7  A    between atoms: CG_19  and  CD_21
REMARK    8  A    between atoms: CD_21  and  OE1_22
REMARK    9  A    between atoms: C_24  and  C_32
REMARK   10  A    between atoms: N_27  and  C_37
REMARK                            x       y       z     vdW  Elec       q    Type
REMARK                         _______ _______ _______ _____ _____    ______ ____
ROOT
ATOM      1  N   UNL     1      49.036 -49.581  51.599  0.00  0.00    +0.000 N 
ATOM      2  H   UNL     1      50.029 -49.802  51.662  0.00  0.00    +0.000 HD
ENDROOT
BRANCH   1   3
ATOM      3  C   UNL     1      48.253 -50.404  52.435  0.00  0.00    +0.000 A 
ATOM      4  C   UNL     1      47.381 -49.810  53.353  0.00  0.00    +0.000 A 
ATOM      5  C   UNL     1      48.444 -51.789  52.508  0.00  0.00    +0.000 A 
ATOM      6  C   UNL     1      46.833 -51.963  54.299  0.00  0.00    +0.000 A 
ATOM      7  C   UNL     1      46.665 -50.581  54.267  0.00  0.00    +0.000 A 
ATOM      8  C   UNL     1      47.731 -52.566  53.418  0.00  0.00    +0.000 A 
BRANCH   6  11
ATOM      9  O   UNL     1      44.926 -53.116  54.995  0.00  0.00    +0.000 OA
ATOM     10  N   UNL     1      46.785 -53.236  56.373  0.00  0.00    +0.000 N 
ATOM     11  C   ACE A   0      46.089 -52.825  55.251  0.00  0.00    +0.000 C 
ATOM     12  H   UNL     1      47.748 -52.937  56.500  0.00  0.00    +0.000 HD
ATOM     13  CA  UNL     1      46.314 -54.035  57.400  0.00  0.00    +0.000 C 
BRANCH  13  15
ATOM     14  OXT UNL     1      48.478 -54.482  58.312  0.00  0.00    +0.000 OA
ATOM     15  C   UNL     1      47.280 -54.319  58.490  0.00  0.00    +0.000 C 
BRANCH  15  16
ATOM     16  O   UNL     1      46.728 -54.382  59.711  0.00  0.00    +0.000 OA
ATOM     17  H   UNL     1      46.073 -53.653  59.729  0.00  0.00    +0.000 HD
ENDBRANCH  15  16
ENDBRANCH  13  15
BRANCH  13  18
ATOM     18  CB  UNL     1      44.993 -54.555  57.412  0.00  0.00    +0.000 C 
ATOM     19  CG  UNL     1      43.563 -55.106  57.420  0.00  0.00    +0.000 C 
BRANCH  19  21
ATOM     20  OE2 UNL     1      41.762 -56.307  58.301  0.00  0.00    +0.000 OA
ATOM     21  CD  UNL     1      42.221 -55.605  57.417  0.00  0.00    +0.000 C 
BRANCH  21  22
ATOM     22  OE1 UNL     1      41.506 -55.249  56.336  0.00  0.00    +0.000 OA
ATOM     23  HE1 UNL     1      42.169 -54.822  55.756  0.00  0.00    +0.000 HD
ENDBRANCH  21  22
ENDBRANCH  19  21
ENDBRANCH  13  18
ENDBRANCH   6  11
ENDBRANCH   1   3
BRANCH   1  24
ATOM     24  C   UNL     1      48.704 -48.164  51.503  0.00  0.00    +0.000 C 
BRANCH  24  31
ATOM     25  O   UNL     1      50.462 -43.679  49.388  0.00  0.00    +0.000 OA
ATOM     26  N   UNL     1      49.037 -45.863  50.673  0.00  0.00    +0.000 N 
ATOM     27  N   UNL     1      46.647 -44.921  52.055  0.00  0.00    +0.000 N 
ATOM     28  N   UNL     1      47.173 -42.703  51.449  0.00  0.00    +0.000 NA
ATOM     29  N   UNL     1      48.938 -42.182  50.048  0.00  0.00    +0.000 N 
ATOM     30  N   UNL     1      47.550 -40.522  50.834  0.00  0.00    +0.000 N 
ATOM     31  C   UNL     1      48.334 -46.795  51.429  0.00  0.00    +0.000 C 
ATOM     32  C   UNL     1      47.224 -46.228  52.075  0.00  0.00    +0.000 C 
ATOM     33  C   UNL     1      48.615 -44.505  50.700  0.00  0.00    +0.000 A 
ATOM     34  C   UNL     1      47.507 -44.039  51.374  0.00  0.00    +0.000 A 
ATOM     35  C   UNL     1      49.416 -43.455  49.989  0.00  0.00    +0.000 A 
ATOM     36  C   UNL     1      47.869 -41.837  50.797  0.00  0.00    +0.000 A 
ATOM     37  H   UNL     1      46.261 -44.478  52.883  0.00  0.00    +0.000 HD
ATOM     38  H   UNL     1      49.507 -41.476  49.609  0.00  0.00    +0.000 HD
ATOM     39  H   UNL     1      46.629 -40.363  51.235  0.00  0.00    +0.000 HD
ATOM     40  H   UNL     1      47.701 -39.990  49.988  0.00  0.00    +0.000 HD
BRANCH  26  42
ATOM     41  O   UNL     1      51.075 -46.675  49.422  0.00  0.00    +0.000 OA
ATOM     42  C   UNL     1      50.116 -46.276  49.973  0.00  0.00    +0.000 C 
ENDBRANCH  26  42
ENDBRANCH  24  31
ENDBRANCH   1  24
TORSDOF 10
ENDMDL
MODEL 3
REMARK VINA RESULT:      -7.6      3.695     11.815
REMARK  Name = 135403648_CalciumFolinate.pdbqt.pdb
REMARK  10 active torsions:
REMARK  status: ('A' for Active; 'I' for Inactive)
REMARK    1  A    between atoms: N_1  and  C_3
REMARK    2  A    between atoms: N_1  and  C_24
REMARK    3  A    between atoms: C_6  and  C_11
REMARK    4  A    between atoms: CA_13  and  C_15
REMARK    5  A    between atoms: CA_13  and  CB_18
REMARK    6  A    between atoms: C_15  and  O_16
REMARK    7  A    between atoms: CG_19  and  CD_21
REMARK    8  A    between atoms: CD_21  and  OE1_22
REMARK    9  A    between atoms: C_24  and  C_32
REMARK   10  A    between atoms: N_27  and  C_37
REMARK                            x       y       z     vdW  Elec       q    Type
REMARK                         _______ _______ _______ _____ _____    ______ ____
ROOT
ATOM      1  N   UNL     1      46.310 -51.463  53.098  0.00  0.00    +0.000 N 
ATOM      2  H   UNL     1      45.299 -51.594  53.071  0.00  0.00    +0.000 HD
ENDROOT
BRANCH   1   3
ATOM      3  C   UNL     1      46.684 -50.139  52.783  0.00  0.00    +0.000 A 
ATOM      4  C   UNL     1      45.697 -49.225  52.403  0.00  0.00    +0.000 A 
ATOM      5  C   UNL     1      48.024 -49.753  52.662  0.00  0.00    +0.000 A 
ATOM      6  C   UNL     1      47.368 -47.552  51.912  0.00  0.00    +0.000 A 
ATOM      7  C   UNL     1      46.032 -47.937  51.986  0.00  0.00    +0.000 A 
ATOM      8  C   UNL     1      48.366 -48.467  52.247  0.00  0.00    +0.000 A 
BRANCH   6  11
ATOM      9  O   UNL     1      47.139 -45.229  51.895  0.00  0.00    +0.000 OA
ATOM     10  N   UNL     1      48.854 -46.123  50.619  0.00  0.00    +0.000 N 
ATOM     11  C   ACE A   0      47.773 -46.192  51.478  0.00  0.00    +0.000 C 
ATOM     12  H   UNL     1      49.313 -46.981  50.325  0.00  0.00    +0.000 HD
ATOM     13  CA  UNL     1      49.417 -44.981  50.076  0.00  0.00    +0.000 C 
BRANCH  13  15
ATOM     14  OXT UNL     1      51.546 -45.881  49.468  0.00  0.00    +0.000 OA
ATOM     15  C   UNL     1      50.575 -45.198  49.176  0.00  0.00    +0.000 C 
BRANCH  15  16
ATOM     16  O   UNL     1      50.475 -44.577  47.991  0.00  0.00    +0.000 OA
ATOM     17  H   UNL     1      51.381 -44.256  47.798  0.00  0.00    +0.000 HD
ENDBRANCH  15  16
ENDBRANCH  13  15
BRANCH  13  18
ATOM     18  CB  UNL     1      48.920 -43.682  50.362  0.00  0.00    +0.000 C 
ATOM     19  CG  UNL     1      48.393 -42.274  50.664  0.00  0.00    +0.000 C 
BRANCH  19  21
ATOM     20  OE2 UNL     1      46.813 -40.553  50.594  0.00  0.00    +0.000 OA
ATOM     21  CD  UNL     1      47.913 -40.953  50.933  0.00  0.00    +0.000 C 
BRANCH  21  22
ATOM     22  OE1 UNL     1      48.796 -40.170  51.579  0.00  0.00    +0.000 OA
ATOM     23  HE1 UNL     1      49.112 -39.561  50.882  0.00  0.00    +0.000 HD
ENDBRANCH  21  22
ENDBRANCH  19  21
ENDBRANCH  13  18
ENDBRANCH   6  11
ENDBRANCH   1   3
BRANCH   1  24
ATOM     24  C   UNL     1      47.012 -52.150  54.175  0.00  0.00    +0.000 C 
BRANCH  24  31
ATOM     25  O   UNL     1      51.188 -55.243  54.998  0.00  0.00    +0.000 OA
ATOM     26  N   UNL     1      48.867 -53.495  55.095  0.00  0.00    +0.000 N 
ATOM     27  N   UNL     1      47.838 -53.225  57.812  0.00  0.00    +0.000 N 
ATOM     28  N   UNL     1      49.479 -54.732  58.581  0.00  0.00    +0.000 NA
ATOM     29  N   UNL     1      51.150 -55.559  57.211  0.00  0.00    +0.000 N 
ATOM     30  N   UNL     1      51.095 -56.119  59.444  0.00  0.00    +0.000 N 
ATOM     31  C   UNL     1      47.685 -52.780  55.256  0.00  0.00    +0.000 C 
ATOM     32  C   UNL     1      47.265 -52.741  56.595  0.00  0.00    +0.000 C 
ATOM     33  C   UNL     1      49.441 -54.129  56.232  0.00  0.00    +0.000 A 
ATOM     34  C   UNL     1      48.948 -54.037  57.516  0.00  0.00    +0.000 A 
ATOM     35  C   UNL     1      50.651 -55.001  56.075  0.00  0.00    +0.000 A 
ATOM     36  C   UNL     1      50.539 -55.446  58.410  0.00  0.00    +0.000 A 
ATOM     37  H   UNL     1      47.282 -53.634  58.556  0.00  0.00    +0.000 HD
ATOM     38  H   UNL     1      51.933 -56.181  57.091  0.00  0.00    +0.000 HD
ATOM     39  H   UNL     1      50.716 -55.826  60.340  0.00  0.00    +0.000 HD
ATOM     40  H   UNL     1      52.103 -56.191  59.453  0.00  0.00    +0.000 HD
BRANCH  26  42
ATOM     41  O   UNL     1      49.812 -53.712  52.764  0.00  0.00    +0.000 OA
ATOM     42  C   UNL     1      49.404 -53.591  53.859  0.00  0.00    +0.000 C 
ENDBRANCH  26  42
ENDBRANCH  24  31
ENDBRANCH   1  24
TORSDOF 10
ENDMDL
MODEL 4
REMARK VINA RESULT:      -7.5      3.901     12.374
REMARK  Name = 135403648_CalciumFolinate.pdbqt.pdb
REMARK  10 active torsions:
REMARK  status: ('A' for Active; 'I' for Inactive)
REMARK    1  A    between atoms: N_1  and  C_3
REMARK    2  A    between atoms: N_1  and  C_24
REMARK    3  A    between atoms: C_6  and  C_11
REMARK    4  A    between atoms: CA_13  and  C_15
REMARK    5  A    between atoms: CA_13  and  CB_18
REMARK    6  A    between atoms: C_15  and  O_16
REMARK    7  A    between atoms: CG_19  and  CD_21
REMARK    8  A    between atoms: CD_21  and  OE1_22
REMARK    9  A    between atoms: C_24  and  C_32
REMARK   10  A    between atoms: N_27  and  C_37
REMARK                            x       y       z     vdW  Elec       q    Type
REMARK                         _______ _______ _______ _____ _____    ______ ____
ROOT
ATOM      1  N   UNL     1      48.464 -45.168  51.376  0.00  0.00    +0.000 N 
ATOM      2  H   UNL     1      49.247 -45.731  51.046  0.00  0.00    +0.000 HD
ENDROOT
BRANCH   1   3
ATOM      3  C   UNL     1      48.588 -43.813  51.002  0.00  0.00    +0.000 A 
ATOM      4  C   UNL     1      47.902 -42.839  51.735  0.00  0.00    +0.000 A 
ATOM      5  C   UNL     1      49.226 -43.421  49.820  0.00  0.00    +0.000 A 
ATOM      6  C   UNL     1      48.591 -41.119  50.185  0.00  0.00    +0.000 A 
ATOM      7  C   UNL     1      47.915 -41.501  51.341  0.00  0.00    +0.000 A 
ATOM      8  C   UNL     1      49.244 -42.086  49.420  0.00  0.00    +0.000 A 
BRANCH   6  11
ATOM      9  O   UNL     1      49.264 -39.439  48.710  0.00  0.00    +0.000 OA
ATOM     10  N   UNL     1      47.954 -38.793  50.509  0.00  0.00    +0.000 N 
ATOM     11  C   ACE A   0      48.637 -39.708  49.729  0.00  0.00    +0.000 C 
ATOM     12  H   UNL     1      47.465 -39.113  51.341  0.00  0.00    +0.000 HD
ATOM     13  CA  UNL     1      47.850 -37.430  50.296  0.00  0.00    +0.000 C 
BRANCH  13  15
ATOM     14  OXT UNL     1      47.530 -36.174  52.305  0.00  0.00    +0.000 OA
ATOM     15  C   UNL     1      47.054 -36.680  51.299  0.00  0.00    +0.000 C 
BRANCH  15  16
ATOM     16  O   UNL     1      45.746 -36.596  51.013  0.00  0.00    +0.000 OA
ATOM     17  H   UNL     1      45.300 -36.550  51.885  0.00  0.00    +0.000 HD
ENDBRANCH  15  16
ENDBRANCH  13  15
BRANCH  13  18
ATOM     18  CB  UNL     1      48.462 -36.785  49.190  0.00  0.00    +0.000 C 
ATOM     19  CG  UNL     1      49.130 -36.100  47.992  0.00  0.00    +0.000 C 
BRANCH  19  21
ATOM     20  OE2 UNL     1      50.042 -34.290  46.827  0.00  0.00    +0.000 OA
ATOM     21  CD  UNL     1      49.763 -35.475  46.871  0.00  0.00    +0.000 C 
BRANCH  21  22
ATOM     22  OE1 UNL     1      50.010 -36.310  45.845  0.00  0.00    +0.000 OA
ATOM     23  HE1 UNL     1      49.617 -37.156  46.143  0.00  0.00    +0.000 HD
ENDBRANCH  21  22
ENDBRANCH  19  21
ENDBRANCH  13  18
ENDBRANCH   6  11
ENDBRANCH   1   3
BRANCH   1  24
ATOM     24  C   UNL     1      47.150 -45.796  51.299  0.00  0.00    +0.000 C 
BRANCH  24  31
ATOM     25  O   UNL     1      45.214 -50.686  51.182  0.00  0.00    +0.000 OA
ATOM     26  N   UNL     1      45.756 -47.833  51.314  0.00  0.00    +0.000 N 
ATOM     27  N   UNL     1      43.301 -46.265  51.166  0.00  0.00    +0.000 N 
ATOM     28  N   UNL     1      42.051 -48.249  50.915  0.00  0.00    +0.000 NA
ATOM     29  N   UNL     1      43.006 -50.349  51.073  0.00  0.00    +0.000 N 
ATOM     30  N   UNL     1      40.737 -50.126  50.755  0.00  0.00    +0.000 N 
ATOM     31  C   UNL     1      45.891 -46.451  51.246  0.00  0.00    +0.000 C 
ATOM     32  C   UNL     1      44.652 -45.799  51.145  0.00  0.00    +0.000 C 
ATOM     33  C   UNL     1      44.454 -48.397  51.206  0.00  0.00    +0.000 A 
ATOM     34  C   UNL     1      43.288 -47.671  51.103  0.00  0.00    +0.000 A 
ATOM     35  C   UNL     1      44.283 -49.887  51.160  0.00  0.00    +0.000 A 
ATOM     36  C   UNL     1      41.943 -49.533  50.914  0.00  0.00    +0.000 A 
ATOM     37  H   UNL     1      42.575 -45.873  50.573  0.00  0.00    +0.000 HD
ATOM     38  H   UNL     1      42.902 -51.349  50.995  0.00  0.00    +0.000 HD
ATOM     39  H   UNL     1      39.970 -49.466  50.852  0.00  0.00    +0.000 HD
ATOM     40  H   UNL     1      40.578 -50.984  51.267  0.00  0.00    +0.000 HD
BRANCH  26  42
ATOM     41  O   UNL     1      47.865 -49.209  51.497  0.00  0.00    +0.000 OA
ATOM     42  C   UNL     1      46.869 -48.588  51.442  0.00  0.00    +0.000 C 
ENDBRANCH  26  42
ENDBRANCH  24  31
ENDBRANCH   1  24
TORSDOF 10
ENDMDL
MODEL 5
REMARK VINA RESULT:      -7.5      4.235     12.430
REMARK  Name = 135403648_CalciumFolinate.pdbqt.pdb
REMARK  10 active torsions:
REMARK  status: ('A' for Active; 'I' for Inactive)
REMARK    1  A    between atoms: N_1  and  C_3
REMARK    2  A    between atoms: N_1  and  C_24
REMARK    3  A    between atoms: C_6  and  C_11
REMARK    4  A    between atoms: CA_13  and  C_15
REMARK    5  A    between atoms: CA_13  and  CB_18
REMARK    6  A    between atoms: C_15  and  O_16
REMARK    7  A    between atoms: CG_19  and  CD_21
REMARK    8  A    between atoms: CD_21  and  OE1_22
REMARK    9  A    between atoms: C_24  and  C_32
REMARK   10  A    between atoms: N_27  and  C_37
REMARK                            x       y       z     vdW  Elec       q    Type
REMARK                         _______ _______ _______ _____ _____    ______ ____
ROOT
ATOM      1  N   UNL     1      44.570 -52.749  54.648  0.00  0.00    +0.000 N 
ATOM      2  H   UNL     1      43.620 -52.397  54.768  0.00  0.00    +0.000 HD
ENDROOT
BRANCH   1   3
ATOM      3  C   UNL     1      45.397 -51.829  53.971  0.00  0.00    +0.000 A 
ATOM      4  C   UNL     1      46.260 -51.016  54.711  0.00  0.00    +0.000 A 
ATOM      5  C   UNL     1      45.259 -51.570  52.602  0.00  0.00    +0.000 A 
ATOM      6  C   UNL     1      46.905 -49.807  52.723  0.00  0.00    +0.000 A 
ATOM      7  C   UNL     1      47.021 -50.024  54.093  0.00  0.00    +0.000 A 
ATOM      8  C   UNL     1      46.016 -50.582  51.977  0.00  0.00    +0.000 A 
BRANCH   6  11
ATOM      9  O   UNL     1      48.565 -49.121  51.231  0.00  0.00    +0.000 OA
ATOM     10  N   UNL     1      47.383 -47.455  52.322  0.00  0.00    +0.000 N 
ATOM     11  C   ACE A   0      47.697 -48.766  52.020  0.00  0.00    +0.000 C 
ATOM     12  H   UNL     1      46.646 -47.260  52.996  0.00  0.00    +0.000 HD
ATOM     13  CA  UNL     1      47.974 -46.315  51.806  0.00  0.00    +0.000 C 
BRANCH  13  15
ATOM     14  OXT UNL     1      46.647 -44.330  51.695  0.00  0.00    +0.000 OA
ATOM     15  C   UNL     1      47.440 -45.027  52.311  0.00  0.00    +0.000 C 
BRANCH  15  16
ATOM     16  O   UNL     1      47.902 -44.676  53.521  0.00  0.00    +0.000 OA
ATOM     17  H   UNL     1      47.134 -44.270  53.975  0.00  0.00    +0.000 HD
ENDBRANCH  15  16
ENDBRANCH  13  15
BRANCH  13  18
ATOM     18  CB  UNL     1      49.023 -46.371  50.851  0.00  0.00    +0.000 C 
ATOM     19  CG  UNL     1      50.164 -46.436  49.829  0.00  0.00    +0.000 C 
BRANCH  19  21
ATOM     20  OE2 UNL     1      51.179 -47.115  47.837  0.00  0.00    +0.000 OA
ATOM     21  CD  UNL     1      51.240 -46.503  48.889  0.00  0.00    +0.000 C 
BRANCH  21  22
ATOM     22  OE1 UNL     1      52.349 -45.846  49.275  0.00  0.00    +0.000 OA
ATOM     23  HE1 UNL     1      52.872 -46.535  49.732  0.00  0.00    +0.000 HD
ENDBRANCH  21  22
ENDBRANCH  19  21
ENDBRANCH  13  18
ENDBRANCH   6  11
ENDBRANCH   1   3
BRANCH   1  24
ATOM     24  C   UNL     1      45.123 -53.487  55.777  0.00  0.00    +0.000 C 
BRANCH  24  31
ATOM     25  O   UNL     1      49.701 -55.744  57.054  0.00  0.00    +0.000 OA
ATOM     26  N   UNL     1      47.029 -54.613  56.870  0.00  0.00    +0.000 N 
ATOM     27  N   UNL     1      45.404 -55.315  59.189  0.00  0.00    +0.000 N 
ATOM     28  N   UNL     1      47.186 -56.598  60.047  0.00  0.00    +0.000 NA
ATOM     29  N   UNL     1      49.273 -56.652  59.052  0.00  0.00    +0.000 N 
ATOM     30  N   UNL     1      48.891 -57.798  61.011  0.00  0.00    +0.000 N 
ATOM     31  C   UNL     1      45.692 -54.233  56.844  0.00  0.00    +0.000 C 
ATOM     32  C   UNL     1      44.998 -54.649  57.991  0.00  0.00    +0.000 C 
ATOM     33  C   UNL     1      47.494 -55.399  57.961  0.00  0.00    +0.000 A 
ATOM     34  C   UNL     1      46.729 -55.766  59.048  0.00  0.00    +0.000 A 
ATOM     35  C   UNL     1      48.899 -55.923  57.965  0.00  0.00    +0.000 A 
ATOM     36  C   UNL     1      48.410 -57.000  60.030  0.00  0.00    +0.000 A 
ATOM     37  H   UNL     1      44.832 -56.019  59.647  0.00  0.00    +0.000 HD
ATOM     38  H   UNL     1      50.203 -57.040  59.025  0.00  0.00    +0.000 HD
ATOM     39  H   UNL     1      48.263 -57.846  61.809  0.00  0.00    +0.000 HD
ATOM     40  H   UNL     1      49.855 -57.658  61.285  0.00  0.00    +0.000 HD
BRANCH  26  42
ATOM     41  O   UNL     1      48.461 -53.950  54.899  0.00  0.00    +0.000 OA
ATOM     42  C   UNL     1      47.825 -54.255  55.839  0.00  0.00    +0.000 C 
ENDBRANCH  26  42
ENDBRANCH  24  31
ENDBRANCH   1  24
TORSDOF 10
ENDMDL
MODEL 6
REMARK VINA RESULT:      -7.5      2.820      4.891
REMARK  Name = 135403648_CalciumFolinate.pdbqt.pdb
REMARK  10 active torsions:
REMARK  status: ('A' for Active; 'I' for Inactive)
REMARK    1  A    between atoms: N_1  and  C_3
REMARK    2  A    between atoms: N_1  and  C_24
REMARK    3  A    between atoms: C_6  and  C_11
REMARK    4  A    between atoms: CA_13  and  C_15
REMARK    5  A    between atoms: CA_13  and  CB_18
REMARK    6  A    between atoms: C_15  and  O_16
REMARK    7  A    between atoms: CG_19  and  CD_21
REMARK    8  A    between atoms: CD_21  and  OE1_22
REMARK    9  A    between atoms: C_24  and  C_32
REMARK   10  A    between atoms: N_27  and  C_37
REMARK                            x       y       z     vdW  Elec       q    Type
REMARK                         _______ _______ _______ _____ _____    ______ ____
ROOT
ATOM      1  N   UNL     1      47.953 -50.545  51.596  0.00  0.00    +0.000 N 
ATOM      2  H   UNL     1      48.666 -50.909  50.965  0.00  0.00    +0.000 HD
ENDROOT
BRANCH   1   3
ATOM      3  C   UNL     1      47.855 -51.303  52.782  0.00  0.00    +0.000 A 
ATOM      4  C   UNL     1      48.599 -52.481  52.900  0.00  0.00    +0.000 A 
ATOM      5  C   UNL     1      46.907 -51.019  53.772  0.00  0.00    +0.000 A 
ATOM      6  C   UNL     1      47.540 -52.995  55.009  0.00  0.00    +0.000 A 
ATOM      7  C   UNL     1      48.457 -53.313  54.010  0.00  0.00    +0.000 A 
ATOM      8  C   UNL     1      46.760 -51.845  54.884  0.00  0.00    +0.000 A 
BRANCH   6  11
ATOM      9  O   UNL     1      48.346 -54.353  56.729  0.00  0.00    +0.000 OA
ATOM     10  N   UNL     1      46.057 -54.003  56.654  0.00  0.00    +0.000 N 
ATOM     11  C   ACE A   0      47.357 -53.847  56.211  0.00  0.00    +0.000 C 
ATOM     12  H   UNL     1      45.300 -53.545  56.152  0.00  0.00    +0.000 HD
ATOM     13  CA  UNL     1      45.630 -54.744  57.742  0.00  0.00    +0.000 C 
BRANCH  13  15
ATOM     14  OXT UNL     1      43.336 -54.422  57.152  0.00  0.00    +0.000 OA
ATOM     15  C   UNL     1      44.168 -54.742  57.989  0.00  0.00    +0.000 C 
BRANCH  15  16
ATOM     16  O   UNL     1      43.818 -55.127  59.226  0.00  0.00    +0.000 OA
ATOM     17  H   UNL     1      42.853 -54.967  59.275  0.00  0.00    +0.000 HD
ENDBRANCH  15  16
ENDBRANCH  13  15
BRANCH  13  18
ATOM     18  CB  UNL     1      46.531 -55.461  58.571  0.00  0.00    +0.000 C 
ATOM     19  CG  UNL     1      47.500 -56.230  59.477  0.00  0.00    +0.000 C 
BRANCH  19  21
ATOM     20  OE2 UNL     1      48.052 -57.465  61.384  0.00  0.00    +0.000 OA
ATOM     21  CD  UNL     1      48.395 -56.941  60.338  0.00  0.00    +0.000 C 
BRANCH  21  22
ATOM     22  OE1 UNL     1      49.668 -56.967  59.905  0.00  0.00    +0.000 OA
ATOM     23  HE1 UNL     1      50.021 -57.795  60.288  0.00  0.00    +0.000 HD
ENDBRANCH  21  22
ENDBRANCH  19  21
ENDBRANCH  13  18
ENDBRANCH   6  11
ENDBRANCH   1   3
BRANCH   1  24
ATOM     24  C   UNL     1      47.862 -49.093  51.685  0.00  0.00    +0.000 C 
BRANCH  24  31
ATOM     25  O   UNL     1      50.058 -44.846  49.490  0.00  0.00    +0.000 OA
ATOM     26  N   UNL     1      48.514 -46.826  50.954  0.00  0.00    +0.000 N 
ATOM     27  N   UNL     1      46.812 -45.585  52.972  0.00  0.00    +0.000 N 
ATOM     28  N   UNL     1      47.681 -43.469  52.400  0.00  0.00    +0.000 NA
ATOM     29  N   UNL     1      49.130 -43.157  50.625  0.00  0.00    +0.000 N 
ATOM     30  N   UNL     1      48.397 -41.356  51.856  0.00  0.00    +0.000 N 
ATOM     31  C   UNL     1      47.815 -47.678  51.803  0.00  0.00    +0.000 C 
ATOM     32  C   UNL     1      47.056 -46.977  52.753  0.00  0.00    +0.000 C 
ATOM     33  C   UNL     1      48.439 -45.424  51.181  0.00  0.00    +0.000 A 
ATOM     34  C   UNL     1      47.665 -44.825  52.151  0.00  0.00    +0.000 A 
ATOM     35  C   UNL     1      49.270 -44.485  50.358  0.00  0.00    +0.000 A 
ATOM     36  C   UNL     1      48.383 -42.693  51.649  0.00  0.00    +0.000 A 
ATOM     37  H   UNL     1      46.750 -45.178  53.900  0.00  0.00    +0.000 HD
ATOM     38  H   UNL     1      49.725 -42.536  50.100  0.00  0.00    +0.000 HD
ATOM     39  H   UNL     1      47.663 -41.059  52.493  0.00  0.00    +0.000 HD
ATOM     40  H   UNL     1      48.461 -40.766  51.037  0.00  0.00    +0.000 HD
BRANCH  26  42
ATOM     41  O   UNL     1      49.981 -47.816  49.152  0.00  0.00    +0.000 OA
ATOM     42  C   UNL     1      49.267 -47.366  49.970  0.00  0.00    +0.000 C 
ENDBRANCH  26  42
ENDBRANCH  24  31
ENDBRANCH   1  24
TORSDOF 10
ENDMDL
MODEL 7
REMARK VINA RESULT:      -7.4      1.443      2.804
REMARK  Name = 135403648_CalciumFolinate.pdbqt.pdb
REMARK  10 active torsions:
REMARK  status: ('A' for Active; 'I' for Inactive)
REMARK    1  A    between atoms: N_1  and  C_3
REMARK    2  A    between atoms: N_1  and  C_24
REMARK    3  A    between atoms: C_6  and  C_11
REMARK    4  A    between atoms: CA_13  and  C_15
REMARK    5  A    between atoms: CA_13  and  CB_18
REMARK    6  A    between atoms: C_15  and  O_16
REMARK    7  A    between atoms: CG_19  and  CD_21
REMARK    8  A    between atoms: CD_21  and  OE1_22
REMARK    9  A    between atoms: C_24  and  C_32
REMARK   10  A    between atoms: N_27  and  C_37
REMARK                            x       y       z     vdW  Elec       q    Type
REMARK                         _______ _______ _______ _____ _____    ______ ____
ROOT
ATOM      1  N   UNL     1      49.769 -46.170  49.731  0.00  0.00    +0.000 N 
ATOM      2  H   UNL     1      50.769 -46.337  49.623  0.00  0.00    +0.000 HD
ENDROOT
BRANCH   1   3
ATOM      3  C   UNL     1      49.128 -47.210  50.437  0.00  0.00    +0.000 A 
ATOM      4  C   UNL     1      47.842 -46.998  50.943  0.00  0.00    +0.000 A 
ATOM      5  C   UNL     1      49.798 -48.383  50.805  0.00  0.00    +0.000 A 
ATOM      6  C   UNL     1      47.875 -49.142  52.054  0.00  0.00    +0.000 A 
ATOM      7  C   UNL     1      47.212 -47.960  51.731  0.00  0.00    +0.000 A 
ATOM      8  C   UNL     1      49.175 -49.349  51.592  0.00  0.00    +0.000 A 
BRANCH   6  11
ATOM      9  O   UNL     1      47.766 -50.493  53.956  0.00  0.00    +0.000 OA
ATOM     10  N   UNL     1      46.096 -50.771  52.375  0.00  0.00    +0.000 N 
ATOM     11  C   ACE A   0      47.244 -50.197  52.887  0.00  0.00    +0.000 C 
ATOM     12  H   UNL     1      45.741 -50.461  51.474  0.00  0.00    +0.000 HD
ATOM     13  CA  UNL     1      45.332 -51.768  52.955  0.00  0.00    +0.000 C 
BRANCH  13  15
ATOM     14  OXT UNL     1      43.083 -52.534  52.689  0.00  0.00    +0.000 OA
ATOM     15  C   UNL     1      44.145 -52.205  52.180  0.00  0.00    +0.000 C 
BRANCH  15  16
ATOM     16  O   UNL     1      44.326 -52.210  50.851  0.00  0.00    +0.000 OA
ATOM     17  H   UNL     1      44.012 -53.090  50.557  0.00  0.00    +0.000 HD
ENDBRANCH  15  16
ENDBRANCH  13  15
BRANCH  13  18
ATOM     18  CB  UNL     1      45.659 -52.339  54.213  0.00  0.00    +0.000 C 
ATOM     19  CG  UNL     1      46.023 -52.959  55.567  0.00  0.00    +0.000 C 
BRANCH  19  21
ATOM     20  OE2 UNL     1      46.024 -54.653  57.178  0.00  0.00    +0.000 OA
ATOM     21  CD  UNL     1      46.379 -53.542  56.824  0.00  0.00    +0.000 C 
BRANCH  21  22
ATOM     22  OE1 UNL     1      47.132 -52.746  57.605  0.00  0.00    +0.000 OA
ATOM     23  HE1 UNL     1      47.240 -51.937  57.064  0.00  0.00    +0.000 HD
ENDBRANCH  21  22
ENDBRANCH  19  21
ENDBRANCH  13  18
ENDBRANCH   6  11
ENDBRANCH   1   3
BRANCH   1  24
ATOM     24  C   UNL     1      49.381 -44.793  50.011  0.00  0.00    +0.000 C 
BRANCH  24  31
ATOM     25  O   UNL     1      49.434 -40.103  47.627  0.00  0.00    +0.000 OA
ATOM     26  N   UNL     1      49.076 -42.444  49.312  0.00  0.00    +0.000 N 
ATOM     27  N   UNL     1      47.800 -41.760  51.845  0.00  0.00    +0.000 N 
ATOM     28  N   UNL     1      47.784 -39.487  51.221  0.00  0.00    +0.000 NA
ATOM     29  N   UNL     1      48.451 -38.767  49.126  0.00  0.00    +0.000 N 
ATOM     30  N   UNL     1      47.641 -37.262  50.668  0.00  0.00    +0.000 N 
ATOM     31  C   UNL     1      48.959 -43.459  50.256  0.00  0.00    +0.000 C 
ATOM     32  C   UNL     1      48.361 -43.013  51.446  0.00  0.00    +0.000 C 
ATOM     33  C   UNL     1      48.667 -41.130  49.670  0.00  0.00    +0.000 A 
ATOM     34  C   UNL     1      48.092 -40.785  50.874  0.00  0.00    +0.000 A 
ATOM     35  C   UNL     1      48.884 -39.991  48.718  0.00  0.00    +0.000 A 
ATOM     36  C   UNL     1      47.957 -38.542  50.362  0.00  0.00    +0.000 A 
ATOM     37  H   UNL     1      47.912 -41.381  52.780  0.00  0.00    +0.000 HD
ATOM     38  H   UNL     1      48.643 -37.999  48.502  0.00  0.00    +0.000 HD
ATOM     39  H   UNL     1      47.088 -37.196  51.519  0.00  0.00    +0.000 HD
ATOM     40  H   UNL     1      47.271 -36.690  49.921  0.00  0.00    +0.000 HD
BRANCH  26  42
ATOM     41  O   UNL     1      50.139 -42.981  47.085  0.00  0.00    +0.000 OA
ATOM     42  C   UNL     1      49.609 -42.739  48.107  0.00  0.00    +0.000 C 
ENDBRANCH  26  42
ENDBRANCH  24  31
ENDBRANCH   1  24
TORSDOF 10
ENDMDL
MODEL 8
REMARK VINA RESULT:      -7.3      3.891     12.025
REMARK  Name = 135403648_CalciumFolinate.pdbqt.pdb
REMARK  10 active torsions:
REMARK  status: ('A' for Active; 'I' for Inactive)
REMARK    1  A    between atoms: N_1  and  C_3
REMARK    2  A    between atoms: N_1  and  C_24
REMARK    3  A    between atoms: C_6  and  C_11
REMARK    4  A    between atoms: CA_13  and  C_15
REMARK    5  A    between atoms: CA_13  and  CB_18
REMARK    6  A    between atoms: C_15  and  O_16
REMARK    7  A    between atoms: CG_19  and  CD_21
REMARK    8  A    between atoms: CD_21  and  OE1_22
REMARK    9  A    between atoms: C_24  and  C_32
REMARK   10  A    between atoms: N_27  and  C_37
REMARK                            x       y       z     vdW  Elec       q    Type
REMARK                         _______ _______ _______ _____ _____    ______ ____
ROOT
ATOM      1  N   UNL     1      46.268 -51.393  53.436  0.00  0.00    +0.000 N 
ATOM      2  H   UNL     1      45.334 -51.060  53.674  0.00  0.00    +0.000 HD
ENDROOT
BRANCH   1   3
ATOM      3  C   UNL     1      46.995 -50.447  52.683  0.00  0.00    +0.000 A 
ATOM      4  C   UNL     1      48.015 -50.889  51.836  0.00  0.00    +0.000 A 
ATOM      5  C   UNL     1      46.857 -49.068  52.885  0.00  0.00    +0.000 A 
ATOM      6  C   UNL     1      48.647 -48.614  51.329  0.00  0.00    +0.000 A 
ATOM      7  C   UNL     1      48.825 -49.984  51.151  0.00  0.00    +0.000 A 
ATOM      8  C   UNL     1      47.661 -48.157  52.204  0.00  0.00    +0.000 A 
BRANCH   6  11
ATOM      9  O   UNL     1      50.585 -47.952  50.208  0.00  0.00    +0.000 OA
ATOM     10  N   UNL     1      48.932 -46.352  50.478  0.00  0.00    +0.000 N 
ATOM     11  C   ACE A   0      49.481 -47.612  50.618  0.00  0.00    +0.000 C 
ATOM     12  H   UNL     1      48.007 -46.165  50.858  0.00  0.00    +0.000 HD
ATOM     13  CA  UNL     1      49.508 -45.255  49.862  0.00  0.00    +0.000 C 
BRANCH  13  15
ATOM     14  OXT UNL     1      47.509 -43.981  49.552  0.00  0.00    +0.000 OA
ATOM     15  C   UNL     1      48.692 -44.016  49.858  0.00  0.00    +0.000 C 
BRANCH  15  16
ATOM     16  O   UNL     1      49.364 -42.914  50.223  0.00  0.00    +0.000 OA
ATOM     17  H   UNL     1      49.132 -42.779  51.166  0.00  0.00    +0.000 HD
ENDBRANCH  15  16
ENDBRANCH  13  15
BRANCH  13  18
ATOM     18  CB  UNL     1      50.797 -45.308  49.269  0.00  0.00    +0.000 C 
ATOM     19  CG  UNL     1      52.188 -45.354  48.627  0.00  0.00    +0.000 C 
BRANCH  19  21
ATOM     20  OE2 UNL     1      54.456 -45.912  48.536  0.00  0.00    +0.000 OA
ATOM     21  CD  UNL     1      53.487 -45.378  48.026  0.00  0.00    +0.000 C 
BRANCH  21  22
ATOM     22  OE1 UNL     1      53.557 -44.735  46.847  0.00  0.00    +0.000 OA
ATOM     23  HE1 UNL     1      53.496 -45.458  46.191  0.00  0.00    +0.000 HD
ENDBRANCH  21  22
ENDBRANCH  19  21
ENDBRANCH  13  18
ENDBRANCH   6  11
ENDBRANCH   1   3
BRANCH   1  24
ATOM     24  C   UNL     1      46.962 -52.139  54.478  0.00  0.00    +0.000 C 
BRANCH  24  31
ATOM     25  O   UNL     1      51.156 -55.256  55.092  0.00  0.00    +0.000 OA
ATOM     26  N   UNL     1      48.832 -53.524  55.306  0.00  0.00    +0.000 N 
ATOM     27  N   UNL     1      47.833 -53.399  58.044  0.00  0.00    +0.000 N 
ATOM     28  N   UNL     1      49.488 -54.938  58.716  0.00  0.00    +0.000 NA
ATOM     29  N   UNL     1      51.145 -55.687  57.286  0.00  0.00    +0.000 N 
ATOM     30  N   UNL     1      51.117 -56.363  59.486  0.00  0.00    +0.000 N 
ATOM     31  C   UNL     1      47.649 -52.822  55.517  0.00  0.00    +0.000 C 
ATOM     32  C   UNL     1      47.244 -52.854  56.861  0.00  0.00    +0.000 C 
ATOM     33  C   UNL     1      49.420 -54.214  56.402  0.00  0.00    +0.000 A 
ATOM     34  C   UNL     1      48.942 -54.191  57.694  0.00  0.00    +0.000 A 
ATOM     35  C   UNL     1      50.631 -55.073  56.185  0.00  0.00    +0.000 A 
ATOM     36  C   UNL     1      50.547 -55.638  58.495  0.00  0.00    +0.000 A 
ATOM     37  H   UNL     1      47.287 -53.848  58.773  0.00  0.00    +0.000 HD
ATOM     38  H   UNL     1      51.928 -56.299  57.125  0.00  0.00    +0.000 HD
ATOM     39  H   UNL     1      50.748 -56.117  60.401  0.00  0.00    +0.000 HD
ATOM     40  H   UNL     1      52.126 -56.431  59.481  0.00  0.00    +0.000 HD
BRANCH  26  42
ATOM     41  O   UNL     1      49.873 -53.567  53.006  0.00  0.00    +0.000 OA
ATOM     42  C   UNL     1      49.354 -53.554  54.060  0.00  0.00    +0.000 C 
ENDBRANCH  26  42
ENDBRANCH  24  31
ENDBRANCH   1  24
TORSDOF 10
ENDMDL
MODEL 9
REMARK VINA RESULT:      -7.3      2.998      4.720
REMARK  Name = 135403648_CalciumFolinate.pdbqt.pdb
REMARK  10 active torsions:
REMARK  status: ('A' for Active; 'I' for Inactive)
REMARK    1  A    between atoms: N_1  and  C_3
REMARK    2  A    between atoms: N_1  and  C_24
REMARK    3  A    between atoms: C_6  and  C_11
REMARK    4  A    between atoms: CA_13  and  C_15
REMARK    5  A    between atoms: CA_13  and  CB_18
REMARK    6  A    between atoms: C_15  and  O_16
REMARK    7  A    between atoms: CG_19  and  CD_21
REMARK    8  A    between atoms: CD_21  and  OE1_22
REMARK    9  A    between atoms: C_24  and  C_32
REMARK   10  A    between atoms: N_27  and  C_37
REMARK                            x       y       z     vdW  Elec       q    Type
REMARK                         _______ _______ _______ _____ _____    ______ ____
ROOT
ATOM      1  N   UNL     1      44.739 -50.348  50.952  0.00  0.00    +0.000 N 
ATOM      2  H   UNL     1      45.041 -50.798  50.089  0.00  0.00    +0.000 HD
ENDROOT
BRANCH   1   3
ATOM      3  C   UNL     1      44.591 -51.270  52.010  0.00  0.00    +0.000 A 
ATOM      4  C   UNL     1      43.460 -52.092  52.043  0.00  0.00    +0.000 A 
ATOM      5  C   UNL     1      45.440 -51.270  53.122  0.00  0.00    +0.000 A 
ATOM      6  C   UNL     1      44.101 -52.966  54.201  0.00  0.00    +0.000 A 
ATOM      7  C   UNL     1      43.223 -52.945  53.121  0.00  0.00    +0.000 A 
ATOM      8  C   UNL     1      45.211 -52.120  54.202  0.00  0.00    +0.000 A 
BRANCH   6  11
ATOM      9  O   UNL     1      42.797 -54.389  55.515  0.00  0.00    +0.000 OA
ATOM     10  N   UNL     1      44.975 -54.022  56.212  0.00  0.00    +0.000 N 
ATOM     11  C   ACE A   0      43.893 -53.860  55.368  0.00  0.00    +0.000 C 
ATOM     12  H   UNL     1      45.845 -53.536  56.008  0.00  0.00    +0.000 HD
ATOM     13  CA  UNL     1      45.031 -54.796  57.358  0.00  0.00    +0.000 C 
BRANCH  13  15
ATOM     14  OXT UNL     1      47.308 -55.421  57.726  0.00  0.00    +0.000 OA
ATOM     15  C   UNL     1      46.326 -54.785  58.080  0.00  0.00    +0.000 C 
BRANCH  15  16
ATOM     16  O   UNL     1      46.341 -54.009  59.174  0.00  0.00    +0.000 OA
ATOM     17  H   UNL     1      45.467 -54.151  59.595  0.00  0.00    +0.000 HD
ENDBRANCH  15  16
ENDBRANCH  13  15
BRANCH  13  18
ATOM     18  CB  UNL     1      43.921 -55.553  57.816  0.00  0.00    +0.000 C 
ATOM     19  CG  UNL     1      42.719 -56.361  58.317  0.00  0.00    +0.000 C 
BRANCH  19  21
ATOM     20  OE2 UNL     1      41.627 -58.287  59.068  0.00  0.00    +0.000 OA
ATOM     21  CD  UNL     1      41.589 -57.100  58.793  0.00  0.00    +0.000 C 
BRANCH  21  22
ATOM     22  OE1 UNL     1      40.462 -56.374  58.895  0.00  0.00    +0.000 OA
ATOM     23  HE1 UNL     1      40.557 -55.928  59.761  0.00  0.00    +0.000 HD
ENDBRANCH  21  22
ENDBRANCH  19  21
ENDBRANCH  13  18
ENDBRANCH   6  11
ENDBRANCH   1   3
BRANCH   1  24
ATOM     24  C   UNL     1      45.336 -49.048  51.236  0.00  0.00    +0.000 C 
BRANCH  24  31
ATOM     25  O   UNL     1      47.101 -44.746  48.775  0.00  0.00    +0.000 OA
ATOM     26  N   UNL     1      46.177 -46.818  50.593  0.00  0.00    +0.000 N 
ATOM     27  N   UNL     1      46.652 -46.093  53.379  0.00  0.00    +0.000 N 
ATOM     28  N   UNL     1      47.689 -44.094  52.679  0.00  0.00    +0.000 NA
ATOM     29  N   UNL     1      47.748 -43.432  50.464  0.00  0.00    +0.000 N 
ATOM     30  N   UNL     1      48.634 -42.081  52.104  0.00  0.00    +0.000 N 
ATOM     31  C   UNL     1      45.889 -47.780  51.555  0.00  0.00    +0.000 C 
ATOM     32  C   UNL     1      46.185 -47.338  52.855  0.00  0.00    +0.000 C 
ATOM     33  C   UNL     1      46.773 -45.595  51.008  0.00  0.00    +0.000 A 
ATOM     34  C   UNL     1      47.033 -45.251  52.317  0.00  0.00    +0.000 A 
ATOM     35  C   UNL     1      47.202 -44.584  49.987  0.00  0.00    +0.000 A 
ATOM     36  C   UNL     1      48.011 -43.236  51.773  0.00  0.00    +0.000 A 
ATOM     37  H   UNL     1      47.320 -46.034  54.141  0.00  0.00    +0.000 HD
ATOM     38  H   UNL     1      48.077 -42.778  49.771  0.00  0.00    +0.000 HD
ATOM     39  H   UNL     1      48.610 -41.906  53.105  0.00  0.00    +0.000 HD
ATOM     40  H   UNL     1      48.396 -41.261  51.561  0.00  0.00    +0.000 HD
BRANCH  26  42
ATOM     41  O   UNL     1      45.623 -47.311  48.179  0.00  0.00    +0.000 OA
ATOM     42  C   UNL     1      45.916 -47.098  49.298  0.00  0.00    +0.000 C 
ENDBRANCH  26  42
ENDBRANCH  24  31
ENDBRANCH   1  24
TORSDOF 10
ENDMDL
