MODEL 1
REMARK VINA RESULT:      -8.3      0.000      0.000
REMARK  Name = 14132199_RiccardinD.pdbqt.pdb
REMARK  3 active torsions:
REMARK  status: ('A' for Active; 'I' for Inactive)
REMARK    1  A    between atoms: C_11  and  O_30
REMARK    2  A    between atoms: C_16  and  O_32
REMARK    3  A    between atoms: C_28  and  O_34
REMARK                            x       y       z     vdW  Elec       q    Type
REMARK                         _______ _______ _______ _____ _____    ______ ____
ROOT
ATOM      1  O   UNL     1      47.684 -37.811  43.860  0.00  0.00    +0.000 OA
ATOM      2  C   UNL     1      47.179 -43.593  47.690  0.00  0.00    +0.000 C 
ATOM      3  C   UNL     1      47.274 -44.394  48.877  0.00  0.00    +0.000 A 
ATOM      4  C   UNL     1      47.780 -43.865  50.093  0.00  0.00    +0.000 A 
ATOM      5  C   UNL     1      47.117 -42.597  46.521  0.00  0.00    +0.000 C 
ATOM      6  C   UNL     1      49.422 -38.538  49.319  0.00  0.00    +0.000 C 
ATOM      7  C   UNL     1      48.348 -42.500  50.147  0.00  0.00    +0.000 A 
ATOM      8  C   UNL     1      49.258 -39.851  49.849  0.00  0.00    +0.000 A 
ATOM      9  C   UNL     1      49.388 -37.372  48.328  0.00  0.00    +0.000 C 
ATOM     10  C   UNL     1      47.134 -41.523  45.582  0.00  0.00    +0.000 A 
ATOM     11  C   UNL     1      47.773 -41.447  50.874  0.00  0.00    +0.000 A 
ATOM     12  C   UNL     1      49.136 -36.717  47.092  0.00  0.00    +0.000 A 
ATOM     13  C   UNL     1      49.470 -42.202  49.361  0.00  0.00    +0.000 A 
ATOM     14  C   UNL     1      48.204 -40.128  50.714  0.00  0.00    +0.000 A 
ATOM     15  C   UNL     1      49.917 -40.894  49.203  0.00  0.00    +0.000 A 
ATOM     16  C   UNL     1      47.729 -44.703  51.222  0.00  0.00    +0.000 A 
ATOM     17  C   UNL     1      46.800 -45.706  48.806  0.00  0.00    +0.000 A 
ATOM     18  C   UNL     1      47.272 -46.018  51.141  0.00  0.00    +0.000 A 
ATOM     19  C   UNL     1      46.816 -46.523  49.929  0.00  0.00    +0.000 A 
ATOM     20  C   UNL     1      48.556 -37.511  46.109  0.00  0.00    +0.000 A 
ATOM     21  C   UNL     1      48.289 -41.275  44.839  0.00  0.00    +0.000 A 
ATOM     22  C   UNL     1      46.082 -40.606  45.572  0.00  0.00    +0.000 A 
ATOM     23  C   UNL     1      48.259 -37.021  44.842  0.00  0.00    +0.000 A 
ATOM     24  C   UNL     1      49.435 -35.390  46.820  0.00  0.00    +0.000 A 
ATOM     25  C   UNL     1      47.419 -39.113  44.245  0.00  0.00    +0.000 A 
ATOM     26  C   UNL     1      48.431 -40.070  44.155  0.00  0.00    +0.000 A 
ATOM     27  C   UNL     1      46.216 -39.398  44.892  0.00  0.00    +0.000 A 
ATOM     28  C   UNL     1      48.559 -35.691  44.570  0.00  0.00    +0.000 A 
ATOM     29  C   UNL     1      49.141 -34.879  45.549  0.00  0.00    +0.000 A 
ENDROOT
BRANCH  11  30
ATOM     30  O   UNL     1      46.752 -41.713  51.748  0.00  0.00    +0.000 OA
ATOM     31  H   UNL     1      46.042 -42.168  51.255  0.00  0.00    +0.000 HD
ENDBRANCH  11  30
BRANCH  16  32
ATOM     32  O   UNL     1      48.104 -44.274  52.468  0.00  0.00    +0.000 OA
ATOM     33  H   UNL     1      48.660 -44.978  52.852  0.00  0.00    +0.000 HD
ENDBRANCH  16  32
BRANCH  28  34
ATOM     34  O   UNL     1      48.296 -35.139  43.348  0.00  0.00    +0.000 OA
ATOM     35  H   UNL     1      49.127 -34.749  43.021  0.00  0.00    +0.000 HD
ENDBRANCH  28  34
TORSDOF 3
ENDMDL
MODEL 2
REMARK VINA RESULT:      -8.3      1.463      2.346
REMARK  Name = 14132199_RiccardinD.pdbqt.pdb
REMARK  3 active torsions:
REMARK  status: ('A' for Active; 'I' for Inactive)
REMARK    1  A    between atoms: C_11  and  O_30
REMARK    2  A    between atoms: C_16  and  O_32
REMARK    3  A    between atoms: C_28  and  O_34
REMARK                            x       y       z     vdW  Elec       q    Type
REMARK                         _______ _______ _______ _____ _____    ______ ____
ROOT
ATOM      1  O   UNL     1      48.903 -36.855  42.547  0.00  0.00    +0.000 OA
ATOM      2  C   UNL     1      48.138 -41.746  47.431  0.00  0.00    +0.000 C 
ATOM      3  C   UNL     1      48.074 -42.271  48.765  0.00  0.00    +0.000 A 
ATOM      4  C   UNL     1      48.309 -41.450  49.898  0.00  0.00    +0.000 A 
ATOM      5  C   UNL     1      48.217 -41.024  46.076  0.00  0.00    +0.000 C 
ATOM      6  C   UNL     1      49.664 -36.246  48.239  0.00  0.00    +0.000 C 
ATOM      7  C   UNL     1      48.754 -40.047  49.740  0.00  0.00    +0.000 A 
ATOM      8  C   UNL     1      49.504 -37.432  49.014  0.00  0.00    +0.000 A 
ATOM      9  C   UNL     1      49.725 -35.319  47.023  0.00  0.00    +0.000 C 
ATOM     10  C   UNL     1      48.325 -40.172  44.937  0.00  0.00    +0.000 A 
ATOM     11  C   UNL     1      47.980 -38.939  50.112  0.00  0.00    +0.000 A 
ATOM     12  C   UNL     1      49.655 -34.964  45.648  0.00  0.00    +0.000 A 
ATOM     13  C   UNL     1      49.976 -39.794  49.100  0.00  0.00    +0.000 A 
ATOM     14  C   UNL     1      48.334 -37.641  49.736  0.00  0.00    +0.000 A 
ATOM     15  C   UNL     1      50.346 -38.504  48.731  0.00  0.00    +0.000 A 
ATOM     16  C   UNL     1      48.115 -42.038  51.162  0.00  0.00    +0.000 A 
ATOM     17  C   UNL     1      47.720 -43.614  48.910  0.00  0.00    +0.000 A 
ATOM     18  C   UNL     1      47.780 -43.385  51.301  0.00  0.00    +0.000 A 
ATOM     19  C   UNL     1      47.591 -44.175  50.174  0.00  0.00    +0.000 A 
ATOM     20  C   UNL     1      49.325 -36.003  44.785  0.00  0.00    +0.000 A 
ATOM     21  C   UNL     1      49.575 -39.954  44.355  0.00  0.00    +0.000 A 
ATOM     22  C   UNL     1      47.227 -39.400  44.554  0.00  0.00    +0.000 A 
ATOM     23  C   UNL     1      49.229 -35.820  43.410  0.00  0.00    +0.000 A 
ATOM     24  C   UNL     1      49.899 -33.697  45.141  0.00  0.00    +0.000 A 
ATOM     25  C   UNL     1      48.670 -38.071  43.163  0.00  0.00    +0.000 A 
ATOM     26  C   UNL     1      49.749 -38.906  43.454  0.00  0.00    +0.000 A 
ATOM     27  C   UNL     1      47.394 -38.350  43.653  0.00  0.00    +0.000 A 
ATOM     28  C   UNL     1      49.473 -34.550  42.902  0.00  0.00    +0.000 A 
ATOM     29  C   UNL     1      49.805 -33.493  43.758  0.00  0.00    +0.000 A 
ENDROOT
BRANCH  11  30
ATOM     30  O   UNL     1      46.839 -39.132  50.846  0.00  0.00    +0.000 OA
ATOM     31  H   UNL     1      46.404 -38.266  50.965  0.00  0.00    +0.000 HD
ENDBRANCH  11  30
BRANCH  16  32
ATOM     32  O   UNL     1      48.223 -41.323  52.326  0.00  0.00    +0.000 OA
ATOM     33  H   UNL     1      49.153 -41.397  52.615  0.00  0.00    +0.000 HD
ENDBRANCH  16  32
BRANCH  28  34
ATOM     34  O   UNL     1      49.398 -34.293  41.562  0.00  0.00    +0.000 OA
ATOM     35  H   UNL     1      49.066 -35.101  41.131  0.00  0.00    +0.000 HD
ENDBRANCH  28  34
TORSDOF 3
ENDMDL
MODEL 3
REMARK VINA RESULT:      -7.7      6.019      9.285
REMARK  Name = 14132199_RiccardinD.pdbqt.pdb
REMARK  3 active torsions:
REMARK  status: ('A' for Active; 'I' for Inactive)
REMARK    1  A    between atoms: C_11  and  O_30
REMARK    2  A    between atoms: C_16  and  O_32
REMARK    3  A    between atoms: C_28  and  O_34
REMARK                            x       y       z     vdW  Elec       q    Type
REMARK                         _______ _______ _______ _____ _____    ______ ____
ROOT
ATOM      1  O   UNL     1      40.293 -46.628  50.617  0.00  0.00    +0.000 OA
ATOM      2  C   UNL     1      47.157 -47.618  51.139  0.00  0.00    +0.000 C 
ATOM      3  C   UNL     1      48.531 -47.527  50.735  0.00  0.00    +0.000 A 
ATOM      4  C   UNL     1      48.906 -46.935  49.501  0.00  0.00    +0.000 A 
ATOM      5  C   UNL     1      45.648 -47.611  51.434  0.00  0.00    +0.000 C 
ATOM      6  C   UNL     1      44.306 -45.378  46.657  0.00  0.00    +0.000 C 
ATOM      7  C   UNL     1      47.880 -46.502  48.526  0.00  0.00    +0.000 A 
ATOM      8  C   UNL     1      45.642 -45.745  46.994  0.00  0.00    +0.000 A 
ATOM      9  C   UNL     1      42.790 -45.202  46.770  0.00  0.00    +0.000 C 
ATOM     10  C   UNL     1      44.229 -47.494  51.517  0.00  0.00    +0.000 A 
ATOM     11  C   UNL     1      47.661 -45.163  48.170  0.00  0.00    +0.000 A 
ATOM     12  C   UNL     1      41.507 -45.299  47.374  0.00  0.00    +0.000 A 
ATOM     13  C   UNL     1      47.011 -47.461  47.988  0.00  0.00    +0.000 A 
ATOM     14  C   UNL     1      46.542 -44.777  47.430  0.00  0.00    +0.000 A 
ATOM     15  C   UNL     1      45.898 -47.091  47.238  0.00  0.00    +0.000 A 
ATOM     16  C   UNL     1      50.284 -46.799  49.252  0.00  0.00    +0.000 A 
ATOM     17  C   UNL     1      49.495 -47.999  51.629  0.00  0.00    +0.000 A 
ATOM     18  C   UNL     1      51.242 -47.289  50.139  0.00  0.00    +0.000 A 
ATOM     19  C   UNL     1      50.847 -47.898  51.324  0.00  0.00    +0.000 A 
ATOM     20  C   UNL     1      41.490 -45.874  48.640  0.00  0.00    +0.000 A 
ATOM     21  C   UNL     1      43.421 -48.481  50.951  0.00  0.00    +0.000 A 
ATOM     22  C   UNL     1      43.667 -46.299  51.968  0.00  0.00    +0.000 A 
ATOM     23  C   UNL     1      40.313 -46.052  49.357  0.00  0.00    +0.000 A 
ATOM     24  C   UNL     1      40.320 -44.881  46.792  0.00  0.00    +0.000 A 
ATOM     25  C   UNL     1      41.534 -46.997  51.104  0.00  0.00    +0.000 A 
ATOM     26  C   UNL     1      42.064 -48.240  50.752  0.00  0.00    +0.000 A 
ATOM     27  C   UNL     1      42.310 -46.050  51.773  0.00  0.00    +0.000 A 
ATOM     28  C   UNL     1      39.123 -45.633  48.772  0.00  0.00    +0.000 A 
ATOM     29  C   UNL     1      39.123 -45.050  47.500  0.00  0.00    +0.000 A 
ENDROOT
BRANCH  11  30
ATOM     30  O   UNL     1      48.556 -44.206  48.573  0.00  0.00    +0.000 OA
ATOM     31  H   UNL     1      48.056 -43.395  48.788  0.00  0.00    +0.000 HD
ENDBRANCH  11  30
BRANCH  16  32
ATOM     32  O   UNL     1      50.767 -46.164  48.139  0.00  0.00    +0.000 OA
ATOM     33  H   UNL     1      50.968 -45.246  48.404  0.00  0.00    +0.000 HD
ENDBRANCH  16  32
BRANCH  28  34
ATOM     34  O   UNL     1      37.927 -45.774  49.416  0.00  0.00    +0.000 OA
ATOM     35  H   UNL     1      37.673 -46.712  49.353  0.00  0.00    +0.000 HD
ENDBRANCH  28  34
TORSDOF 3
ENDMDL
MODEL 4
REMARK VINA RESULT:      -7.6     15.401     17.907
REMARK  Name = 14132199_RiccardinD.pdbqt.pdb
REMARK  3 active torsions:
REMARK  status: ('A' for Active; 'I' for Inactive)
REMARK    1  A    between atoms: C_11  and  O_30
REMARK    2  A    between atoms: C_16  and  O_32
REMARK    3  A    between atoms: C_28  and  O_34
REMARK                            x       y       z     vdW  Elec       q    Type
REMARK                         _______ _______ _______ _____ _____    ______ ____
ROOT
ATOM      1  O   UNL     1      52.836 -55.104  53.376  0.00  0.00    +0.000 OA
ATOM      2  C   UNL     1      46.101 -54.790  55.081  0.00  0.00    +0.000 C 
ATOM      3  C   UNL     1      44.961 -54.883  55.947  0.00  0.00    +0.000 A 
ATOM      4  C   UNL     1      45.084 -55.303  57.296  0.00  0.00    +0.000 A 
ATOM      5  C   UNL     1      47.422 -54.718  54.298  0.00  0.00    +0.000 C 
ATOM      6  C   UNL     1      50.436 -56.649  58.397  0.00  0.00    +0.000 C 
ATOM      7  C   UNL     1      46.379 -55.784  57.826  0.00  0.00    +0.000 A 
ATOM      8  C   UNL     1      49.016 -56.543  58.461  0.00  0.00    +0.000 A 
ATOM      9  C   UNL     1      51.860 -56.586  57.839  0.00  0.00    +0.000 C 
ATOM     10  C   UNL     1      48.744 -54.709  53.762  0.00  0.00    +0.000 A 
ATOM     11  C   UNL     1      47.110 -55.115  58.819  0.00  0.00    +0.000 A 
ATOM     12  C   UNL     1      52.873 -56.348  56.870  0.00  0.00    +0.000 A 
ATOM     13  C   UNL     1      46.967 -56.918  57.248  0.00  0.00    +0.000 A 
ATOM     14  C   UNL     1      48.425 -55.472  59.124  0.00  0.00    +0.000 A 
ATOM     15  C   UNL     1      48.273 -57.292  57.552  0.00  0.00    +0.000 A 
ATOM     16  C   UNL     1      43.921 -55.256  58.087  0.00  0.00    +0.000 A 
ATOM     17  C   UNL     1      43.725 -54.493  55.424  0.00  0.00    +0.000 A 
ATOM     18  C   UNL     1      42.686 -54.884  57.555  0.00  0.00    +0.000 A 
ATOM     19  C   UNL     1      42.587 -54.512  56.220  0.00  0.00    +0.000 A 
ATOM     20  C   UNL     1      52.420 -55.859  55.649  0.00  0.00    +0.000 A 
ATOM     21  C   UNL     1      49.272 -55.877  53.210  0.00  0.00    +0.000 A 
ATOM     22  C   UNL     1      49.567 -53.604  53.987  0.00  0.00    +0.000 A 
ATOM     23  C   UNL     1      53.285 -55.588  54.595  0.00  0.00    +0.000 A 
ATOM     24  C   UNL     1      54.227 -56.576  57.062  0.00  0.00    +0.000 A 
ATOM     25  C   UNL     1      51.470 -54.904  53.300  0.00  0.00    +0.000 A 
ATOM     26  C   UNL     1      50.640 -55.975  52.966  0.00  0.00    +0.000 A 
ATOM     27  C   UNL     1      50.936 -53.694  53.745  0.00  0.00    +0.000 A 
ATOM     28  C   UNL     1      54.642 -55.817  54.788  0.00  0.00    +0.000 A 
ATOM     29  C   UNL     1      55.114 -56.307  56.012  0.00  0.00    +0.000 A 
ENDROOT
BRANCH  11  30
ATOM     30  O   UNL     1      46.527 -54.076  59.496  0.00  0.00    +0.000 OA
ATOM     31  H   UNL     1      46.214 -53.424  58.840  0.00  0.00    +0.000 HD
ENDBRANCH  11  30
BRANCH  16  32
ATOM     32  O   UNL     1      43.933 -55.550  59.425  0.00  0.00    +0.000 OA
ATOM     33  H   UNL     1      43.782 -56.511  59.503  0.00  0.00    +0.000 HD
ENDBRANCH  16  32
BRANCH  28  34
ATOM     34  O   UNL     1      55.552 -55.574  53.799  0.00  0.00    +0.000 OA
ATOM     35  H   UNL     1      55.279 -56.092  53.020  0.00  0.00    +0.000 HD
ENDBRANCH  28  34
TORSDOF 3
ENDMDL
MODEL 5
REMARK VINA RESULT:      -7.6      8.269     11.626
REMARK  Name = 14132199_RiccardinD.pdbqt.pdb
REMARK  3 active torsions:
REMARK  status: ('A' for Active; 'I' for Inactive)
REMARK    1  A    between atoms: C_11  and  O_30
REMARK    2  A    between atoms: C_16  and  O_32
REMARK    3  A    between atoms: C_28  and  O_34
REMARK                            x       y       z     vdW  Elec       q    Type
REMARK                         _______ _______ _______ _____ _____    ______ ____
ROOT
ATOM      1  O   UNL     1      40.196 -51.730  49.589  0.00  0.00    +0.000 OA
ATOM      2  C   UNL     1      46.788 -49.855  50.772  0.00  0.00    +0.000 C 
ATOM      3  C   UNL     1      47.853 -48.976  51.159  0.00  0.00    +0.000 A 
ATOM      4  C   UNL     1      47.607 -47.628  51.531  0.00  0.00    +0.000 A 
ATOM      5  C   UNL     1      45.536 -50.671  50.411  0.00  0.00    +0.000 C 
ATOM      6  C   UNL     1      42.127 -46.470  50.988  0.00  0.00    +0.000 C 
ATOM      7  C   UNL     1      46.253 -47.044  51.410  0.00  0.00    +0.000 A 
ATOM      8  C   UNL     1      43.541 -46.344  51.112  0.00  0.00    +0.000 A 
ATOM      9  C   UNL     1      40.754 -47.101  50.741  0.00  0.00    +0.000 C 
ATOM     10  C   UNL     1      44.261 -51.246  50.130  0.00  0.00    +0.000 A 
ATOM     11  C   UNL     1      45.482 -46.634  52.508  0.00  0.00    +0.000 A 
ATOM     12  C   UNL     1      39.832 -48.133  50.421  0.00  0.00    +0.000 A 
ATOM     13  C   UNL     1      45.656 -46.975  50.143  0.00  0.00    +0.000 A 
ATOM     14  C   UNL     1      44.131 -46.307  52.371  0.00  0.00    +0.000 A 
ATOM     15  C   UNL     1      44.314 -46.639  49.992  0.00  0.00    +0.000 A 
ATOM     16  C   UNL     1      48.707 -46.885  51.996  0.00  0.00    +0.000 A 
ATOM     17  C   UNL     1      49.143 -49.511  51.207  0.00  0.00    +0.000 A 
ATOM     18  C   UNL     1      49.996 -47.418  52.023  0.00  0.00    +0.000 A 
ATOM     19  C   UNL     1      50.215 -48.730  51.619  0.00  0.00    +0.000 A 
ATOM     20  C   UNL     1      40.399 -49.379  50.176  0.00  0.00    +0.000 A 
ATOM     21  C   UNL     1      43.720 -51.132  48.849  0.00  0.00    +0.000 A 
ATOM     22  C   UNL     1      43.479 -51.724  51.183  0.00  0.00    +0.000 A 
ATOM     23  C   UNL     1      39.633 -50.488  49.837  0.00  0.00    +0.000 A 
ATOM     24  C   UNL     1      38.457 -47.973  50.332  0.00  0.00    +0.000 A 
ATOM     25  C   UNL     1      41.572 -51.777  49.718  0.00  0.00    +0.000 A 
ATOM     26  C   UNL     1      42.372 -51.408  48.635  0.00  0.00    +0.000 A 
ATOM     27  C   UNL     1      42.129 -52.003  50.977  0.00  0.00    +0.000 A 
ATOM     28  C   UNL     1      38.255 -50.326  49.748  0.00  0.00    +0.000 A 
ATOM     29  C   UNL     1      37.668 -49.080  49.993  0.00  0.00    +0.000 A 
ENDROOT
BRANCH  11  30
ATOM     30  O   UNL     1      46.061 -46.570  53.748  0.00  0.00    +0.000 OA
ATOM     31  H   UNL     1      47.003 -46.811  53.657  0.00  0.00    +0.000 HD
ENDBRANCH  11  30
BRANCH  16  32
ATOM     32  O   UNL     1      48.578 -45.605  52.467  0.00  0.00    +0.000 OA
ATOM     33  H   UNL     1      48.398 -45.674  53.424  0.00  0.00    +0.000 HD
ENDBRANCH  16  32
BRANCH  28  34
ATOM     34  O   UNL     1      37.436 -51.370  49.421  0.00  0.00    +0.000 OA
ATOM     35  H   UNL     1      36.568 -51.195  49.826  0.00  0.00    +0.000 HD
ENDBRANCH  28  34
TORSDOF 3
ENDMDL
MODEL 6
REMARK VINA RESULT:      -7.5      6.040      8.864
REMARK  Name = 14132199_RiccardinD.pdbqt.pdb
REMARK  3 active torsions:
REMARK  status: ('A' for Active; 'I' for Inactive)
REMARK    1  A    between atoms: C_11  and  O_30
REMARK    2  A    between atoms: C_16  and  O_32
REMARK    3  A    between atoms: C_28  and  O_34
REMARK                            x       y       z     vdW  Elec       q    Type
REMARK                         _______ _______ _______ _____ _____    ______ ____
ROOT
ATOM      1  O   UNL     1      50.081 -46.115  48.003  0.00  0.00    +0.000 OA
ATOM      2  C   UNL     1      43.175 -45.584  47.372  0.00  0.00    +0.000 C 
ATOM      3  C   UNL     1      41.807 -45.686  47.792  0.00  0.00    +0.000 A 
ATOM      4  C   UNL     1      41.456 -46.220  49.059  0.00  0.00    +0.000 A 
ATOM      5  C   UNL     1      44.685 -45.518  47.088  0.00  0.00    +0.000 C 
ATOM      6  C   UNL     1      46.088 -47.931  51.759  0.00  0.00    +0.000 C 
ATOM      7  C   UNL     1      42.485 -46.810  49.945  0.00  0.00    +0.000 A 
ATOM      8  C   UNL     1      44.733 -47.756  51.353  0.00  0.00    +0.000 A 
ATOM      9  C   UNL     1      47.618 -47.899  51.720  0.00  0.00    +0.000 C 
ATOM     10  C   UNL     1      46.110 -45.536  47.029  0.00  0.00    +0.000 A 
ATOM     11  C   UNL     1      42.850 -46.264  51.184  0.00  0.00    +0.000 A 
ATOM     12  C   UNL     1      48.903 -47.637  51.174  0.00  0.00    +0.000 A 
ATOM     13  C   UNL     1      43.208 -47.924  49.494  0.00  0.00    +0.000 A 
ATOM     14  C   UNL     1      43.976 -46.713  51.877  0.00  0.00    +0.000 A 
ATOM     15  C   UNL     1      44.325 -48.389  50.181  0.00  0.00    +0.000 A 
ATOM     16  C   UNL     1      40.096 -46.175  49.414  0.00  0.00    +0.000 A 
ATOM     17  C   UNL     1      40.831 -45.191  46.925  0.00  0.00    +0.000 A 
ATOM     18  C   UNL     1      39.123 -45.697  48.537  0.00  0.00    +0.000 A 
ATOM     19  C   UNL     1      39.490 -45.213  47.287  0.00  0.00    +0.000 A 
ATOM     20  C   UNL     1      48.903 -47.028  49.924  0.00  0.00    +0.000 A 
ATOM     21  C   UNL     1      46.768 -46.682  46.580  0.00  0.00    +0.000 A 
ATOM     22  C   UNL     1      46.832 -44.498  47.620  0.00  0.00    +0.000 A 
ATOM     23  C   UNL     1      50.079 -46.719  49.250  0.00  0.00    +0.000 A 
ATOM     24  C   UNL     1      50.107 -47.951  51.787  0.00  0.00    +0.000 A 
ATOM     25  C   UNL     1      48.826 -45.836  47.493  0.00  0.00    +0.000 A 
ATOM     26  C   UNL     1      48.135 -46.832  46.800  0.00  0.00    +0.000 A 
ATOM     27  C   UNL     1      48.200 -44.640  47.845  0.00  0.00    +0.000 A 
ATOM     28  C   UNL     1      51.285 -47.034  49.866  0.00  0.00    +0.000 A 
ATOM     29  C   UNL     1      51.303 -47.645  51.124  0.00  0.00    +0.000 A 
ENDROOT
BRANCH  11  30
ATOM     30  O   UNL     1      42.096 -45.253  51.721  0.00  0.00    +0.000 OA
ATOM     31  H   UNL     1      41.811 -45.528  52.613  0.00  0.00    +0.000 HD
ENDBRANCH  11  30
BRANCH  16  32
ATOM     32  O   UNL     1      39.647 -46.578  50.645  0.00  0.00    +0.000 OA
ATOM     33  H   UNL     1      40.308 -47.207  50.993  0.00  0.00    +0.000 HD
ENDBRANCH  16  32
BRANCH  28  34
ATOM     34  O   UNL     1      52.482 -46.760  49.266  0.00  0.00    +0.000 OA
ATOM     35  H   UNL     1      52.905 -46.046  49.777  0.00  0.00    +0.000 HD
ENDBRANCH  28  34
TORSDOF 3
ENDMDL
MODEL 7
REMARK VINA RESULT:      -7.4     12.173     16.200
REMARK  Name = 14132199_RiccardinD.pdbqt.pdb
REMARK  3 active torsions:
REMARK  status: ('A' for Active; 'I' for Inactive)
REMARK    1  A    between atoms: C_11  and  O_30
REMARK    2  A    between atoms: C_16  and  O_32
REMARK    3  A    between atoms: C_28  and  O_34
REMARK                            x       y       z     vdW  Elec       q    Type
REMARK                         _______ _______ _______ _____ _____    ______ ____
ROOT
ATOM      1  O   UNL     1      48.337 -52.230  52.048  0.00  0.00    +0.000 OA
ATOM      2  C   UNL     1      45.223 -54.973  57.629  0.00  0.00    +0.000 C 
ATOM      3  C   UNL     1      44.158 -55.589  58.368  0.00  0.00    +0.000 A 
ATOM      4  C   UNL     1      42.895 -55.847  57.776  0.00  0.00    +0.000 A 
ATOM      5  C   UNL     1      46.262 -54.334  56.693  0.00  0.00    +0.000 C 
ATOM      6  C   UNL     1      42.831 -53.915  52.491  0.00  0.00    +0.000 C 
ATOM      7  C   UNL     1      42.587 -55.374  56.408  0.00  0.00    +0.000 A 
ATOM      8  C   UNL     1      42.431 -54.385  53.776  0.00  0.00    +0.000 A 
ATOM      9  C   UNL     1      43.715 -53.349  51.377  0.00  0.00    +0.000 C 
ATOM     10  C   UNL     1      47.072 -53.759  55.669  0.00  0.00    +0.000 A 
ATOM     11  C   UNL     1      42.362 -56.232  55.321  0.00  0.00    +0.000 A 
ATOM     12  C   UNL     1      44.903 -52.838  50.786  0.00  0.00    +0.000 A 
ATOM     13  C   UNL     1      42.610 -53.997  56.148  0.00  0.00    +0.000 A 
ATOM     14  C   UNL     1      42.305 -55.751  54.011  0.00  0.00    +0.000 A 
ATOM     15  C   UNL     1      42.542 -53.504  54.848  0.00  0.00    +0.000 A 
ATOM     16  C   UNL     1      41.959 -56.552  58.555  0.00  0.00    +0.000 A 
ATOM     17  C   UNL     1      44.429 -55.974  59.683  0.00  0.00    +0.000 A 
ATOM     18  C   UNL     1      42.227 -56.917  59.874  0.00  0.00    +0.000 A 
ATOM     19  C   UNL     1      43.460 -56.619  60.441  0.00  0.00    +0.000 A 
ATOM     20  C   UNL     1      46.006 -52.780  51.631  0.00  0.00    +0.000 A 
ATOM     21  C   UNL     1      47.038 -52.380  55.456  0.00  0.00    +0.000 A 
ATOM     22  C   UNL     1      47.717 -54.595  54.757  0.00  0.00    +0.000 A 
ATOM     23  C   UNL     1      47.237 -52.293  51.207  0.00  0.00    +0.000 A 
ATOM     24  C   UNL     1      45.015 -52.403  49.474  0.00  0.00    +0.000 A 
ATOM     25  C   UNL     1      48.114 -52.701  53.329  0.00  0.00    +0.000 A 
ATOM     26  C   UNL     1      47.571 -51.843  54.287  0.00  0.00    +0.000 A 
ATOM     27  C   UNL     1      48.253 -54.066  53.584  0.00  0.00    +0.000 A 
ATOM     28  C   UNL     1      47.349 -51.856  49.892  0.00  0.00    +0.000 A 
ATOM     29  C   UNL     1      46.248 -51.910  49.029  0.00  0.00    +0.000 A 
ENDROOT
BRANCH  11  30
ATOM     30  O   UNL     1      42.212 -57.575  55.545  0.00  0.00    +0.000 OA
ATOM     31  H   UNL     1      42.966 -57.879  56.086  0.00  0.00    +0.000 HD
ENDBRANCH  11  30
BRANCH  16  32
ATOM     32  O   UNL     1      40.740 -56.938  58.062  0.00  0.00    +0.000 OA
ATOM     33  H   UNL     1      40.875 -57.163  57.122  0.00  0.00    +0.000 HD
ENDBRANCH  16  32
BRANCH  28  34
ATOM     34  O   UNL     1      48.526 -51.365  49.404  0.00  0.00    +0.000 OA
ATOM     35  H   UNL     1      49.246 -51.766  49.924  0.00  0.00    +0.000 HD
ENDBRANCH  28  34
TORSDOF 3
ENDMDL
MODEL 8
REMARK VINA RESULT:      -7.4     10.547     16.646
REMARK  Name = 14132199_RiccardinD.pdbqt.pdb
REMARK  3 active torsions:
REMARK  status: ('A' for Active; 'I' for Inactive)
REMARK    1  A    between atoms: C_11  and  O_30
REMARK    2  A    between atoms: C_16  and  O_32
REMARK    3  A    between atoms: C_28  and  O_34
REMARK                            x       y       z     vdW  Elec       q    Type
REMARK                         _______ _______ _______ _____ _____    ______ ____
ROOT
ATOM      1  O   UNL     1      43.170 -56.314  57.631  0.00  0.00    +0.000 OA
ATOM      2  C   UNL     1      43.632 -52.261  51.999  0.00  0.00    +0.000 C 
ATOM      3  C   UNL     1      44.267 -51.366  51.074  0.00  0.00    +0.000 A 
ATOM      4  C   UNL     1      45.587 -50.891  51.286  0.00  0.00    +0.000 A 
ATOM      5  C   UNL     1      43.110 -53.234  53.069  0.00  0.00    +0.000 C 
ATOM      6  C   UNL     1      47.559 -52.855  56.177  0.00  0.00    +0.000 C 
ATOM      7  C   UNL     1      46.313 -51.202  52.538  0.00  0.00    +0.000 A 
ATOM      8  C   UNL     1      47.369 -52.079  54.997  0.00  0.00    +0.000 A 
ATOM      9  C   UNL     1      47.276 -53.845  57.310  0.00  0.00    +0.000 C 
ATOM     10  C   UNL     1      42.825 -54.117  54.152  0.00  0.00    +0.000 A 
ATOM     11  C   UNL     1      47.463 -52.003  52.591  0.00  0.00    +0.000 A 
ATOM     12  C   UNL     1      46.526 -54.794  58.056  0.00  0.00    +0.000 A 
ATOM     13  C   UNL     1      45.782 -50.756  53.756  0.00  0.00    +0.000 A 
ATOM     14  C   UNL     1      47.980 -52.459  53.806  0.00  0.00    +0.000 A 
ATOM     15  C   UNL     1      46.295 -51.194  54.974  0.00  0.00    +0.000 A 
ATOM     16  C   UNL     1      46.153 -50.106  50.265  0.00  0.00    +0.000 A 
ATOM     17  C   UNL     1      43.553 -51.019  49.925  0.00  0.00    +0.000 A 
ATOM     18  C   UNL     1      45.430 -49.746  49.128  0.00  0.00    +0.000 A 
ATOM     19  C   UNL     1      44.125 -50.195  48.963  0.00  0.00    +0.000 A 
ATOM     20  C   UNL     1      45.276 -55.105  57.531  0.00  0.00    +0.000 A 
ATOM     21  C   UNL     1      42.307 -53.604  55.342  0.00  0.00    +0.000 A 
ATOM     22  C   UNL     1      43.266 -55.440  54.090  0.00  0.00    +0.000 A 
ATOM     23  C   UNL     1      44.417 -56.005  58.150  0.00  0.00    +0.000 A 
ATOM     24  C   UNL     1      46.948 -55.393  59.234  0.00  0.00    +0.000 A 
ATOM     25  C   UNL     1      42.858 -55.668  56.449  0.00  0.00    +0.000 A 
ATOM     26  C   UNL     1      42.311 -54.384  56.496  0.00  0.00    +0.000 A 
ATOM     27  C   UNL     1      43.274 -56.227  55.240  0.00  0.00    +0.000 A 
ATOM     28  C   UNL     1      44.840 -56.604  59.331  0.00  0.00    +0.000 A 
ATOM     29  C   UNL     1      46.096 -56.304  59.871  0.00  0.00    +0.000 A 
ENDROOT
BRANCH  11  30
ATOM     30  O   UNL     1      48.087 -52.362  51.425  0.00  0.00    +0.000 OA
ATOM     31  H   UNL     1      48.672 -51.628  51.155  0.00  0.00    +0.000 HD
ENDBRANCH  11  30
BRANCH  16  32
ATOM     32  O   UNL     1      47.450 -49.665  50.315  0.00  0.00    +0.000 OA
ATOM     33  H   UNL     1      48.010 -50.405  50.013  0.00  0.00    +0.000 HD
ENDBRANCH  16  32
BRANCH  28  34
ATOM     34  O   UNL     1      44.051 -57.500  59.996  0.00  0.00    +0.000 OA
ATOM     35  H   UNL     1      43.156 -57.436  59.615  0.00  0.00    +0.000 HD
ENDBRANCH  28  34
TORSDOF 3
ENDMDL
MODEL 9
REMARK VINA RESULT:      -7.3     15.183     19.820
REMARK  Name = 14132199_RiccardinD.pdbqt.pdb
REMARK  3 active torsions:
REMARK  status: ('A' for Active; 'I' for Inactive)
REMARK    1  A    between atoms: C_11  and  O_30
REMARK    2  A    between atoms: C_16  and  O_32
REMARK    3  A    between atoms: C_28  and  O_34
REMARK                            x       y       z     vdW  Elec       q    Type
REMARK                         _______ _______ _______ _____ _____    ______ ____
ROOT
ATOM      1  O   UNL     1      49.288 -59.155  60.860  0.00  0.00    +0.000 OA
ATOM      2  C   UNL     1      44.491 -55.718  57.181  0.00  0.00    +0.000 C 
ATOM      3  C   UNL     1      44.003 -54.763  56.229  0.00  0.00    +0.000 A 
ATOM      4  C   UNL     1      44.879 -53.881  55.544  0.00  0.00    +0.000 A 
ATOM      5  C   UNL     1      45.175 -56.698  58.148  0.00  0.00    +0.000 C 
ATOM      6  C   UNL     1      50.154 -54.653  57.347  0.00  0.00    +0.000 C 
ATOM      7  C   UNL     1      46.319 -53.829  55.883  0.00  0.00    +0.000 A 
ATOM      8  C   UNL     1      48.982 -54.092  56.762  0.00  0.00    +0.000 A 
ATOM      9  C   UNL     1      51.044 -55.569  58.191  0.00  0.00    +0.000 C 
ATOM     10  C   UNL     1      46.000 -57.519  58.973  0.00  0.00    +0.000 A 
ATOM     11  C   UNL     1      47.340 -54.221  55.005  0.00  0.00    +0.000 A 
ATOM     12  C   UNL     1      51.347 -56.629  59.088  0.00  0.00    +0.000 A 
ATOM     13  C   UNL     1      46.695 -53.456  57.182  0.00  0.00    +0.000 A 
ATOM     14  C   UNL     1      48.658 -54.375  55.439  0.00  0.00    +0.000 A 
ATOM     15  C   UNL     1      48.007 -53.594  57.623  0.00  0.00    +0.000 A 
ATOM     16  C   UNL     1      44.311 -53.060  54.553  0.00  0.00    +0.000 A 
ATOM     17  C   UNL     1      42.632 -54.767  55.959  0.00  0.00    +0.000 A 
ATOM     18  C   UNL     1      42.939 -53.054  54.302  0.00  0.00    +0.000 A 
ATOM     19  C   UNL     1      42.098 -53.902  55.012  0.00  0.00    +0.000 A 
ATOM     20  C   UNL     1      50.251 -57.364  59.528  0.00  0.00    +0.000 A 
ATOM     21  C   UNL     1      46.345 -57.082  60.253  0.00  0.00    +0.000 A 
ATOM     22  C   UNL     1      46.625 -58.637  58.420  0.00  0.00    +0.000 A 
ATOM     23  C   UNL     1      50.379 -58.424  60.418  0.00  0.00    +0.000 A 
ATOM     24  C   UNL     1      52.618 -56.951  59.539  0.00  0.00    +0.000 A 
ATOM     25  C   UNL     1      48.072 -58.754  60.337  0.00  0.00    +0.000 A 
ATOM     26  C   UNL     1      47.379 -57.708  60.947  0.00  0.00    +0.000 A 
ATOM     27  C   UNL     1      47.660 -59.268  59.107  0.00  0.00    +0.000 A 
ATOM     28  C   UNL     1      51.654 -58.745  60.870  0.00  0.00    +0.000 A 
ATOM     29  C   UNL     1      52.768 -58.018  60.435  0.00  0.00    +0.000 A 
ENDROOT
BRANCH  11  30
ATOM     30  O   UNL     1      47.035 -54.477  53.694  0.00  0.00    +0.000 OA
ATOM     31  H   UNL     1      47.129 -55.437  53.542  0.00  0.00    +0.000 HD
ENDBRANCH  11  30
BRANCH  16  32
ATOM     32  O   UNL     1      45.068 -52.234  53.765  0.00  0.00    +0.000 OA
ATOM     33  H   UNL     1      45.646 -52.809  53.229  0.00  0.00    +0.000 HD
ENDBRANCH  16  32
BRANCH  28  34
ATOM     34  O   UNL     1      51.859 -59.774  61.745  0.00  0.00    +0.000 OA
ATOM     35  H   UNL     1      51.532 -60.587  61.319  0.00  0.00    +0.000 HD
ENDBRANCH  28  34
TORSDOF 3
ENDMDL
