MODEL 1
REMARK VINA RESULT:      -4.6      0.000      0.000
REMARK  Name = 146026348_FluorouracilMononitrate.pdbqt.pdb
REMARK  2 active torsions:
REMARK  status: ('A' for Active; 'I' for Inactive)
REMARK    1  A    between atoms: N_4  and  O_10
REMARK    2  A    between atoms: O_10  and  N_13
REMARK                            x       y       z     vdW  Elec       q    Type
REMARK                         _______ _______ _______ _____ _____    ______ ____
ROOT
ATOM      1  F   UNL     1      38.492 -24.084  56.176  0.00  0.00    +0.000 F 
ATOM      2  O   UNL     1      39.716 -25.476  54.085  0.00  0.00    +0.000 OA
ATOM      3  O   UNL     1      38.057 -29.403  56.009  0.00  0.00    +0.000 OA
ATOM      4  N   UNL     1      39.044 -27.476  55.098  0.00  0.00    +0.000 N 
ATOM      5  N   UNL     1      38.553 -25.424  56.133  0.00  0.00    +0.000 N 
ATOM      6  C   UNL     1      39.170 -26.061  55.016  0.00  0.00    +0.000 A 
ATOM      7  C   UNL     1      38.298 -28.207  56.024  0.00  0.00    +0.000 A 
ATOM      8  C   UNL     1      37.763 -27.334  57.042  0.00  0.00    +0.000 A 
ATOM      9  C   UNL     1      37.892 -26.148  57.056  0.00  0.00    +0.000 A 
ENDROOT
BRANCH   4  10
ATOM     10  O   UNL     1      39.540 -28.195  53.995  0.00  0.00    +0.000 OA
BRANCH  10  13
ATOM     11  O   UNL     1      40.734 -30.059  54.392  0.00  0.00    +0.000 OA
ATOM     12  O   UNL     1      41.740 -28.069  54.223  0.00  0.00    +0.000 OA
ATOM     13  N   UNL     1      40.781 -28.837  54.228  0.00  0.00    +0.000 N 
ENDBRANCH  10  13
ENDBRANCH   4  10
TORSDOF 2
ENDMDL
MODEL 2
REMARK VINA RESULT:      -4.4     28.394     29.157
REMARK  Name = 146026348_FluorouracilMononitrate.pdbqt.pdb
REMARK  2 active torsions:
REMARK  status: ('A' for Active; 'I' for Inactive)
REMARK    1  A    between atoms: N_4  and  O_10
REMARK    2  A    between atoms: O_10  and  N_13
REMARK                            x       y       z     vdW  Elec       q    Type
REMARK                         _______ _______ _______ _____ _____    ______ ____
ROOT
ATOM      1  F   UNL     1      59.753 -45.566  57.730  0.00  0.00    +0.000 F 
ATOM      2  O   UNL     1      59.281 -48.298  58.080  0.00  0.00    +0.000 OA
ATOM      3  O   UNL     1      59.795 -47.584  62.673  0.00  0.00    +0.000 OA
ATOM      4  N   UNL     1      59.689 -48.018  60.368  0.00  0.00    +0.000 N 
ATOM      5  N   UNL     1      59.884 -46.180  58.916  0.00  0.00    +0.000 N 
ATOM      6  C   UNL     1      59.597 -47.573  59.019  0.00  0.00    +0.000 A 
ATOM      7  C   UNL     1      59.872 -47.233  61.507  0.00  0.00    +0.000 A 
ATOM      8  C   UNL     1      60.128 -45.861  61.138  0.00  0.00    +0.000 A 
ATOM      9  C   UNL     1      60.124 -45.447  60.019  0.00  0.00    +0.000 A 
ENDROOT
BRANCH   4  10
ATOM     10  O   UNL     1      59.332 -49.361  60.589  0.00  0.00    +0.000 OA
BRANCH  10  13
ATOM     11  O   UNL     1      57.201 -48.830  61.075  0.00  0.00    +0.000 OA
ATOM     12  O   UNL     1      57.677 -50.607  59.802  0.00  0.00    +0.000 OA
ATOM     13  N   UNL     1      57.943 -49.620  60.485  0.00  0.00    +0.000 N 
ENDBRANCH  10  13
ENDBRANCH   4  10
TORSDOF 2
ENDMDL
MODEL 3
REMARK VINA RESULT:      -4.4     17.506     18.813
REMARK  Name = 146026348_FluorouracilMononitrate.pdbqt.pdb
REMARK  2 active torsions:
REMARK  status: ('A' for Active; 'I' for Inactive)
REMARK    1  A    between atoms: N_4  and  O_10
REMARK    2  A    between atoms: O_10  and  N_13
REMARK                            x       y       z     vdW  Elec       q    Type
REMARK                         _______ _______ _______ _____ _____    ______ ____
ROOT
ATOM      1  F   UNL     1      49.767 -41.246  47.477  0.00  0.00    +0.000 F 
ATOM      2  O   UNL     1      49.927 -43.635  48.919  0.00  0.00    +0.000 OA
ATOM      3  O   UNL     1      46.917 -41.753  51.964  0.00  0.00    +0.000 OA
ATOM      4  N   UNL     1      48.550 -42.676  50.551  0.00  0.00    +0.000 N 
ATOM      5  N   UNL     1      49.200 -41.407  48.682  0.00  0.00    +0.000 N 
ATOM      6  C   UNL     1      49.301 -42.667  49.342  0.00  0.00    +0.000 A 
ATOM      7  C   UNL     1      47.681 -41.688  51.015  0.00  0.00    +0.000 A 
ATOM      8  C   UNL     1      47.746 -40.520  50.166  0.00  0.00    +0.000 A 
ATOM      9  C   UNL     1      48.407 -40.437  49.176  0.00  0.00    +0.000 A 
ENDROOT
BRANCH   4  10
ATOM     10  O   UNL     1      48.510 -43.907  51.231  0.00  0.00    +0.000 OA
BRANCH  10  13
ATOM     11  O   UNL     1      46.980 -44.911  49.925  0.00  0.00    +0.000 OA
ATOM     12  O   UNL     1      46.723 -44.846  52.145  0.00  0.00    +0.000 OA
ATOM     13  N   UNL     1      47.293 -44.617  51.081  0.00  0.00    +0.000 N 
ENDBRANCH  10  13
ENDBRANCH   4  10
TORSDOF 2
ENDMDL
MODEL 4
REMARK VINA RESULT:      -4.3     23.293     24.098
REMARK  Name = 146026348_FluorouracilMononitrate.pdbqt.pdb
REMARK  2 active torsions:
REMARK  status: ('A' for Active; 'I' for Inactive)
REMARK    1  A    between atoms: N_4  and  O_10
REMARK    2  A    between atoms: O_10  and  N_13
REMARK                            x       y       z     vdW  Elec       q    Type
REMARK                         _______ _______ _______ _____ _____    ______ ____
ROOT
ATOM      1  F   UNL     1      47.523 -36.572  78.218  0.00  0.00    +0.000 F 
ATOM      2  O   UNL     1      45.493 -38.452  77.825  0.00  0.00    +0.000 OA
ATOM      3  O   UNL     1      46.479 -38.249  73.257  0.00  0.00    +0.000 OA
ATOM      4  N   UNL     1      45.842 -38.264  75.518  0.00  0.00    +0.000 N 
ATOM      5  N   UNL     1      47.100 -36.942  76.999  0.00  0.00    +0.000 N 
ATOM      6  C   UNL     1      46.079 -37.929  76.881  0.00  0.00    +0.000 A 
ATOM      7  C   UNL     1      46.574 -37.847  74.405  0.00  0.00    +0.000 A 
ATOM      8  C   UNL     1      47.558 -36.862  74.789  0.00  0.00    +0.000 A 
ATOM      9  C   UNL     1      47.755 -36.499  75.909  0.00  0.00    +0.000 A 
ENDROOT
BRANCH   4  10
ATOM     10  O   UNL     1      44.915 -39.299  75.299  0.00  0.00    +0.000 OA
BRANCH  10  13
ATOM     11  O   UNL     1      43.047 -38.070  75.545  0.00  0.00    +0.000 OA
ATOM     12  O   UNL     1      43.353 -39.336  73.727  0.00  0.00    +0.000 OA
ATOM     13  N   UNL     1      43.655 -38.861  74.819  0.00  0.00    +0.000 N 
ENDBRANCH  10  13
ENDBRANCH   4  10
TORSDOF 2
ENDMDL
MODEL 5
REMARK VINA RESULT:      -4.0     28.686     29.567
REMARK  Name = 146026348_FluorouracilMononitrate.pdbqt.pdb
REMARK  2 active torsions:
REMARK  status: ('A' for Active; 'I' for Inactive)
REMARK    1  A    between atoms: N_4  and  O_10
REMARK    2  A    between atoms: O_10  and  N_13
REMARK                            x       y       z     vdW  Elec       q    Type
REMARK                         _______ _______ _______ _____ _____    ______ ____
ROOT
ATOM      1  F   UNL     1      62.900 -47.643  57.701  0.00  0.00    +0.000 F 
ATOM      2  O   UNL     1      60.143 -47.694  58.152  0.00  0.00    +0.000 OA
ATOM      3  O   UNL     1      60.889 -44.790  61.742  0.00  0.00    +0.000 OA
ATOM      4  N   UNL     1      60.486 -46.372  60.053  0.00  0.00    +0.000 N 
ATOM      5  N   UNL     1      62.328 -47.073  58.773  0.00  0.00    +0.000 N 
ATOM      6  C   UNL     1      60.910 -47.117  58.917  0.00  0.00    +0.000 A 
ATOM      7  C   UNL     1      61.268 -45.552  60.868  0.00  0.00    +0.000 A 
ATOM      8  C   UNL     1      62.663 -45.670  60.511  0.00  0.00    +0.000 A 
ATOM      9  C   UNL     1      63.079 -46.331  59.608  0.00  0.00    +0.000 A 
ENDROOT
BRANCH   4  10
ATOM     10  O   UNL     1      59.094 -46.275  60.230  0.00  0.00    +0.000 OA
BRANCH  10  13
ATOM     11  O   UNL     1      58.899 -48.195  61.384  0.00  0.00    +0.000 OA
ATOM     12  O   UNL     1      57.930 -46.317  62.116  0.00  0.00    +0.000 OA
ATOM     13  N   UNL     1      58.596 -47.000  61.341  0.00  0.00    +0.000 N 
ENDBRANCH  10  13
ENDBRANCH   4  10
TORSDOF 2
ENDMDL
MODEL 6
REMARK VINA RESULT:      -4.0     19.935     21.284
REMARK  Name = 146026348_FluorouracilMononitrate.pdbqt.pdb
REMARK  2 active torsions:
REMARK  status: ('A' for Active; 'I' for Inactive)
REMARK    1  A    between atoms: N_4  and  O_10
REMARK    2  A    between atoms: O_10  and  N_13
REMARK                            x       y       z     vdW  Elec       q    Type
REMARK                         _______ _______ _______ _____ _____    ______ ____
ROOT
ATOM      1  F   UNL     1      49.072 -42.016  49.908  0.00  0.00    +0.000 F 
ATOM      2  O   UNL     1      50.274 -44.275  48.783  0.00  0.00    +0.000 OA
ATOM      3  O   UNL     1      47.970 -46.821  51.959  0.00  0.00    +0.000 OA
ATOM      4  N   UNL     1      49.269 -45.571  50.453  0.00  0.00    +0.000 N 
ATOM      5  N   UNL     1      48.964 -43.241  50.445  0.00  0.00    +0.000 N 
ATOM      6  C   UNL     1      49.582 -44.349  49.796  0.00  0.00    +0.000 A 
ATOM      7  C   UNL     1      48.362 -45.762  51.496  0.00  0.00    +0.000 A 
ATOM      8  C   UNL     1      47.862 -44.492  51.969  0.00  0.00    +0.000 A 
ATOM      9  C   UNL     1      48.141 -43.433  51.494  0.00  0.00    +0.000 A 
ENDROOT
BRANCH   4  10
ATOM     10  O   UNL     1      49.757 -46.736  49.834  0.00  0.00    +0.000 OA
BRANCH  10  13
ATOM     11  O   UNL     1      52.005 -46.746  49.763  0.00  0.00    +0.000 OA
ATOM     12  O   UNL     1      50.902 -47.952  51.290  0.00  0.00    +0.000 OA
ATOM     13  N   UNL     1      51.003 -47.185  50.336  0.00  0.00    +0.000 N 
ENDBRANCH  10  13
ENDBRANCH   4  10
TORSDOF 2
ENDMDL
MODEL 7
REMARK VINA RESULT:      -4.0     27.908     29.425
REMARK  Name = 146026348_FluorouracilMononitrate.pdbqt.pdb
REMARK  2 active torsions:
REMARK  status: ('A' for Active; 'I' for Inactive)
REMARK    1  A    between atoms: N_4  and  O_10
REMARK    2  A    between atoms: O_10  and  N_13
REMARK                            x       y       z     vdW  Elec       q    Type
REMARK                         _______ _______ _______ _____ _____    ______ ____
ROOT
ATOM      1  F   UNL     1      46.779 -52.813  56.118  0.00  0.00    +0.000 F 
ATOM      2  O   UNL     1      46.040 -54.116  58.477  0.00  0.00    +0.000 OA
ATOM      3  O   UNL     1      50.539 -55.291  58.989  0.00  0.00    +0.000 OA
ATOM      4  N   UNL     1      48.248 -54.863  58.690  0.00  0.00    +0.000 N 
ATOM      5  N   UNL     1      47.628 -53.576  56.823  0.00  0.00    +0.000 N 
ATOM      6  C   UNL     1      47.183 -54.185  58.034  0.00  0.00    +0.000 A 
ATOM      7  C   UNL     1      49.601 -54.846  58.347  0.00  0.00    +0.000 A 
ATOM      8  C   UNL     1      49.794 -54.155  57.093  0.00  0.00    +0.000 A 
ATOM      9  C   UNL     1      48.926 -53.624  56.469  0.00  0.00    +0.000 A 
ENDROOT
BRANCH   4  10
ATOM     10  O   UNL     1      47.933 -55.419  59.943  0.00  0.00    +0.000 OA
BRANCH  10  13
ATOM     11  O   UNL     1      48.403 -57.344  61.007  0.00  0.00    +0.000 OA
ATOM     12  O   UNL     1      47.517 -57.358  58.954  0.00  0.00    +0.000 OA
ATOM     13  N   UNL     1      47.958 -56.836  59.975  0.00  0.00    +0.000 N 
ENDBRANCH  10  13
ENDBRANCH   4  10
TORSDOF 2
ENDMDL
MODEL 8
REMARK VINA RESULT:      -4.0     28.343     29.618
REMARK  Name = 146026348_FluorouracilMononitrate.pdbqt.pdb
REMARK  2 active torsions:
REMARK  status: ('A' for Active; 'I' for Inactive)
REMARK    1  A    between atoms: N_4  and  O_10
REMARK    2  A    between atoms: O_10  and  N_13
REMARK                            x       y       z     vdW  Elec       q    Type
REMARK                         _______ _______ _______ _____ _____    ______ ____
ROOT
ATOM      1  F   UNL     1      61.182 -49.905  62.740  0.00  0.00    +0.000 F 
ATOM      2  O   UNL     1      62.231 -47.436  61.957  0.00  0.00    +0.000 OA
ATOM      3  O   UNL     1      57.833 -45.854  61.804  0.00  0.00    +0.000 OA
ATOM      4  N   UNL     1      60.041 -46.647  61.711  0.00  0.00    +0.000 N 
ATOM      5  N   UNL     1      60.411 -48.879  62.349  0.00  0.00    +0.000 N 
ATOM      6  C   UNL     1      61.021 -47.640  61.993  0.00  0.00    +0.000 A 
ATOM      7  C   UNL     1      58.661 -46.745  61.892  0.00  0.00    +0.000 A 
ATOM      8  C   UNL     1      58.296 -48.091  62.269  0.00  0.00    +0.000 A 
ATOM      9  C   UNL     1      59.073 -48.978  62.456  0.00  0.00    +0.000 A 
ENDROOT
BRANCH   4  10
ATOM     10  O   UNL     1      60.542 -45.361  61.438  0.00  0.00    +0.000 OA
BRANCH  10  13
ATOM     11  O   UNL     1      62.063 -44.914  59.844  0.00  0.00    +0.000 OA
ATOM     12  O   UNL     1      59.911 -45.218  59.319  0.00  0.00    +0.000 OA
ATOM     13  N   UNL     1      60.873 -45.141  60.079  0.00  0.00    +0.000 N 
ENDBRANCH  10  13
ENDBRANCH   4  10
TORSDOF 2
ENDMDL
MODEL 9
REMARK VINA RESULT:      -3.9     11.346     12.353
REMARK  Name = 146026348_FluorouracilMononitrate.pdbqt.pdb
REMARK  2 active torsions:
REMARK  status: ('A' for Active; 'I' for Inactive)
REMARK    1  A    between atoms: N_4  and  O_10
REMARK    2  A    between atoms: O_10  and  N_13
REMARK                            x       y       z     vdW  Elec       q    Type
REMARK                         _______ _______ _______ _____ _____    ______ ____
ROOT
ATOM      1  F   UNL     1      46.988 -23.280  49.594  0.00  0.00    +0.000 F 
ATOM      2  O   UNL     1      48.789 -22.453  51.565  0.00  0.00    +0.000 OA
ATOM      3  O   UNL     1      51.132 -26.426  50.794  0.00  0.00    +0.000 OA
ATOM      4  N   UNL     1      49.902 -24.498  51.327  0.00  0.00    +0.000 N 
ATOM      5  N   UNL     1      47.972 -24.067  50.056  0.00  0.00    +0.000 N 
ATOM      6  C   UNL     1      48.869 -23.561  51.043  0.00  0.00    +0.000 A 
ATOM      7  C   UNL     1      50.163 -25.697  50.662  0.00  0.00    +0.000 A 
ATOM      8  C   UNL     1      49.121 -25.978  49.702  0.00  0.00    +0.000 A 
ATOM      9  C   UNL     1      48.199 -25.257  49.469  0.00  0.00    +0.000 A 
ENDROOT
BRANCH   4  10
ATOM     10  O   UNL     1      50.893 -24.056  52.222  0.00  0.00    +0.000 OA
BRANCH  10  13
ATOM     11  O   UNL     1      51.915 -22.746  50.706  0.00  0.00    +0.000 OA
ATOM     12  O   UNL     1      53.102 -24.083  52.050  0.00  0.00    +0.000 OA
ATOM     13  N   UNL     1      52.074 -23.585  51.597  0.00  0.00    +0.000 N 
ENDBRANCH  10  13
ENDBRANCH   4  10
TORSDOF 2
ENDMDL
