MODEL 1
REMARK VINA RESULT:      -8.1      0.000      0.000
REMARK  Name = 179268_Nortopsentin.pdbqt.pdb
REMARK  2 active torsions:
REMARK  status: ('A' for Active; 'I' for Inactive)
REMARK    1  A    between atoms: C_3  and  C_9
REMARK    2  A    between atoms: C_4  and  C_20
REMARK                            x       y       z     vdW  Elec       q    Type
REMARK                         _______ _______ _______ _____ _____    ______ ____
ROOT
ATOM      1  N   UNL     1      49.095 -41.741  50.026  0.00  0.00    +0.000 N 
ATOM      2  N   UNL     1      47.301 -41.386  51.270  0.00  0.00    +0.000 NA
ATOM      3  C   UNL     1      48.665 -42.978  50.420  0.00  0.00    +0.000 A 
ATOM      4  C   UNL     1      48.245 -40.805  50.560  0.00  0.00    +0.000 A 
ATOM      5  C   UNL     1      47.552 -42.734  51.192  0.00  0.00    +0.000 A 
ATOM      6  H   UNL     1      49.894 -41.537  49.445  0.00  0.00    +0.000 HD
ENDROOT
BRANCH   3   9
ATOM      7 BR   UNL     1      48.806 -50.134  51.607  0.00  0.00    +0.000 Br
ATOM      8  N   UNL     1      50.599 -45.764  49.101  0.00  0.00    +0.000 N 
ATOM      9  C   UNL     1      49.272 -44.281  50.085  0.00  0.00    +0.000 A 
ATOM     10  C   UNL     1      48.966 -45.568  50.613  0.00  0.00    +0.000 A 
ATOM     11  C   UNL     1      49.815 -46.479  49.976  0.00  0.00    +0.000 A 
ATOM     12  C   UNL     1      50.278 -44.437  49.160  0.00  0.00    +0.000 A 
ATOM     13  C   UNL     1      48.053 -46.057  51.569  0.00  0.00    +0.000 A 
ATOM     14  C   UNL     1      49.799 -47.852  50.245  0.00  0.00    +0.000 A 
ATOM     15  C   UNL     1      48.020 -47.423  51.852  0.00  0.00    +0.000 A 
ATOM     16  C   UNL     1      48.880 -48.295  51.197  0.00  0.00    +0.000 A 
ATOM     17  H   UNL     1      51.309 -46.160  48.500  0.00  0.00    +0.000 HD
ENDBRANCH   3   9
BRANCH   4  20
ATOM     18 BR   UNL     1      49.736 -35.446  45.916  0.00  0.00    +0.000 Br
ATOM     19  N   UNL     1      48.380 -37.164  50.795  0.00  0.00    +0.000 N 
ATOM     20  C   UNL     1      48.376 -39.340  50.359  0.00  0.00    +0.000 A 
ATOM     21  C   UNL     1      48.723 -38.651  49.164  0.00  0.00    +0.000 A 
ATOM     22  C   UNL     1      48.718 -37.287  49.466  0.00  0.00    +0.000 A 
ATOM     23  C   UNL     1      48.171 -38.400  51.344  0.00  0.00    +0.000 A 
ATOM     24  C   UNL     1      49.042 -39.050  47.850  0.00  0.00    +0.000 A 
ATOM     25  C   UNL     1      49.014 -36.298  48.524  0.00  0.00    +0.000 A 
ATOM     26  C   UNL     1      49.342 -38.078  46.894  0.00  0.00    +0.000 A 
ATOM     27  C   UNL     1      49.326 -36.732  47.235  0.00  0.00    +0.000 A 
ATOM     28  H   UNL     1      48.298 -36.287  51.290  0.00  0.00    +0.000 HD
ENDBRANCH   4  20
TORSDOF 2
ENDMDL
MODEL 2
REMARK VINA RESULT:      -8.0      2.089      2.731
REMARK  Name = 179268_Nortopsentin.pdbqt.pdb
REMARK  2 active torsions:
REMARK  status: ('A' for Active; 'I' for Inactive)
REMARK    1  A    between atoms: C_3  and  C_9
REMARK    2  A    between atoms: C_4  and  C_20
REMARK                            x       y       z     vdW  Elec       q    Type
REMARK                         _______ _______ _______ _____ _____    ______ ____
ROOT
ATOM      1  N   UNL     1      49.998 -42.500  49.035  0.00  0.00    +0.000 N 
ATOM      2  N   UNL     1      48.537 -42.221  47.398  0.00  0.00    +0.000 NA
ATOM      3  C   UNL     1      49.603 -43.757  48.671  0.00  0.00    +0.000 A 
ATOM      4  C   UNL     1      49.332 -41.599  48.243  0.00  0.00    +0.000 A 
ATOM      5  C   UNL     1      48.696 -43.561  47.654  0.00  0.00    +0.000 A 
ATOM      6  H   UNL     1      50.662 -42.261  49.756  0.00  0.00    +0.000 HD
ENDROOT
BRANCH   3   9
ATOM      7 BR   UNL     1      47.957 -49.561  52.702  0.00  0.00    +0.000 Br
ATOM      8  N   UNL     1      51.398 -46.737  49.740  0.00  0.00    +0.000 N 
ATOM      9  C   UNL     1      50.057 -45.037  49.251  0.00  0.00    +0.000 A 
ATOM     10  C   UNL     1      49.330 -45.954  50.064  0.00  0.00    +0.000 A 
ATOM     11  C   UNL     1      50.198 -47.011  50.356  0.00  0.00    +0.000 A 
ATOM     12  C   UNL     1      51.321 -45.548  49.071  0.00  0.00    +0.000 A 
ATOM     13  C   UNL     1      48.022 -45.997  50.585  0.00  0.00    +0.000 A 
ATOM     14  C   UNL     1      49.826 -48.108  51.141  0.00  0.00    +0.000 A 
ATOM     15  C   UNL     1      47.630 -47.081  51.370  0.00  0.00    +0.000 A 
ATOM     16  C   UNL     1      48.522 -48.112  51.637  0.00  0.00    +0.000 A 
ATOM     17  H   UNL     1      52.218 -47.328  49.776  0.00  0.00    +0.000 HD
ENDBRANCH   3   9
BRANCH   4  20
ATOM     18 BR   UNL     1      48.036 -35.593  52.084  0.00  0.00    +0.000 Br
ATOM     19  N   UNL     1      50.081 -38.053  47.800  0.00  0.00    +0.000 N 
ATOM     20  C   UNL     1      49.491 -40.126  48.330  0.00  0.00    +0.000 A 
ATOM     21  C   UNL     1      49.037 -39.259  49.363  0.00  0.00    +0.000 A 
ATOM     22  C   UNL     1      49.420 -37.965  49.004  0.00  0.00    +0.000 A 
ATOM     23  C   UNL     1      50.129 -39.356  47.384  0.00  0.00    +0.000 A 
ATOM     24  C   UNL     1      48.336 -39.444  50.571  0.00  0.00    +0.000 A 
ATOM     25  C   UNL     1      49.141 -36.843  49.789  0.00  0.00    +0.000 A 
ATOM     26  C   UNL     1      48.046 -38.337  51.370  0.00  0.00    +0.000 A 
ATOM     27  C   UNL     1      48.445 -37.066  50.978  0.00  0.00    +0.000 A 
ATOM     28  H   UNL     1      50.473 -37.268  47.297  0.00  0.00    +0.000 HD
ENDBRANCH   4  20
TORSDOF 2
ENDMDL
MODEL 3
REMARK VINA RESULT:      -7.9      2.347      8.918
REMARK  Name = 179268_Nortopsentin.pdbqt.pdb
REMARK  2 active torsions:
REMARK  status: ('A' for Active; 'I' for Inactive)
REMARK    1  A    between atoms: C_3  and  C_9
REMARK    2  A    between atoms: C_4  and  C_20
REMARK                            x       y       z     vdW  Elec       q    Type
REMARK                         _______ _______ _______ _____ _____    ______ ____
ROOT
ATOM      1  N   UNL     1      49.248 -42.875  49.974  0.00  0.00    +0.000 N 
ATOM      2  N   UNL     1      50.105 -43.063  47.943  0.00  0.00    +0.000 NA
ATOM      3  C   UNL     1      48.967 -41.696  49.340  0.00  0.00    +0.000 A 
ATOM      4  C   UNL     1      49.937 -43.674  49.097  0.00  0.00    +0.000 A 
ATOM      5  C   UNL     1      49.507 -41.834  48.082  0.00  0.00    +0.000 A 
ATOM      6  H   UNL     1      49.000 -43.126  50.918  0.00  0.00    +0.000 HD
ENDROOT
BRANCH   3   9
ATOM      7 BR   UNL     1      49.371 -35.255  52.657  0.00  0.00    +0.000 Br
ATOM      8  N   UNL     1      46.540 -39.232  50.474  0.00  0.00    +0.000 N 
ATOM      9  C   UNL     1      48.241 -40.536  49.896  0.00  0.00    +0.000 A 
ATOM     10  C   UNL     1      48.770 -39.370  50.520  0.00  0.00    +0.000 A 
ATOM     11  C   UNL     1      47.679 -38.570  50.872  0.00  0.00    +0.000 A 
ATOM     12  C   UNL     1      46.871 -40.419  49.884  0.00  0.00    +0.000 A 
ATOM     13  C   UNL     1      50.066 -38.909  50.824  0.00  0.00    +0.000 A 
ATOM     14  C   UNL     1      47.816 -37.333  51.513  0.00  0.00    +0.000 A 
ATOM     15  C   UNL     1      50.226 -37.678  51.462  0.00  0.00    +0.000 A 
ATOM     16  C   UNL     1      49.116 -36.912  51.795  0.00  0.00    +0.000 A 
ATOM     17  H   UNL     1      45.596 -38.891  50.598  0.00  0.00    +0.000 HD
ENDBRANCH   3   9
BRANCH   4  20
ATOM     18 BR   UNL     1      48.443 -50.065  52.168  0.00  0.00    +0.000 Br
ATOM     19  N   UNL     1      51.756 -46.811  49.517  0.00  0.00    +0.000 N 
ATOM     20  C   UNL     1      50.422 -45.041  49.412  0.00  0.00    +0.000 A 
ATOM     21  C   UNL     1      49.730 -46.076  50.101  0.00  0.00    +0.000 A 
ATOM     22  C   UNL     1      50.591 -47.175  50.153  0.00  0.00    +0.000 A 
ATOM     23  C   UNL     1      51.665 -45.523  49.066  0.00  0.00    +0.000 A 
ATOM     24  C   UNL     1      48.454 -46.190  50.687  0.00  0.00    +0.000 A 
ATOM     25  C   UNL     1      50.245 -48.385  50.761  0.00  0.00    +0.000 A 
ATOM     26  C   UNL     1      48.088 -47.389  51.301  0.00  0.00    +0.000 A 
ATOM     27  C   UNL     1      48.973 -48.459  51.331  0.00  0.00    +0.000 A 
ATOM     28  H   UNL     1      52.562 -47.412  49.402  0.00  0.00    +0.000 HD
ENDBRANCH   4  20
TORSDOF 2
ENDMDL
MODEL 4
REMARK VINA RESULT:      -7.8      2.985     10.040
REMARK  Name = 179268_Nortopsentin.pdbqt.pdb
REMARK  2 active torsions:
REMARK  status: ('A' for Active; 'I' for Inactive)
REMARK    1  A    between atoms: C_3  and  C_9
REMARK    2  A    between atoms: C_4  and  C_20
REMARK                            x       y       z     vdW  Elec       q    Type
REMARK                         _______ _______ _______ _____ _____    ______ ____
ROOT
ATOM      1  N   UNL     1      48.261 -45.978  51.394  0.00  0.00    +0.000 N 
ATOM      2  N   UNL     1      46.190 -46.684  51.722  0.00  0.00    +0.000 NA
ATOM      3  C   UNL     1      47.478 -44.857  51.369  0.00  0.00    +0.000 A 
ATOM      4  C   UNL     1      47.446 -47.061  51.609  0.00  0.00    +0.000 A 
ATOM      5  C   UNL     1      46.197 -45.318  51.574  0.00  0.00    +0.000 A 
ATOM      6  H   UNL     1      49.262 -46.018  51.277  0.00  0.00    +0.000 HD
ENDROOT
BRANCH   3   9
ATOM      7 BR   UNL     1      49.687 -39.773  46.689  0.00  0.00    +0.000 Br
ATOM      8  N   UNL     1      48.472 -41.368  51.645  0.00  0.00    +0.000 N 
ATOM      9  C   UNL     1      47.922 -43.464  51.166  0.00  0.00    +0.000 A 
ATOM     10  C   UNL     1      48.295 -42.817  49.954  0.00  0.00    +0.000 A 
ATOM     11  C   UNL     1      48.636 -41.502  50.286  0.00  0.00    +0.000 A 
ATOM     12  C   UNL     1      48.041 -42.547  52.184  0.00  0.00    +0.000 A 
ATOM     13  C   UNL     1      48.381 -43.210  48.604  0.00  0.00    +0.000 A 
ATOM     14  C   UNL     1      49.057 -40.561  49.339  0.00  0.00    +0.000 A 
ATOM     15  C   UNL     1      48.798 -42.288  47.643  0.00  0.00    +0.000 A 
ATOM     16  C   UNL     1      49.127 -40.991  48.014  0.00  0.00    +0.000 A 
ATOM     17  H   UNL     1      48.644 -40.521  52.171  0.00  0.00    +0.000 HD
ENDBRANCH   3   9
BRANCH   4  20
ATOM     18 BR   UNL     1      47.080 -53.345  55.199  0.00  0.00    +0.000 Br
ATOM     19  N   UNL     1      49.022 -50.333  51.230  0.00  0.00    +0.000 N 
ATOM     20  C   UNL     1      47.922 -48.465  51.703  0.00  0.00    +0.000 A 
ATOM     21  C   UNL     1      47.553 -49.448  52.662  0.00  0.00    +0.000 A 
ATOM     22  C   UNL     1      48.258 -50.611  52.341  0.00  0.00    +0.000 A 
ATOM     23  C   UNL     1      48.826 -49.037  50.837  0.00  0.00    +0.000 A 
ATOM     24  C   UNL     1      46.687 -49.469  53.773  0.00  0.00    +0.000 A 
ATOM     25  C   UNL     1      48.145 -51.796  53.074  0.00  0.00    +0.000 A 
ATOM     26  C   UNL     1      46.560 -50.642  54.519  0.00  0.00    +0.000 A 
ATOM     27  C   UNL     1      47.278 -51.777  54.168  0.00  0.00    +0.000 A 
ATOM     28  H   UNL     1      49.638 -50.992  50.774  0.00  0.00    +0.000 HD
ENDBRANCH   4  20
TORSDOF 2
ENDMDL
MODEL 5
REMARK VINA RESULT:      -7.8      2.894      9.652
REMARK  Name = 179268_Nortopsentin.pdbqt.pdb
REMARK  2 active torsions:
REMARK  status: ('A' for Active; 'I' for Inactive)
REMARK    1  A    between atoms: C_3  and  C_9
REMARK    2  A    between atoms: C_4  and  C_20
REMARK                            x       y       z     vdW  Elec       q    Type
REMARK                         _______ _______ _______ _____ _____    ______ ____
ROOT
ATOM      1  N   UNL     1      48.707 -38.476  47.624  0.00  0.00    +0.000 N 
ATOM      2  N   UNL     1      49.874 -40.308  47.207  0.00  0.00    +0.000 NA
ATOM      3  C   UNL     1      49.183 -38.332  46.351  0.00  0.00    +0.000 A 
ATOM      4  C   UNL     1      49.146 -39.683  48.108  0.00  0.00    +0.000 A 
ATOM      5  C   UNL     1      49.905 -39.479  46.112  0.00  0.00    +0.000 A 
ATOM      6  H   UNL     1      48.133 -37.820  48.132  0.00  0.00    +0.000 HD
ENDROOT
BRANCH   3   9
ATOM      7 BR   UNL     1      49.889 -31.199  45.222  0.00  0.00    +0.000 Br
ATOM      8  N   UNL     1      48.335 -36.063  43.635  0.00  0.00    +0.000 N 
ATOM      9  C   UNL     1      48.964 -37.189  45.441  0.00  0.00    +0.000 A 
ATOM     10  C   UNL     1      49.290 -35.817  45.640  0.00  0.00    +0.000 A 
ATOM     11  C   UNL     1      48.883 -35.134  44.490  0.00  0.00    +0.000 A 
ATOM     12  C   UNL     1      48.380 -37.306  44.201  0.00  0.00    +0.000 A 
ATOM     13  C   UNL     1      49.889 -35.081  46.680  0.00  0.00    +0.000 A 
ATOM     14  C   UNL     1      49.044 -33.754  44.326  0.00  0.00    +0.000 A 
ATOM     15  C   UNL     1      50.060 -33.703  46.538  0.00  0.00    +0.000 A 
ATOM     16  C   UNL     1      49.642 -33.061  45.379  0.00  0.00    +0.000 A 
ATOM     17  H   UNL     1      47.954 -35.858  42.721  0.00  0.00    +0.000 HD
ENDBRANCH   3   9
BRANCH   4  20
ATOM     18 BR   UNL     1      47.072 -45.394  52.057  0.00  0.00    +0.000 Br
ATOM     19  N   UNL     1      48.561 -40.273  51.663  0.00  0.00    +0.000 N 
ATOM     20  C   UNL     1      48.839 -40.206  49.463  0.00  0.00    +0.000 A 
ATOM     21  C   UNL     1      48.426 -41.522  49.816  0.00  0.00    +0.000 A 
ATOM     22  C   UNL     1      48.259 -41.534  51.203  0.00  0.00    +0.000 A 
ATOM     23  C   UNL     1      48.912 -39.462  50.618  0.00  0.00    +0.000 A 
ATOM     24  C   UNL     1      48.178 -42.706  49.096  0.00  0.00    +0.000 A 
ATOM     25  C   UNL     1      47.856 -42.671  51.910  0.00  0.00    +0.000 A 
ATOM     26  C   UNL     1      47.774 -43.853  49.782  0.00  0.00    +0.000 A 
ATOM     27  C   UNL     1      47.619 -43.825  51.162  0.00  0.00    +0.000 A 
ATOM     28  H   UNL     1      48.526 -39.989  52.633  0.00  0.00    +0.000 HD
ENDBRANCH   4  20
TORSDOF 2
ENDMDL
MODEL 6
REMARK VINA RESULT:      -7.7      1.693      2.388
REMARK  Name = 179268_Nortopsentin.pdbqt.pdb
REMARK  2 active torsions:
REMARK  status: ('A' for Active; 'I' for Inactive)
REMARK    1  A    between atoms: C_3  and  C_9
REMARK    2  A    between atoms: C_4  and  C_20
REMARK                            x       y       z     vdW  Elec       q    Type
REMARK                         _______ _______ _______ _____ _____    ______ ____
ROOT
ATOM      1  N   UNL     1      49.046 -41.818  50.119  0.00  0.00    +0.000 N 
ATOM      2  N   UNL     1      47.587 -41.074  51.605  0.00  0.00    +0.000 NA
ATOM      3  C   UNL     1      48.536 -42.931  50.728  0.00  0.00    +0.000 A 
ATOM      4  C   UNL     1      48.448 -40.716  50.676  0.00  0.00    +0.000 A 
ATOM      5  C   UNL     1      47.633 -42.446  51.647  0.00  0.00    +0.000 A 
ATOM      6  H   UNL     1      49.740 -41.796  49.387  0.00  0.00    +0.000 HD
ENDROOT
BRANCH   3   9
ATOM      7 BR   UNL     1      52.318 -47.600  46.661  0.00  0.00    +0.000 Br
ATOM      8  N   UNL     1      48.915 -46.549  50.649  0.00  0.00    +0.000 N 
ATOM      9  C   UNL     1      48.887 -44.339  50.453  0.00  0.00    +0.000 A 
ATOM     10  C   UNL     1      49.760 -44.860  49.456  0.00  0.00    +0.000 A 
ATOM     11  C   UNL     1      49.757 -46.250  49.603  0.00  0.00    +0.000 A 
ATOM     12  C   UNL     1      48.385 -45.401  51.167  0.00  0.00    +0.000 A 
ATOM     13  C   UNL     1      50.555 -44.295  48.439  0.00  0.00    +0.000 A 
ATOM     14  C   UNL     1      50.508 -47.105  48.788  0.00  0.00    +0.000 A 
ATOM     15  C   UNL     1      51.312 -45.128  47.615  0.00  0.00    +0.000 A 
ATOM     16  C   UNL     1      51.282 -46.506  47.794  0.00  0.00    +0.000 A 
ATOM     17  H   UNL     1      48.715 -47.481  50.986  0.00  0.00    +0.000 HD
ENDBRANCH   3   9
BRANCH   4  20
ATOM     18 BR   UNL     1      49.525 -36.072  45.218  0.00  0.00    +0.000 Br
ATOM     19  N   UNL     1      49.155 -37.142  50.445  0.00  0.00    +0.000 N 
ATOM     20  C   UNL     1      48.735 -39.315  50.280  0.00  0.00    +0.000 A 
ATOM     21  C   UNL     1      48.878 -38.792  48.965  0.00  0.00    +0.000 A 
ATOM     22  C   UNL     1      49.141 -37.426  49.098  0.00  0.00    +0.000 A 
ATOM     23  C   UNL     1      48.911 -38.278  51.168  0.00  0.00    +0.000 A 
ATOM     24  C   UNL     1      48.809 -39.342  47.670  0.00  0.00    +0.000 A 
ATOM     25  C   UNL     1      49.340 -36.579  48.004  0.00  0.00    +0.000 A 
ATOM     26  C   UNL     1      49.006 -38.514  46.563  0.00  0.00    +0.000 A 
ATOM     27  C   UNL     1      49.265 -37.161  46.737  0.00  0.00    +0.000 A 
ATOM     28  H   UNL     1      49.322 -36.226  50.839  0.00  0.00    +0.000 HD
ENDBRANCH   4  20
TORSDOF 2
ENDMDL
MODEL 7
REMARK VINA RESULT:      -7.7      1.404      9.025
REMARK  Name = 179268_Nortopsentin.pdbqt.pdb
REMARK  2 active torsions:
REMARK  status: ('A' for Active; 'I' for Inactive)
REMARK    1  A    between atoms: C_3  and  C_9
REMARK    2  A    between atoms: C_4  and  C_20
REMARK                            x       y       z     vdW  Elec       q    Type
REMARK                         _______ _______ _______ _____ _____    ______ ____
ROOT
ATOM      1  N   UNL     1      48.801 -41.697  50.434  0.00  0.00    +0.000 N 
ATOM      2  N   UNL     1      49.285 -43.144  48.833  0.00  0.00    +0.000 NA
ATOM      3  C   UNL     1      49.209 -40.947  49.366  0.00  0.00    +0.000 A 
ATOM      4  C   UNL     1      48.861 -43.019  50.073  0.00  0.00    +0.000 A 
ATOM      5  C   UNL     1      49.505 -41.864  48.384  0.00  0.00    +0.000 A 
ATOM      6  H   UNL     1      48.506 -41.353  51.335  0.00  0.00    +0.000 HD
ENDROOT
BRANCH   3   9
ATOM      7 BR   UNL     1      48.609 -34.975  45.289  0.00  0.00    +0.000 Br
ATOM      8  N   UNL     1      49.645 -37.381  49.951  0.00  0.00    +0.000 N 
ATOM      9  C   UNL     1      49.307 -39.475  49.296  0.00  0.00    +0.000 A 
ATOM     10  C   UNL     1      49.081 -38.621  48.179  0.00  0.00    +0.000 A 
ATOM     11  C   UNL     1      49.301 -37.312  48.620  0.00  0.00    +0.000 A 
ATOM     12  C   UNL     1      49.651 -38.683  50.366  0.00  0.00    +0.000 A 
ATOM     13  C   UNL     1      48.712 -38.821  46.834  0.00  0.00    +0.000 A 
ATOM     14  C   UNL     1      49.171 -36.194  47.788  0.00  0.00    +0.000 A 
ATOM     15  C   UNL     1      48.575 -37.721  45.987  0.00  0.00    +0.000 A 
ATOM     16  C   UNL     1      48.803 -36.436  46.464  0.00  0.00    +0.000 A 
ATOM     17  H   UNL     1      49.862 -36.587  50.537  0.00  0.00    +0.000 HD
ENDBRANCH   3   9
BRANCH   4  20
ATOM     18 BR   UNL     1      48.563 -50.212  50.898  0.00  0.00    +0.000 Br
ATOM     19  N   UNL     1      47.759 -45.256  52.739  0.00  0.00    +0.000 N 
ATOM     20  C   UNL     1      48.496 -44.150  50.962  0.00  0.00    +0.000 A 
ATOM     21  C   UNL     1      48.616 -45.543  50.696  0.00  0.00    +0.000 A 
ATOM     22  C   UNL     1      48.146 -46.213  51.828  0.00  0.00    +0.000 A 
ATOM     23  C   UNL     1      47.966 -44.005  52.224  0.00  0.00    +0.000 A 
ATOM     24  C   UNL     1      49.079 -46.304  49.605  0.00  0.00    +0.000 A 
ATOM     25  C   UNL     1      48.114 -47.607  51.929  0.00  0.00    +0.000 A 
ATOM     26  C   UNL     1      49.055 -47.698  49.684  0.00  0.00    +0.000 A 
ATOM     27  C   UNL     1      48.580 -48.326  50.827  0.00  0.00    +0.000 A 
ATOM     28  H   UNL     1      47.377 -45.452  53.654  0.00  0.00    +0.000 HD
ENDBRANCH   4  20
TORSDOF 2
ENDMDL
MODEL 8
REMARK VINA RESULT:      -7.6      6.833     10.606
REMARK  Name = 179268_Nortopsentin.pdbqt.pdb
REMARK  2 active torsions:
REMARK  status: ('A' for Active; 'I' for Inactive)
REMARK    1  A    between atoms: C_3  and  C_9
REMARK    2  A    between atoms: C_4  and  C_20
REMARK                            x       y       z     vdW  Elec       q    Type
REMARK                         _______ _______ _______ _____ _____    ______ ____
ROOT
ATOM      1  N   UNL     1      46.963 -50.794  54.552  0.00  0.00    +0.000 N 
ATOM      2  N   UNL     1      48.100 -51.556  52.815  0.00  0.00    +0.000 NA
ATOM      3  C   UNL     1      47.224 -52.108  54.826  0.00  0.00    +0.000 A 
ATOM      4  C   UNL     1      47.508 -50.498  53.328  0.00  0.00    +0.000 A 
ATOM      5  C   UNL     1      47.930 -52.561  53.735  0.00  0.00    +0.000 A 
ATOM      6  H   UNL     1      46.460 -50.144  55.137  0.00  0.00    +0.000 HD
ENDROOT
BRANCH   3   9
ATOM      7 BR   UNL     1      42.236 -56.257  58.074  0.00  0.00    +0.000 Br
ATOM      8  N   UNL     1      46.944 -53.721  58.076  0.00  0.00    +0.000 N 
ATOM      9  C   UNL     1      46.830 -52.863  56.032  0.00  0.00    +0.000 A 
ATOM     10  C   UNL     1      45.639 -53.609  56.265  0.00  0.00    +0.000 A 
ATOM     11  C   UNL     1      45.739 -54.137  57.557  0.00  0.00    +0.000 A 
ATOM     12  C   UNL     1      47.608 -52.952  57.162  0.00  0.00    +0.000 A 
ATOM     13  C   UNL     1      44.483 -53.894  55.513  0.00  0.00    +0.000 A 
ATOM     14  C   UNL     1      44.744 -54.933  58.135  0.00  0.00    +0.000 A 
ATOM     15  C   UNL     1      43.478 -54.686  56.069  0.00  0.00    +0.000 A 
ATOM     16  C   UNL     1      43.615 -55.191  57.356  0.00  0.00    +0.000 A 
ATOM     17  H   UNL     1      47.289 -53.950  58.998  0.00  0.00    +0.000 HD
ENDBRANCH   3   9
BRANCH   4  20
ATOM     18 BR   UNL     1      50.900 -45.588  49.218  0.00  0.00    +0.000 Br
ATOM     19  N   UNL     1      46.648 -47.194  52.035  0.00  0.00    +0.000 N 
ATOM     20  C   UNL     1      47.437 -49.166  52.678  0.00  0.00    +0.000 A 
ATOM     21  C   UNL     1      48.432 -48.529  51.885  0.00  0.00    +0.000 A 
ATOM     22  C   UNL     1      47.910 -47.293  51.495  0.00  0.00    +0.000 A 
ATOM     23  C   UNL     1      46.353 -48.322  52.752  0.00  0.00    +0.000 A 
ATOM     24  C   UNL     1      49.728 -48.879  51.457  0.00  0.00    +0.000 A 
ATOM     25  C   UNL     1      48.615 -46.386  50.698  0.00  0.00    +0.000 A 
ATOM     26  C   UNL     1      50.450 -47.987  50.661  0.00  0.00    +0.000 A 
ATOM     27  C   UNL     1      49.895 -46.768  50.295  0.00  0.00    +0.000 A 
ATOM     28  H   UNL     1      46.030 -46.402  51.917  0.00  0.00    +0.000 HD
ENDBRANCH   4  20
TORSDOF 2
ENDMDL
MODEL 9
REMARK VINA RESULT:      -7.5      2.418      4.234
REMARK  Name = 179268_Nortopsentin.pdbqt.pdb
REMARK  2 active torsions:
REMARK  status: ('A' for Active; 'I' for Inactive)
REMARK    1  A    between atoms: C_3  and  C_9
REMARK    2  A    between atoms: C_4  and  C_20
REMARK                            x       y       z     vdW  Elec       q    Type
REMARK                         _______ _______ _______ _____ _____    ______ ____
ROOT
ATOM      1  N   UNL     1      48.441 -39.514  48.135  0.00  0.00    +0.000 N 
ATOM      2  N   UNL     1      50.269 -38.291  48.374  0.00  0.00    +0.000 NA
ATOM      3  C   UNL     1      49.080 -40.012  49.237  0.00  0.00    +0.000 A 
ATOM      4  C   UNL     1      49.191 -38.476  47.642  0.00  0.00    +0.000 A 
ATOM      5  C   UNL     1      50.212 -39.239  49.367  0.00  0.00    +0.000 A 
ATOM      6  H   UNL     1      47.572 -39.842  47.743  0.00  0.00    +0.000 HD
ENDROOT
BRANCH   3   9
ATOM      7 BR   UNL     1      49.062 -47.177  50.378  0.00  0.00    +0.000 Br
ATOM      8  N   UNL     1      47.666 -42.207  51.772  0.00  0.00    +0.000 N 
ATOM      9  C   UNL     1      48.641 -41.133  50.092  0.00  0.00    +0.000 A 
ATOM     10  C   UNL     1      48.887 -42.526  49.927  0.00  0.00    +0.000 A 
ATOM     11  C   UNL     1      48.262 -43.175  50.997  0.00  0.00    +0.000 A 
ATOM     12  C   UNL     1      47.890 -40.972  51.232  0.00  0.00    +0.000 A 
ATOM     13  C   UNL     1      49.576 -43.308  48.979  0.00  0.00    +0.000 A 
ATOM     14  C   UNL     1      48.291 -44.564  51.168  0.00  0.00    +0.000 A 
ATOM     15  C   UNL     1      49.618 -44.694  49.130  0.00  0.00    +0.000 A 
ATOM     16  C   UNL     1      48.984 -45.301  50.207  0.00  0.00    +0.000 A 
ATOM     17  H   UNL     1      47.139 -42.382  52.617  0.00  0.00    +0.000 HD
ENDBRANCH   3   9
BRANCH   4  20
ATOM     18 BR   UNL     1      49.290 -31.958  44.477  0.00  0.00    +0.000 Br
ATOM     19  N   UNL     1      48.028 -37.154  44.443  0.00  0.00    +0.000 N 
ATOM     20  C   UNL     1      48.829 -37.674  46.446  0.00  0.00    +0.000 A 
ATOM     21  C   UNL     1      49.059 -36.287  46.225  0.00  0.00    +0.000 A 
ATOM     22  C   UNL     1      48.546 -35.989  44.960  0.00  0.00    +0.000 A 
ATOM     23  C   UNL     1      48.194 -38.179  45.335  0.00  0.00    +0.000 A 
ATOM     24  C   UNL     1      49.655 -35.252  46.973  0.00  0.00    +0.000 A 
ATOM     25  C   UNL     1      48.595 -34.708  44.402  0.00  0.00    +0.000 A 
ATOM     26  C   UNL     1      49.713 -33.965  46.434  0.00  0.00    +0.000 A 
ATOM     27  C   UNL     1      49.192 -33.709  45.173  0.00  0.00    +0.000 A 
ATOM     28  H   UNL     1      47.588 -37.238  43.537  0.00  0.00    +0.000 HD
ENDBRANCH   4  20
TORSDOF 2
ENDMDL
