MODEL 1
REMARK VINA RESULT:      -4.7      0.000      0.000
REMARK  Name = 21574552_Mertensene.pdbqt.pdb
REMARK  1 active torsions:
REMARK  status: ('A' for Active; 'I' for Inactive)
REMARK    1  A    between atoms: C_4  and  C_13
REMARK                            x       y       z     vdW  Elec       q    Type
REMARK                         _______ _______ _______ _____ _____    ______ ____
ROOT
ATOM      1 BR   UNL     1      60.410 -48.989  63.718  0.00  0.00    +0.000 Br
ATOM      2 CL   UNL     1      60.801 -47.338  58.019  0.00  0.00    +0.000 Cl
ATOM      3 CL   UNL     1      63.509 -46.574  59.939  0.00  0.00    +0.000 Cl
ATOM      4  C   UNL     1      59.055 -47.611  61.438  0.00  0.00    +0.000 C 
ATOM      5  C   UNL     1      59.519 -46.901  60.241  0.00  0.00    +0.000 C 
ATOM      6  C   UNL     1      60.694 -46.403  59.531  0.00  0.00    +0.000 C 
ATOM      7  C   UNL     1      60.351 -47.879  62.244  0.00  0.00    +0.000 C 
ATOM      8  C   UNL     1      61.883 -46.708  60.452  0.00  0.00    +0.000 C 
ATOM      9  C   UNL     1      61.559 -47.403  61.654  0.00  0.00    +0.000 C 
ATOM     10  C   UNL     1      58.118 -46.702  62.265  0.00  0.00    +0.000 C 
ATOM     11  C   UNL     1      60.597 -44.913  59.186  0.00  0.00    +0.000 C 
ENDROOT
BRANCH   4  13
ATOM     12 CL   UNL     1      57.136 -51.442  60.346  0.00  0.00    +0.000 Cl
ATOM     13  C   UNL     1      58.415 -48.882  61.068  0.00  0.00    +0.000 C 
ATOM     14  C   UNL     1      57.893 -49.921  60.770  0.00  0.00    +0.000 C 
ENDBRANCH   4  13
TORSDOF 1
ENDMDL
MODEL 2
REMARK VINA RESULT:      -4.5     14.588     15.563
REMARK  Name = 21574552_Mertensene.pdbqt.pdb
REMARK  1 active torsions:
REMARK  status: ('A' for Active; 'I' for Inactive)
REMARK    1  A    between atoms: C_4  and  C_13
REMARK                            x       y       z     vdW  Elec       q    Type
REMARK                         _______ _______ _______ _____ _____    ______ ____
ROOT
ATOM      1 BR   UNL     1      48.038 -49.145  49.478  0.00  0.00    +0.000 Br
ATOM      2 CL   UNL     1      51.539 -44.744  47.548  0.00  0.00    +0.000 Cl
ATOM      3 CL   UNL     1      51.480 -47.520  45.575  0.00  0.00    +0.000 Cl
ATOM      4  C   UNL     1      50.174 -47.181  50.195  0.00  0.00    +0.000 C 
ATOM      5  C   UNL     1      51.234 -46.494  49.449  0.00  0.00    +0.000 C 
ATOM      6  C   UNL     1      51.897 -46.379  48.153  0.00  0.00    +0.000 C 
ATOM      7  C   UNL     1      49.590 -48.193  49.176  0.00  0.00    +0.000 C 
ATOM      8  C   UNL     1      51.245 -47.449  47.268  0.00  0.00    +0.000 C 
ATOM      9  C   UNL     1      50.191 -48.187  47.883  0.00  0.00    +0.000 C 
ATOM     10  C   UNL     1      50.778 -47.951  51.390  0.00  0.00    +0.000 C 
ATOM     11  C   UNL     1      53.417 -46.552  48.243  0.00  0.00    +0.000 C 
ENDROOT
BRANCH   4  13
ATOM     12 CL   UNL     1      47.064 -44.310  51.476  0.00  0.00    +0.000 Cl
ATOM     13  C   UNL     1      49.136 -46.226  50.614  0.00  0.00    +0.000 C 
ATOM     14  C   UNL     1      48.291 -45.447  50.960  0.00  0.00    +0.000 C 
ENDBRANCH   4  13
TORSDOF 1
ENDMDL
MODEL 3
REMARK VINA RESULT:      -4.5     14.685     16.257
REMARK  Name = 21574552_Mertensene.pdbqt.pdb
REMARK  1 active torsions:
REMARK  status: ('A' for Active; 'I' for Inactive)
REMARK    1  A    between atoms: C_4  and  C_13
REMARK                            x       y       z     vdW  Elec       q    Type
REMARK                         _______ _______ _______ _____ _____    ______ ____
ROOT
ATOM      1 BR   UNL     1      50.904 -47.947  51.323  0.00  0.00    +0.000 Br
ATOM      2 CL   UNL     1      45.217 -46.836  52.656  0.00  0.00    +0.000 Cl
ATOM      3 CL   UNL     1      46.570 -49.541  54.221  0.00  0.00    +0.000 Cl
ATOM      4  C   UNL     1      48.180 -47.345  50.253  0.00  0.00    +0.000 C 
ATOM      5  C   UNL     1      46.811 -47.566  50.733  0.00  0.00    +0.000 C 
ATOM      6  C   UNL     1      46.002 -48.176  51.785  0.00  0.00    +0.000 C 
ATOM      7  C   UNL     1      49.066 -48.106  51.271  0.00  0.00    +0.000 C 
ATOM      8  C   UNL     1      47.000 -48.911  52.690  0.00  0.00    +0.000 C 
ATOM      9  C   UNL     1      48.370 -48.768  52.326  0.00  0.00    +0.000 C 
ATOM     10  C   UNL     1      48.358 -47.971  48.852  0.00  0.00    +0.000 C 
ATOM     11  C   UNL     1      44.919 -49.113  51.239  0.00  0.00    +0.000 C 
ENDROOT
BRANCH   4  13
ATOM     12 CL   UNL     1      49.166 -43.033  50.275  0.00  0.00    +0.000 Cl
ATOM     13  C   UNL     1      48.506 -45.910  50.268  0.00  0.00    +0.000 C 
ATOM     14  C   UNL     1      48.773 -44.740  50.276  0.00  0.00    +0.000 C 
ENDBRANCH   4  13
TORSDOF 1
ENDMDL
MODEL 4
REMARK VINA RESULT:      -4.3      3.190      5.666
REMARK  Name = 21574552_Mertensene.pdbqt.pdb
REMARK  1 active torsions:
REMARK  status: ('A' for Active; 'I' for Inactive)
REMARK    1  A    between atoms: C_4  and  C_13
REMARK                            x       y       z     vdW  Elec       q    Type
REMARK                         _______ _______ _______ _____ _____    ______ ____
ROOT
ATOM      1 BR   UNL     1      64.839 -46.006  61.503  0.00  0.00    +0.000 Br
ATOM      2 CL   UNL     1      59.828 -44.967  58.475  0.00  0.00    +0.000 Cl
ATOM      3 CL   UNL     1      59.392 -45.903  61.721  0.00  0.00    +0.000 Cl
ATOM      4  C   UNL     1      63.306 -46.531  58.992  0.00  0.00    +0.000 C 
ATOM      5  C   UNL     1      61.882 -46.556  58.639  0.00  0.00    +0.000 C 
ATOM      6  C   UNL     1      60.523 -46.455  59.164  0.00  0.00    +0.000 C 
ATOM      7  C   UNL     1      63.311 -46.372  60.533  0.00  0.00    +0.000 C 
ATOM      8  C   UNL     1      60.683 -46.334  60.685  0.00  0.00    +0.000 C 
ATOM      9  C   UNL     1      62.029 -46.296  61.153  0.00  0.00    +0.000 C 
ATOM     10  C   UNL     1      63.970 -47.874  58.614  0.00  0.00    +0.000 C 
ATOM     11  C   UNL     1      59.640 -47.643  58.768  0.00  0.00    +0.000 C 
ENDROOT
BRANCH   4  13
ATOM     12 CL   UNL     1      65.295 -43.070  57.088  0.00  0.00    +0.000 Cl
ATOM     13  C   UNL     1      63.974 -45.382  58.360  0.00  0.00    +0.000 C 
ATOM     14  C   UNL     1      64.516 -44.444  57.844  0.00  0.00    +0.000 C 
ENDBRANCH   4  13
TORSDOF 1
ENDMDL
MODEL 5
REMARK VINA RESULT:      -4.2     14.545     16.115
REMARK  Name = 21574552_Mertensene.pdbqt.pdb
REMARK  1 active torsions:
REMARK  status: ('A' for Active; 'I' for Inactive)
REMARK    1  A    between atoms: C_4  and  C_13
REMARK                            x       y       z     vdW  Elec       q    Type
REMARK                         _______ _______ _______ _____ _____    ______ ____
ROOT
ATOM      1 BR   UNL     1      49.509 -44.985  49.795  0.00  0.00    +0.000 Br
ATOM      2 CL   UNL     1      46.035 -49.652  51.021  0.00  0.00    +0.000 Cl
ATOM      3 CL   UNL     1      45.164 -46.749  52.575  0.00  0.00    +0.000 Cl
ATOM      4  C   UNL     1      49.415 -47.859  50.610  0.00  0.00    +0.000 C 
ATOM      5  C   UNL     1      48.439 -48.699  51.312  0.00  0.00    +0.000 C 
ATOM      6  C   UNL     1      47.162 -48.704  52.021  0.00  0.00    +0.000 C 
ATOM      7  C   UNL     1      48.837 -46.426  50.733  0.00  0.00    +0.000 C 
ATOM      8  C   UNL     1      46.732 -47.233  52.092  0.00  0.00    +0.000 C 
ATOM      9  C   UNL     1      47.604 -46.313  51.440  0.00  0.00    +0.000 C 
ATOM     10  C   UNL     1      50.782 -47.921  51.328  0.00  0.00    +0.000 C 
ATOM     11  C   UNL     1      47.252 -49.347  53.409  0.00  0.00    +0.000 C 
ENDROOT
BRANCH   4  13
ATOM     12 CL   UNL     1      49.713 -49.049  46.361  0.00  0.00    +0.000 Cl
ATOM     13  C   UNL     1      49.510 -48.249  49.195  0.00  0.00    +0.000 C 
ATOM     14  C   UNL     1      49.589 -48.570  48.041  0.00  0.00    +0.000 C 
ENDBRANCH   4  13
TORSDOF 1
ENDMDL
MODEL 6
REMARK VINA RESULT:      -4.1     13.398     15.044
REMARK  Name = 21574552_Mertensene.pdbqt.pdb
REMARK  1 active torsions:
REMARK  status: ('A' for Active; 'I' for Inactive)
REMARK    1  A    between atoms: C_4  and  C_13
REMARK                            x       y       z     vdW  Elec       q    Type
REMARK                         _______ _______ _______ _____ _____    ______ ____
ROOT
ATOM      1 BR   UNL     1      44.968 -54.437  54.821  0.00  0.00    +0.000 Br
ATOM      2 CL   UNL     1      50.814 -53.754  53.971  0.00  0.00    +0.000 Cl
ATOM      3 CL   UNL     1      49.654 -56.933  53.583  0.00  0.00    +0.000 Cl
ATOM      4  C   UNL     1      47.513 -53.297  55.897  0.00  0.00    +0.000 C 
ATOM      5  C   UNL     1      48.933 -53.641  55.766  0.00  0.00    +0.000 C 
ATOM      6  C   UNL     1      49.878 -54.612  55.221  0.00  0.00    +0.000 C 
ATOM      7  C   UNL     1      46.774 -54.469  55.203  0.00  0.00    +0.000 C 
ATOM      8  C   UNL     1      49.012 -55.716  54.599  0.00  0.00    +0.000 C 
ATOM      9  C   UNL     1      47.606 -55.493  54.661  0.00  0.00    +0.000 C 
ATOM     10  C   UNL     1      47.112 -53.252  57.388  0.00  0.00    +0.000 C 
ATOM     11  C   UNL     1      50.846 -55.161  56.274  0.00  0.00    +0.000 C 
ENDROOT
BRANCH   4  13
ATOM     12 CL   UNL     1      46.637 -49.484  53.833  0.00  0.00    +0.000 Cl
ATOM     13  C   UNL     1      47.223 -52.032  55.204  0.00  0.00    +0.000 C 
ATOM     14  C   UNL     1      46.986 -50.998  54.642  0.00  0.00    +0.000 C 
ENDBRANCH   4  13
TORSDOF 1
ENDMDL
MODEL 7
REMARK VINA RESULT:      -4.0     15.658     16.958
REMARK  Name = 21574552_Mertensene.pdbqt.pdb
REMARK  1 active torsions:
REMARK  status: ('A' for Active; 'I' for Inactive)
REMARK    1  A    between atoms: C_4  and  C_13
REMARK                            x       y       z     vdW  Elec       q    Type
REMARK                         _______ _______ _______ _____ _____    ______ ____
ROOT
ATOM      1 BR   UNL     1      50.526 -44.627  47.328  0.00  0.00    +0.000 Br
ATOM      2 CL   UNL     1      48.005 -44.005  52.677  0.00  0.00    +0.000 Cl
ATOM      3 CL   UNL     1      49.165 -47.130  51.976  0.00  0.00    +0.000 Cl
ATOM      4  C   UNL     1      48.167 -43.607  48.853  0.00  0.00    +0.000 C 
ATOM      5  C   UNL     1      47.523 -43.970  50.120  0.00  0.00    +0.000 C 
ATOM      6  C   UNL     1      47.526 -44.922  51.228  0.00  0.00    +0.000 C 
ATOM      7  C   UNL     1      49.224 -44.718  48.634  0.00  0.00    +0.000 C 
ATOM      8  C   UNL     1      48.588 -45.968  50.862  0.00  0.00    +0.000 C 
ATOM      9  C   UNL     1      49.289 -45.721  49.645  0.00  0.00    +0.000 C 
ATOM     10  C   UNL     1      47.135 -43.650  47.703  0.00  0.00    +0.000 C 
ATOM     11  C   UNL     1      46.152 -45.555  51.475  0.00  0.00    +0.000 C 
ENDROOT
BRANCH   4  13
ATOM     12 CL   UNL     1      50.159 -39.673  49.194  0.00  0.00    +0.000 Cl
ATOM     13  C   UNL     1      48.823 -42.295  48.964  0.00  0.00    +0.000 C 
ATOM     14  C   UNL     1      49.362 -41.227  49.056  0.00  0.00    +0.000 C 
ENDBRANCH   4  13
TORSDOF 1
ENDMDL
MODEL 8
REMARK VINA RESULT:      -3.8     14.354     15.639
REMARK  Name = 21574552_Mertensene.pdbqt.pdb
REMARK  1 active torsions:
REMARK  status: ('A' for Active; 'I' for Inactive)
REMARK    1  A    between atoms: C_4  and  C_13
REMARK                            x       y       z     vdW  Elec       q    Type
REMARK                         _______ _______ _______ _____ _____    ______ ____
ROOT
ATOM      1 BR   UNL     1      48.379 -56.320  56.130  0.00  0.00    +0.000 Br
ATOM      2 CL   UNL     1      44.816 -52.029  54.068  0.00  0.00    +0.000 Cl
ATOM      3 CL   UNL     1      47.134 -53.178  51.852  0.00  0.00    +0.000 Cl
ATOM      4  C   UNL     1      47.188 -53.628  56.643  0.00  0.00    +0.000 C 
ATOM      5  C   UNL     1      46.698 -52.538  55.792  0.00  0.00    +0.000 C 
ATOM      6  C   UNL     1      46.562 -52.071  54.415  0.00  0.00    +0.000 C 
ATOM      7  C   UNL     1      47.837 -54.623  55.648  0.00  0.00    +0.000 C 
ATOM      8  C   UNL     1      47.269 -53.128  53.556  0.00  0.00    +0.000 C 
ATOM      9  C   UNL     1      47.788 -54.245  54.274  0.00  0.00    +0.000 C 
ATOM     10  C   UNL     1      48.267 -53.099  57.614  0.00  0.00    +0.000 C 
ATOM     11  C   UNL     1      47.143 -50.669  54.200  0.00  0.00    +0.000 C 
ENDROOT
BRANCH   4  13
ATOM     12 CL   UNL     1      43.814 -55.559  58.753  0.00  0.00    +0.000 Cl
ATOM     13  C   UNL     1      46.070 -54.273  57.351  0.00  0.00    +0.000 C 
ATOM     14  C   UNL     1      45.156 -54.798  57.925  0.00  0.00    +0.000 C 
ENDBRANCH   4  13
TORSDOF 1
ENDMDL
MODEL 9
REMARK VINA RESULT:      -3.8     15.679     16.514
REMARK  Name = 21574552_Mertensene.pdbqt.pdb
REMARK  1 active torsions:
REMARK  status: ('A' for Active; 'I' for Inactive)
REMARK    1  A    between atoms: C_4  and  C_13
REMARK                            x       y       z     vdW  Elec       q    Type
REMARK                         _______ _______ _______ _____ _____    ______ ____
ROOT
ATOM      1 BR   UNL     1      48.614 -47.692  51.574  0.00  0.00    +0.000 Br
ATOM      2 CL   UNL     1      47.087 -43.266  47.908  0.00  0.00    +0.000 Cl
ATOM      3 CL   UNL     1      50.139 -44.657  47.310  0.00  0.00    +0.000 Cl
ATOM      4  C   UNL     1      47.548 -44.908  51.358  0.00  0.00    +0.000 C 
ATOM      5  C   UNL     1      47.685 -43.825  50.378  0.00  0.00    +0.000 C 
ATOM      6  C   UNL     1      48.355 -43.408  49.150  0.00  0.00    +0.000 C 
ATOM      7  C   UNL     1      48.553 -45.984  50.876  0.00  0.00    +0.000 C 
ATOM      8  C   UNL     1      49.331 -44.545  48.814  0.00  0.00    +0.000 C 
ATOM      9  C   UNL     1      49.288 -45.662  49.697  0.00  0.00    +0.000 C 
ATOM     10  C   UNL     1      47.964 -44.411  52.761  0.00  0.00    +0.000 C 
ATOM     11  C   UNL     1      49.067 -42.058  49.286  0.00  0.00    +0.000 C 
ENDROOT
BRANCH   4  13
ATOM     12 CL   UNL     1      43.440 -46.546  51.295  0.00  0.00    +0.000 Cl
ATOM     13  C   UNL     1      46.179 -45.448  51.342  0.00  0.00    +0.000 C 
ATOM     14  C   UNL     1      45.064 -45.891  51.327  0.00  0.00    +0.000 C 
ENDBRANCH   4  13
TORSDOF 1
ENDMDL
