MODEL 1
REMARK VINA RESULT:      -7.6      0.000      0.000
REMARK  Name = 222284_BetaSitosterol.pdbqt.pdb
REMARK  5 active torsions:
REMARK  status: ('A' for Active; 'I' for Inactive)
REMARK    1  A    between atoms: C_5  and  C_22
REMARK    2  A    between atoms: C_19  and  O_20
REMARK    3  A    between atoms: C_22  and  C_24
REMARK    4  A    between atoms: C_25  and  C_26
REMARK    5  A    between atoms: C_26  and  C_30
REMARK                            x       y       z     vdW  Elec       q    Type
REMARK                         _______ _______ _______ _____ _____    ______ ____
ROOT
ATOM      1  C   UNL     1      46.619 -50.781  51.849  0.00  0.00    +0.000 C 
ATOM      2  C   UNL     1      46.104 -49.253  51.891  0.00  0.00    +0.000 C 
ATOM      3  C   UNL     1      44.780 -48.858  51.368  0.00  0.00    +0.000 C 
ATOM      4  C   UNL     1      43.653 -49.795  51.014  0.00  0.00    +0.000 C 
ATOM      5  C   UNL     1      47.261 -50.980  53.214  0.00  0.00    +0.000 C 
ATOM      6  C   UNL     1      45.413 -51.584  51.642  0.00  0.00    +0.000 C 
ATOM      7  C   UNL     1      42.308 -49.330  50.394  0.00  0.00    +0.000 C 
ATOM      8  C   UNL     1      46.590 -48.678  53.108  0.00  0.00    +0.000 C 
ATOM      9  C   UNL     1      44.027 -51.150  51.230  0.00  0.00    +0.000 C 
ATOM     10  C   UNL     1      47.259 -49.748  53.928  0.00  0.00    +0.000 C 
ATOM     11  C   UNL     1      44.406 -47.495  51.278  0.00  0.00    +0.000 C 
ATOM     12  C   UNL     1      47.661 -50.909  50.708  0.00  0.00    +0.000 C 
ATOM     13  C   UNL     1      42.017 -47.711  50.557  0.00  0.00    +0.000 C 
ATOM     14  C   UNL     1      41.162 -49.973  51.102  0.00  0.00    +0.000 C 
ATOM     15  C   UNL     1      43.051 -46.994  50.880  0.00  0.00    +0.000 C 
ATOM     16  C   UNL     1      42.316 -49.643  48.869  0.00  0.00    +0.000 C 
ATOM     17  C   UNL     1      40.749 -47.367  51.156  0.00  0.00    +0.000 C 
ATOM     18  C   UNL     1      39.877 -49.447  51.765  0.00  0.00    +0.000 C 
ATOM     19  C   UNL     1      39.644 -48.040  51.769  0.00  0.00    +0.000 C 
ENDROOT
BRANCH  19  20
ATOM     20  O   UNL     1      38.379 -47.530  51.741  0.00  0.00    +0.000 OA
ATOM     21  H   UNL     1      38.387 -46.558  51.721  0.00  0.00    +0.000 HD
ENDBRANCH  19  20
BRANCH   5  22
ATOM     22  C   UNL     1      47.737 -52.231  53.717  0.00  0.00    +0.000 C 
ATOM     23  C   UNL     1      48.964 -52.911  53.164  0.00  0.00    +0.000 C 
BRANCH  22  24
ATOM     24  C   UNL     1      47.095 -52.910  54.788  0.00  0.00    +0.000 C 
ATOM     25  C   UNL     1      46.380 -53.623  55.945  0.00  0.00    +0.000 C 
BRANCH  25  26
ATOM     26  C   UNL     1      45.712 -54.270  57.029  0.00  0.00    +0.000 C 
ATOM     27  C   UNL     1      44.306 -54.597  56.937  0.00  0.00    +0.000 C 
ATOM     28  C   UNL     1      43.480 -54.294  55.701  0.00  0.00    +0.000 C 
ATOM     29  C   UNL     1      43.521 -55.237  58.060  0.00  0.00    +0.000 C 
BRANCH  26  30
ATOM     30  C   UNL     1      46.431 -54.604  58.207  0.00  0.00    +0.000 C 
ATOM     31  C   UNL     1      47.177 -55.010  59.484  0.00  0.00    +0.000 C 
ENDBRANCH  26  30
ENDBRANCH  25  26
ENDBRANCH  22  24
ENDBRANCH   5  22
TORSDOF 5
ENDMDL
MODEL 2
REMARK VINA RESULT:      -7.6      4.791      6.522
REMARK  Name = 222284_BetaSitosterol.pdbqt.pdb
REMARK  5 active torsions:
REMARK  status: ('A' for Active; 'I' for Inactive)
REMARK    1  A    between atoms: C_5  and  C_22
REMARK    2  A    between atoms: C_19  and  O_20
REMARK    3  A    between atoms: C_22  and  C_24
REMARK    4  A    between atoms: C_25  and  C_26
REMARK    5  A    between atoms: C_26  and  C_30
REMARK                            x       y       z     vdW  Elec       q    Type
REMARK                         _______ _______ _______ _____ _____    ______ ____
ROOT
ATOM      1  C   UNL     1      47.701 -47.684  51.459  0.00  0.00    +0.000 C 
ATOM      2  C   UNL     1      47.634 -46.164  51.992  0.00  0.00    +0.000 C 
ATOM      3  C   UNL     1      48.029 -45.018  51.147  0.00  0.00    +0.000 C 
ATOM      4  C   UNL     1      48.253 -45.055  49.656  0.00  0.00    +0.000 C 
ATOM      5  C   UNL     1      46.404 -48.299  51.963  0.00  0.00    +0.000 C 
ATOM      6  C   UNL     1      47.773 -47.573  50.001  0.00  0.00    +0.000 C 
ATOM      7  C   UNL     1      48.743 -43.835  48.829  0.00  0.00    +0.000 C 
ATOM      8  C   UNL     1      46.482 -46.064  52.835  0.00  0.00    +0.000 C 
ATOM      9  C   UNL     1      48.052 -46.364  49.141  0.00  0.00    +0.000 C 
ATOM     10  C   UNL     1      45.714 -47.357  52.779  0.00  0.00    +0.000 C 
ATOM     11  C   UNL     1      48.104 -43.708  51.680  0.00  0.00    +0.000 C 
ATOM     12  C   UNL     1      48.938 -48.367  52.096  0.00  0.00    +0.000 C 
ATOM     13  C   UNL     1      48.580 -42.387  49.605  0.00  0.00    +0.000 C 
ATOM     14  C   UNL     1      47.913 -43.679  47.598  0.00  0.00    +0.000 C 
ATOM     15  C   UNL     1      48.373 -42.466  50.885  0.00  0.00    +0.000 C 
ATOM     16  C   UNL     1      50.255 -44.016  48.507  0.00  0.00    +0.000 C 
ATOM     17  C   UNL     1      47.863 -41.369  48.872  0.00  0.00    +0.000 C 
ATOM     18  C   UNL     1      47.135 -42.510  46.970  0.00  0.00    +0.000 C 
ATOM     19  C   UNL     1      47.131 -41.256  47.648  0.00  0.00    +0.000 C 
ENDROOT
BRANCH  19  20
ATOM     20  O   UNL     1      47.041 -40.079  46.964  0.00  0.00    +0.000 OA
ATOM     21  H   UNL     1      46.537 -39.414  47.463  0.00  0.00    +0.000 HD
ENDBRANCH  19  20
BRANCH   5  22
ATOM     22  C   UNL     1      45.929 -49.602  51.616  0.00  0.00    +0.000 C 
ATOM     23  C   UNL     1      45.702 -50.026  50.186  0.00  0.00    +0.000 C 
BRANCH  22  24
ATOM     24  C   UNL     1      45.658 -50.595  52.596  0.00  0.00    +0.000 C 
ATOM     25  C   UNL     1      45.355 -51.647  53.672  0.00  0.00    +0.000 C 
BRANCH  25  26
ATOM     26  C   UNL     1      45.081 -52.614  54.687  0.00  0.00    +0.000 C 
ATOM     27  C   UNL     1      46.122 -53.043  55.596  0.00  0.00    +0.000 C 
ATOM     28  C   UNL     1      47.532 -52.487  55.537  0.00  0.00    +0.000 C 
ATOM     29  C   UNL     1      45.919 -54.095  56.663  0.00  0.00    +0.000 C 
BRANCH  26  30
ATOM     30  C   UNL     1      43.775 -53.157  54.814  0.00  0.00    +0.000 C 
ATOM     31  C   UNL     1      42.364 -53.727  55.004  0.00  0.00    +0.000 C 
ENDBRANCH  26  30
ENDBRANCH  25  26
ENDBRANCH  22  24
ENDBRANCH   5  22
TORSDOF 5
ENDMDL
MODEL 3
REMARK VINA RESULT:      -7.5      3.970      5.766
REMARK  Name = 222284_BetaSitosterol.pdbqt.pdb
REMARK  5 active torsions:
REMARK  status: ('A' for Active; 'I' for Inactive)
REMARK    1  A    between atoms: C_5  and  C_22
REMARK    2  A    between atoms: C_19  and  O_20
REMARK    3  A    between atoms: C_22  and  C_24
REMARK    4  A    between atoms: C_25  and  C_26
REMARK    5  A    between atoms: C_26  and  C_30
REMARK                            x       y       z     vdW  Elec       q    Type
REMARK                         _______ _______ _______ _____ _____    ______ ____
ROOT
ATOM      1  C   UNL     1      46.375 -52.390  54.306  0.00  0.00    +0.000 C 
ATOM      2  C   UNL     1      47.024 -52.511  52.835  0.00  0.00    +0.000 C 
ATOM      3  C   UNL     1      47.401 -51.321  52.045  0.00  0.00    +0.000 C 
ATOM      4  C   UNL     1      47.514 -49.911  52.567  0.00  0.00    +0.000 C 
ATOM      5  C   UNL     1      47.093 -53.467  55.105  0.00  0.00    +0.000 C 
ATOM      6  C   UNL     1      46.680 -51.027  54.746  0.00  0.00    +0.000 C 
ATOM      7  C   UNL     1      47.840 -48.684  51.673  0.00  0.00    +0.000 C 
ATOM      8  C   UNL     1      47.877 -53.659  52.845  0.00  0.00    +0.000 C 
ATOM      9  C   UNL     1      47.189 -49.850  53.950  0.00  0.00    +0.000 C 
ATOM     10  C   UNL     1      47.947 -54.212  54.243  0.00  0.00    +0.000 C 
ATOM     11  C   UNL     1      47.831 -51.442  50.700  0.00  0.00    +0.000 C 
ATOM     12  C   UNL     1      44.858 -52.685  54.191  0.00  0.00    +0.000 C 
ATOM     13  C   UNL     1      48.486 -49.076  50.204  0.00  0.00    +0.000 C 
ATOM     14  C   UNL     1      48.891 -47.841  52.314  0.00  0.00    +0.000 C 
ATOM     15  C   UNL     1      48.350 -50.319  49.854  0.00  0.00    +0.000 C 
ATOM     16  C   UNL     1      46.528 -47.892  51.401  0.00  0.00    +0.000 C 
ATOM     17  C   UNL     1      49.733 -48.421  49.882  0.00  0.00    +0.000 C 
ATOM     18  C   UNL     1      50.239 -47.265  51.847  0.00  0.00    +0.000 C 
ATOM     19  C   UNL     1      50.679 -47.559  50.523  0.00  0.00    +0.000 C 
ENDROOT
BRANCH  19  20
ATOM     20  O   UNL     1      51.452 -46.682  49.820  0.00  0.00    +0.000 OA
ATOM     21  H   UNL     1      50.911 -46.097  49.263  0.00  0.00    +0.000 HD
ENDBRANCH  19  20
BRANCH   5  22
ATOM     22  C   UNL     1      46.969 -53.655  56.517  0.00  0.00    +0.000 C 
ATOM     23  C   UNL     1      48.019 -53.183  57.491  0.00  0.00    +0.000 C 
BRANCH  22  24
ATOM     24  C   UNL     1      45.837 -54.285  57.100  0.00  0.00    +0.000 C 
ATOM     25  C   UNL     1      44.617 -54.989  57.715  0.00  0.00    +0.000 C 
BRANCH  25  26
ATOM     26  C   UNL     1      43.478 -55.649  58.268  0.00  0.00    +0.000 C 
ATOM     27  C   UNL     1      42.269 -55.808  57.490  0.00  0.00    +0.000 C 
ATOM     28  C   UNL     1      42.150 -55.309  56.062  0.00  0.00    +0.000 C 
ATOM     29  C   UNL     1      41.010 -56.453  58.024  0.00  0.00    +0.000 C 
BRANCH  26  30
ATOM     30  C   UNL     1      43.531 -56.163  59.591  0.00  0.00    +0.000 C 
ATOM     31  C   UNL     1      43.576 -56.767  60.999  0.00  0.00    +0.000 C 
ENDBRANCH  26  30
ENDBRANCH  25  26
ENDBRANCH  22  24
ENDBRANCH   5  22
TORSDOF 5
ENDMDL
MODEL 4
REMARK VINA RESULT:      -7.4      2.008      3.361
REMARK  Name = 222284_BetaSitosterol.pdbqt.pdb
REMARK  5 active torsions:
REMARK  status: ('A' for Active; 'I' for Inactive)
REMARK    1  A    between atoms: C_5  and  C_22
REMARK    2  A    between atoms: C_19  and  O_20
REMARK    3  A    between atoms: C_22  and  C_24
REMARK    4  A    between atoms: C_25  and  C_26
REMARK    5  A    between atoms: C_26  and  C_30
REMARK                            x       y       z     vdW  Elec       q    Type
REMARK                         _______ _______ _______ _____ _____    ______ ____
ROOT
ATOM      1  C   UNL     1      46.194 -51.246  52.524  0.00  0.00    +0.000 C 
ATOM      2  C   UNL     1      46.103 -49.664  52.225  0.00  0.00    +0.000 C 
ATOM      3  C   UNL     1      44.992 -49.076  51.448  0.00  0.00    +0.000 C 
ATOM      4  C   UNL     1      43.699 -49.765  51.092  0.00  0.00    +0.000 C 
ATOM      5  C   UNL     1      46.617 -51.312  53.984  0.00  0.00    +0.000 C 
ATOM      6  C   UNL     1      44.845 -51.758  52.277  0.00  0.00    +0.000 C 
ATOM      7  C   UNL     1      42.597 -49.125  50.205  0.00  0.00    +0.000 C 
ATOM      8  C   UNL     1      46.597 -48.987  53.385  0.00  0.00    +0.000 C 
ATOM      9  C   UNL     1      43.675 -51.096  51.591  0.00  0.00    +0.000 C 
ATOM     10  C   UNL     1      46.869 -49.996  54.468  0.00  0.00    +0.000 C 
ATOM     11  C   UNL     1      45.006 -47.711  51.070  0.00  0.00    +0.000 C 
ATOM     12  C   UNL     1      47.275 -51.852  51.592  0.00  0.00    +0.000 C 
ATOM     13  C   UNL     1      42.732 -47.487  50.043  0.00  0.00    +0.000 C 
ATOM     14  C   UNL     1      41.255 -49.314  50.832  0.00  0.00    +0.000 C 
ATOM     15  C   UNL     1      43.881 -46.990  50.392  0.00  0.00    +0.000 C 
ATOM     16  C   UNL     1      42.677 -49.736  48.776  0.00  0.00    +0.000 C 
ATOM     17  C   UNL     1      41.546 -46.731  50.375  0.00  0.00    +0.000 C 
ATOM     18  C   UNL     1      40.096 -48.369  51.192  0.00  0.00    +0.000 C 
ATOM     19  C   UNL     1      40.246 -46.977  50.920  0.00  0.00    +0.000 C 
ENDROOT
BRANCH  19  20
ATOM     20  O   UNL     1      39.173 -46.194  50.614  0.00  0.00    +0.000 OA
ATOM     21  H   UNL     1      38.535 -46.160  51.347  0.00  0.00    +0.000 HD
ENDBRANCH  19  20
BRANCH   5  22
ATOM     22  C   UNL     1      46.688 -52.510  54.760  0.00  0.00    +0.000 C 
ATOM     23  C   UNL     1      45.478 -53.113  55.429  0.00  0.00    +0.000 C 
BRANCH  22  24
ATOM     24  C   UNL     1      47.902 -53.226  54.938  0.00  0.00    +0.000 C 
ATOM     25  C   UNL     1      49.204 -54.013  55.153  0.00  0.00    +0.000 C 
BRANCH  25  26
ATOM     26  C   UNL     1      50.413 -54.740  55.372  0.00  0.00    +0.000 C 
ATOM     27  C   UNL     1      50.737 -55.251  56.686  0.00  0.00    +0.000 C 
ATOM     28  C   UNL     1      49.820 -55.064  57.880  0.00  0.00    +0.000 C 
ATOM     29  C   UNL     1      52.019 -55.988  57.004  0.00  0.00    +0.000 C 
BRANCH  26  30
ATOM     30  C   UNL     1      51.306 -54.973  54.292  0.00  0.00    +0.000 C 
ATOM     31  C   UNL     1      52.280 -55.274  53.147  0.00  0.00    +0.000 C 
ENDBRANCH  26  30
ENDBRANCH  25  26
ENDBRANCH  22  24
ENDBRANCH   5  22
TORSDOF 5
ENDMDL
MODEL 5
REMARK VINA RESULT:      -7.3      1.242      2.182
REMARK  Name = 222284_BetaSitosterol.pdbqt.pdb
REMARK  5 active torsions:
REMARK  status: ('A' for Active; 'I' for Inactive)
REMARK    1  A    between atoms: C_5  and  C_22
REMARK    2  A    between atoms: C_19  and  O_20
REMARK    3  A    between atoms: C_22  and  C_24
REMARK    4  A    between atoms: C_25  and  C_26
REMARK    5  A    between atoms: C_26  and  C_30
REMARK                            x       y       z     vdW  Elec       q    Type
REMARK                         _______ _______ _______ _____ _____    ______ ____
ROOT
ATOM      1  C   UNL     1      46.302 -51.443  52.588  0.00  0.00    +0.000 C 
ATOM      2  C   UNL     1      46.178 -49.860  52.305  0.00  0.00    +0.000 C 
ATOM      3  C   UNL     1      45.045 -49.285  51.551  0.00  0.00    +0.000 C 
ATOM      4  C   UNL     1      43.759 -49.994  51.209  0.00  0.00    +0.000 C 
ATOM      5  C   UNL     1      46.748 -51.514  54.040  0.00  0.00    +0.000 C 
ATOM      6  C   UNL     1      44.959 -51.977  52.356  0.00  0.00    +0.000 C 
ATOM      7  C   UNL     1      42.632 -49.366  50.345  0.00  0.00    +0.000 C 
ATOM      8  C   UNL     1      46.678 -49.185  53.464  0.00  0.00    +0.000 C 
ATOM      9  C   UNL     1      43.767 -51.330  51.695  0.00  0.00    +0.000 C 
ATOM     10  C   UNL     1      46.985 -50.199  54.533  0.00  0.00    +0.000 C 
ATOM     11  C   UNL     1      45.028 -47.916  51.186  0.00  0.00    +0.000 C 
ATOM     12  C   UNL     1      47.379 -52.021  51.634  0.00  0.00    +0.000 C 
ATOM     13  C   UNL     1      42.735 -47.724  50.196  0.00  0.00    +0.000 C 
ATOM     14  C   UNL     1      41.304 -49.585  50.990  0.00  0.00    +0.000 C 
ATOM     15  C   UNL     1      43.880 -47.210  50.532  0.00  0.00    +0.000 C 
ATOM     16  C   UNL     1      42.700 -49.962  48.909  0.00  0.00    +0.000 C 
ATOM     17  C   UNL     1      41.541 -46.993  50.554  0.00  0.00    +0.000 C 
ATOM     18  C   UNL     1      40.133 -48.664  51.377  0.00  0.00    +0.000 C 
ATOM     19  C   UNL     1      40.254 -47.268  51.116  0.00  0.00    +0.000 C 
ENDROOT
BRANCH  19  20
ATOM     20  O   UNL     1      39.162 -46.501  50.834  0.00  0.00    +0.000 OA
ATOM     21  H   UNL     1      39.230 -45.620  51.241  0.00  0.00    +0.000 HD
ENDBRANCH  19  20
BRANCH   5  22
ATOM     22  C   UNL     1      46.853 -52.718  54.804  0.00  0.00    +0.000 C 
ATOM     23  C   UNL     1      48.175 -53.251  55.295  0.00  0.00    +0.000 C 
BRANCH  22  24
ATOM     24  C   UNL     1      45.714 -53.485  55.168  0.00  0.00    +0.000 C 
ATOM     25  C   UNL     1      44.481 -54.299  55.587  0.00  0.00    +0.000 C 
BRANCH  25  26
ATOM     26  C   UNL     1      43.341 -55.058  55.994  0.00  0.00    +0.000 C 
ATOM     27  C   UNL     1      43.109 -55.345  57.393  0.00  0.00    +0.000 C 
ATOM     28  C   UNL     1      44.035 -54.850  58.489  0.00  0.00    +0.000 C 
ATOM     29  C   UNL     1      41.952 -56.180  57.895  0.00  0.00    +0.000 C 
BRANCH  26  30
ATOM     30  C   UNL     1      42.420 -55.531  55.022  0.00  0.00    +0.000 C 
ATOM     31  C   UNL     1      41.461 -56.082  53.961  0.00  0.00    +0.000 C 
ENDBRANCH  26  30
ENDBRANCH  25  26
ENDBRANCH  22  24
ENDBRANCH   5  22
TORSDOF 5
ENDMDL
MODEL 6
REMARK VINA RESULT:      -7.2      5.144      9.300
REMARK  Name = 222284_BetaSitosterol.pdbqt.pdb
REMARK  5 active torsions:
REMARK  status: ('A' for Active; 'I' for Inactive)
REMARK    1  A    between atoms: C_5  and  C_22
REMARK    2  A    between atoms: C_19  and  O_20
REMARK    3  A    between atoms: C_22  and  C_24
REMARK    4  A    between atoms: C_25  and  C_26
REMARK    5  A    between atoms: C_26  and  C_30
REMARK                            x       y       z     vdW  Elec       q    Type
REMARK                         _______ _______ _______ _____ _____    ______ ____
ROOT
ATOM      1  C   UNL     1      50.075 -47.274  50.252  0.00  0.00    +0.000 C 
ATOM      2  C   UNL     1      49.247 -48.594  49.838  0.00  0.00    +0.000 C 
ATOM      3  C   UNL     1      47.951 -48.933  50.459  0.00  0.00    +0.000 C 
ATOM      4  C   UNL     1      47.105 -48.011  51.301  0.00  0.00    +0.000 C 
ATOM      5  C   UNL     1      50.559 -46.721  48.920  0.00  0.00    +0.000 C 
ATOM      6  C   UNL     1      49.105 -46.413  50.930  0.00  0.00    +0.000 C 
ATOM      7  C   UNL     1      45.785 -48.445  51.995  0.00  0.00    +0.000 C 
ATOM      8  C   UNL     1      49.435 -48.785  48.432  0.00  0.00    +0.000 C 
ATOM      9  C   UNL     1      47.726 -46.741  51.449  0.00  0.00    +0.000 C 
ATOM     10  C   UNL     1      50.201 -47.617  47.872  0.00  0.00    +0.000 C 
ATOM     11  C   UNL     1      47.311 -50.169  50.191  0.00  0.00    +0.000 C 
ATOM     12  C   UNL     1      51.262 -47.709  51.150  0.00  0.00    +0.000 C 
ATOM     13  C   UNL     1      45.140 -49.843  51.396  0.00  0.00    +0.000 C 
ATOM     14  C   UNL     1      44.719 -47.428  51.760  0.00  0.00    +0.000 C 
ATOM     15  C   UNL     1      45.945 -50.557  50.670  0.00  0.00    +0.000 C 
ATOM     16  C   UNL     1      46.061 -48.679  53.509  0.00  0.00    +0.000 C 
ATOM     17  C   UNL     1      43.759 -49.758  50.980  0.00  0.00    +0.000 C 
ATOM     18  C   UNL     1      43.276 -47.488  51.231  0.00  0.00    +0.000 C 
ATOM     19  C   UNL     1      42.751 -48.753  50.835  0.00  0.00    +0.000 C 
ENDROOT
BRANCH  19  20
ATOM     20  O   UNL     1      41.422 -49.037  50.948  0.00  0.00    +0.000 OA
ATOM     21  H   UNL     1      40.982 -48.441  51.577  0.00  0.00    +0.000 HD
ENDBRANCH  19  20
BRANCH   5  22
ATOM     22  C   UNL     1      51.218 -45.464  48.748  0.00  0.00    +0.000 C 
ATOM     23  C   UNL     1      52.678 -45.359  48.386  0.00  0.00    +0.000 C 
BRANCH  22  24
ATOM     24  C   UNL     1      50.535 -44.225  48.889  0.00  0.00    +0.000 C 
ATOM     25  C   UNL     1      49.822 -42.874  49.043  0.00  0.00    +0.000 C 
BRANCH  25  26
ATOM     26  C   UNL     1      49.171 -41.612  49.201  0.00  0.00    +0.000 C 
ATOM     27  C   UNL     1      48.247 -41.392  50.292  0.00  0.00    +0.000 C 
ATOM     28  C   UNL     1      47.936 -42.461  51.323  0.00  0.00    +0.000 C 
ATOM     29  C   UNL     1      47.486 -40.101  50.496  0.00  0.00    +0.000 C 
BRANCH  26  30
ATOM     30  C   UNL     1      49.436 -40.559  48.286  0.00  0.00    +0.000 C 
ATOM     31  C   UNL     1      49.731 -39.389  47.341  0.00  0.00    +0.000 C 
ENDBRANCH  26  30
ENDBRANCH  25  26
ENDBRANCH  22  24
ENDBRANCH   5  22
TORSDOF 5
ENDMDL
MODEL 7
REMARK VINA RESULT:      -7.2      6.822      8.898
REMARK  Name = 222284_BetaSitosterol.pdbqt.pdb
REMARK  5 active torsions:
REMARK  status: ('A' for Active; 'I' for Inactive)
REMARK    1  A    between atoms: C_5  and  C_22
REMARK    2  A    between atoms: C_19  and  O_20
REMARK    3  A    between atoms: C_22  and  C_24
REMARK    4  A    between atoms: C_25  and  C_26
REMARK    5  A    between atoms: C_26  and  C_30
REMARK                            x       y       z     vdW  Elec       q    Type
REMARK                         _______ _______ _______ _____ _____    ______ ____
ROOT
ATOM      1  C   UNL     1      48.855 -46.122  49.194  0.00  0.00    +0.000 C 
ATOM      2  C   UNL     1      49.406 -45.323  47.906  0.00  0.00    +0.000 C 
ATOM      3  C   UNL     1      49.163 -43.878  47.718  0.00  0.00    +0.000 C 
ATOM      4  C   UNL     1      48.660 -42.921  48.769  0.00  0.00    +0.000 C 
ATOM      5  C   UNL     1      50.024 -47.011  49.591  0.00  0.00    +0.000 C 
ATOM      6  C   UNL     1      48.540 -45.086  50.179  0.00  0.00    +0.000 C 
ATOM      7  C   UNL     1      48.349 -41.425  48.494  0.00  0.00    +0.000 C 
ATOM      8  C   UNL     1      50.683 -45.880  47.580  0.00  0.00    +0.000 C 
ATOM      9  C   UNL     1      48.420 -43.592  49.999  0.00  0.00    +0.000 C 
ATOM     10  C   UNL     1      51.072 -46.879  48.636  0.00  0.00    +0.000 C 
ATOM     11  C   UNL     1      49.525 -43.226  46.513  0.00  0.00    +0.000 C 
ATOM     12  C   UNL     1      47.628 -46.962  48.754  0.00  0.00    +0.000 C 
ATOM     13  C   UNL     1      49.019 -40.844  47.100  0.00  0.00    +0.000 C 
ATOM     14  C   UNL     1      48.945 -40.569  49.562  0.00  0.00    +0.000 C 
ATOM     15  C   UNL     1      49.436 -41.750  46.268  0.00  0.00    +0.000 C 
ATOM     16  C   UNL     1      46.809 -41.240  48.374  0.00  0.00    +0.000 C 
ATOM     17  C   UNL     1      49.820 -39.651  47.248  0.00  0.00    +0.000 C 
ATOM     18  C   UNL     1      49.862 -39.333  49.561  0.00  0.00    +0.000 C 
ATOM     19  C   UNL     1      50.312 -38.824  48.307  0.00  0.00    +0.000 C 
ENDROOT
BRANCH  19  20
ATOM     20  O   UNL     1      50.568 -37.496  48.131  0.00  0.00    +0.000 OA
ATOM     21  H   UNL     1      51.520 -37.325  48.044  0.00  0.00    +0.000 HD
ENDBRANCH  19  20
BRANCH   5  22
ATOM     22  C   UNL     1      50.077 -47.807  50.778  0.00  0.00    +0.000 C 
ATOM     23  C   UNL     1      51.309 -47.885  51.644  0.00  0.00    +0.000 C 
BRANCH  22  24
ATOM     24  C   UNL     1      48.964 -48.566  51.231  0.00  0.00    +0.000 C 
ATOM     25  C   UNL     1      47.744 -49.365  51.712  0.00  0.00    +0.000 C 
BRANCH  25  26
ATOM     26  C   UNL     1      46.601 -50.092  52.165  0.00  0.00    +0.000 C 
ATOM     27  C   UNL     1      45.439 -50.241  51.316  0.00  0.00    +0.000 C 
ATOM     28  C   UNL     1      45.376 -49.662  49.916  0.00  0.00    +0.000 C 
ATOM     29  C   UNL     1      44.177 -50.956  51.745  0.00  0.00    +0.000 C 
BRANCH  26  30
ATOM     30  C   UNL     1      46.604 -50.682  53.457  0.00  0.00    +0.000 C 
ATOM     31  C   UNL     1      46.651 -51.291  54.863  0.00  0.00    +0.000 C 
ENDBRANCH  26  30
ENDBRANCH  25  26
ENDBRANCH  22  24
ENDBRANCH   5  22
TORSDOF 5
ENDMDL
MODEL 8
REMARK VINA RESULT:      -7.0      5.978     10.797
REMARK  Name = 222284_BetaSitosterol.pdbqt.pdb
REMARK  5 active torsions:
REMARK  status: ('A' for Active; 'I' for Inactive)
REMARK    1  A    between atoms: C_5  and  C_22
REMARK    2  A    between atoms: C_19  and  O_20
REMARK    3  A    between atoms: C_22  and  C_24
REMARK    4  A    between atoms: C_25  and  C_26
REMARK    5  A    between atoms: C_26  and  C_30
REMARK                            x       y       z     vdW  Elec       q    Type
REMARK                         _______ _______ _______ _____ _____    ______ ____
ROOT
ATOM      1  C   UNL     1      42.687 -47.521  49.332  0.00  0.00    +0.000 C 
ATOM      2  C   UNL     1      43.246 -47.291  50.826  0.00  0.00    +0.000 C 
ATOM      3  C   UNL     1      44.593 -46.741  51.083  0.00  0.00    +0.000 C 
ATOM      4  C   UNL     1      45.483 -46.069  50.068  0.00  0.00    +0.000 C 
ATOM      5  C   UNL     1      41.251 -47.025  49.405  0.00  0.00    +0.000 C 
ATOM      6  C   UNL     1      43.549 -46.706  48.473  0.00  0.00    +0.000 C 
ATOM      7  C   UNL     1      46.924 -45.578  50.375  0.00  0.00    +0.000 C 
ATOM      8  C   UNL     1      42.140 -46.870  51.629  0.00  0.00    +0.000 C 
ATOM      9  C   UNL     1      44.866 -46.040  48.787  0.00  0.00    +0.000 C 
ATOM     10  C   UNL     1      40.936 -46.669  50.748  0.00  0.00    +0.000 C 
ATOM     11  C   UNL     1      45.122 -46.685  52.396  0.00  0.00    +0.000 C 
ATOM     12  C   UNL     1      42.748 -49.038  49.020  0.00  0.00    +0.000 C 
ATOM     13  C   UNL     1      47.255 -45.437  51.988  0.00  0.00    +0.000 C 
ATOM     14  C   UNL     1      47.123 -44.197  49.846  0.00  0.00    +0.000 C 
ATOM     15  C   UNL     1      46.419 -46.038  52.779  0.00  0.00    +0.000 C 
ATOM     16  C   UNL     1      47.943 -46.594  49.784  0.00  0.00    +0.000 C 
ATOM     17  C   UNL     1      47.767 -44.152  52.404  0.00  0.00    +0.000 C 
ATOM     18  C   UNL     1      47.628 -42.877  50.453  0.00  0.00    +0.000 C 
ATOM     19  C   UNL     1      48.000 -42.862  51.829  0.00  0.00    +0.000 C 
ENDROOT
BRANCH  19  20
ATOM     20  O   UNL     1      48.975 -42.028  52.293  0.00  0.00    +0.000 OA
ATOM     21  H   UNL     1      49.809 -42.503  52.443  0.00  0.00    +0.000 HD
ENDBRANCH  19  20
BRANCH   5  22
ATOM     22  C   UNL     1      40.377 -46.883  48.282  0.00  0.00    +0.000 C 
ATOM     23  C   UNL     1      39.536 -48.022  47.764  0.00  0.00    +0.000 C 
BRANCH  22  24
ATOM     24  C   UNL     1      40.227 -45.650  47.590  0.00  0.00    +0.000 C 
ATOM     25  C   UNL     1      40.074 -44.305  46.866  0.00  0.00    +0.000 C 
BRANCH  25  26
ATOM     26  C   UNL     1      39.923 -43.046  46.209  0.00  0.00    +0.000 C 
ATOM     27  C   UNL     1      38.762 -42.220  46.459  0.00  0.00    +0.000 C 
ATOM     28  C   UNL     1      37.668 -42.626  47.429  0.00  0.00    +0.000 C 
ATOM     29  C   UNL     1      38.510 -40.899  45.765  0.00  0.00    +0.000 C 
BRANCH  26  30
ATOM     30  C   UNL     1      40.922 -42.593  45.307  0.00  0.00    +0.000 C 
ATOM     31  C   UNL     1      41.966 -42.113  44.292  0.00  0.00    +0.000 C 
ENDBRANCH  26  30
ENDBRANCH  25  26
ENDBRANCH  22  24
ENDBRANCH   5  22
TORSDOF 5
ENDMDL
MODEL 9
REMARK VINA RESULT:      -6.9      4.070      6.136
REMARK  Name = 222284_BetaSitosterol.pdbqt.pdb
REMARK  5 active torsions:
REMARK  status: ('A' for Active; 'I' for Inactive)
REMARK    1  A    between atoms: C_5  and  C_22
REMARK    2  A    between atoms: C_19  and  O_20
REMARK    3  A    between atoms: C_22  and  C_24
REMARK    4  A    between atoms: C_25  and  C_26
REMARK    5  A    between atoms: C_26  and  C_30
REMARK                            x       y       z     vdW  Elec       q    Type
REMARK                         _______ _______ _______ _____ _____    ______ ____
ROOT
ATOM      1  C   UNL     1      46.532 -49.575  52.279  0.00  0.00    +0.000 C 
ATOM      2  C   UNL     1      46.520 -48.006  51.907  0.00  0.00    +0.000 C 
ATOM      3  C   UNL     1      47.658 -47.354  51.227  0.00  0.00    +0.000 C 
ATOM      4  C   UNL     1      48.805 -48.059  50.547  0.00  0.00    +0.000 C 
ATOM      5  C   UNL     1      45.134 -50.044  51.906  0.00  0.00    +0.000 C 
ATOM      6  C   UNL     1      47.589 -50.156  51.450  0.00  0.00    +0.000 C 
ATOM      7  C   UNL     1      50.017 -47.321  49.915  0.00  0.00    +0.000 C 
ATOM      8  C   UNL     1      45.180 -47.673  51.532  0.00  0.00    +0.000 C 
ATOM      9  C   UNL     1      48.673 -49.470  50.654  0.00  0.00    +0.000 C 
ATOM     10  C   UNL     1      44.350 -48.928  51.493  0.00  0.00    +0.000 C 
ATOM     11  C   UNL     1      47.692 -45.950  51.041  0.00  0.00    +0.000 C 
ATOM     12  C   UNL     1      46.787 -49.708  53.803  0.00  0.00    +0.000 C 
ATOM     13  C   UNL     1      49.756 -45.713  49.642  0.00  0.00    +0.000 C 
ATOM     14  C   UNL     1      50.306 -47.873  48.559  0.00  0.00    +0.000 C 
ATOM     15  C   UNL     1      48.733 -45.206  50.261  0.00  0.00    +0.000 C 
ATOM     16  C   UNL     1      51.236 -47.433  50.875  0.00  0.00    +0.000 C 
ATOM     17  C   UNL     1      50.013 -45.264  48.293  0.00  0.00    +0.000 C 
ATOM     18  C   UNL     1      50.490 -47.251  47.163  0.00  0.00    +0.000 C 
ATOM     19  C   UNL     1      50.357 -45.838  47.028  0.00  0.00    +0.000 C 
ENDROOT
BRANCH  19  20
ATOM     20  O   UNL     1      51.057 -45.146  46.085  0.00  0.00    +0.000 OA
ATOM     21  H   UNL     1      50.616 -45.175  45.219  0.00  0.00    +0.000 HD
ENDBRANCH  19  20
BRANCH   5  22
ATOM     22  C   UNL     1      44.700 -51.406  51.912  0.00  0.00    +0.000 C 
ATOM     23  C   UNL     1      44.319 -52.139  50.651  0.00  0.00    +0.000 C 
BRANCH  22  24
ATOM     24  C   UNL     1      44.617 -52.169  53.109  0.00  0.00    +0.000 C 
ATOM     25  C   UNL     1      44.557 -52.992  54.403  0.00  0.00    +0.000 C 
BRANCH  25  26
ATOM     26  C   UNL     1      44.515 -53.769  55.601  0.00  0.00    +0.000 C 
ATOM     27  C   UNL     1      43.268 -54.334  56.069  0.00  0.00    +0.000 C 
ATOM     28  C   UNL     1      41.961 -54.154  55.319  0.00  0.00    +0.000 C 
ATOM     29  C   UNL     1      43.138 -55.127  57.351  0.00  0.00    +0.000 C 
BRANCH  26  30
ATOM     30  C   UNL     1      45.706 -53.998  56.339  0.00  0.00    +0.000 C 
ATOM     31  C   UNL     1      47.018 -54.258  57.090  0.00  0.00    +0.000 C 
ENDBRANCH  26  30
ENDBRANCH  25  26
ENDBRANCH  22  24
ENDBRANCH   5  22
TORSDOF 5
ENDMDL
