MODEL 1
REMARK VINA RESULT:      -6.3      0.000      0.000
REMARK  Name = 25023738_BI-D-1870.pdbqt.pdb
REMARK  4 active torsions:
REMARK  status: ('A' for Active; 'I' for Inactive)
REMARK    1  A    between atoms: N_2  and  C_26
REMARK    2  A    between atoms: N_14  and  C_16
REMARK    3  A    between atoms: C_20  and  O_24
REMARK    4  A    between atoms: C_27  and  C_28
REMARK                            x       y       z     vdW  Elec       q    Type
REMARK                         _______ _______ _______ _____ _____    ______ ____
ROOT
ATOM      1  O   UNL     1      47.809 -36.771  40.313  0.00  0.00    +0.000 OA
ATOM      2  N   UNL     1      48.209 -38.015  43.686  0.00  0.00    +0.000 N 
ATOM      3  N   UNL     1      48.184 -35.575  42.276  0.00  0.00    +0.000 N 
ATOM      4  N   UNL     1      48.594 -36.835  45.724  0.00  0.00    +0.000 NA
ATOM      5  N   UNL     1      48.777 -34.499  45.787  0.00  0.00    +0.000 NA
ATOM      6  C   UNL     1      48.008 -38.046  42.323  0.00  0.00    +0.000 C 
ATOM      7  C   UNL     1      48.401 -36.805  44.385  0.00  0.00    +0.000 A 
ATOM      8  C   UNL     1      47.989 -36.759  41.534  0.00  0.00    +0.000 C 
ATOM      9  C   UNL     1      48.387 -35.620  43.683  0.00  0.00    +0.000 A 
ATOM     10  C   UNL     1      47.807 -39.379  41.612  0.00  0.00    +0.000 C 
ATOM     11  C   UNL     1      48.197 -34.239  41.689  0.00  0.00    +0.000 C 
ATOM     12  C   UNL     1      48.583 -34.496  44.455  0.00  0.00    +0.000 A 
ATOM     13  C   UNL     1      48.777 -35.686  46.391  0.00  0.00    +0.000 A 
ATOM     14  N   UNL     1      48.977 -35.675  47.765  0.00  0.00    +0.000 N 
ATOM     15  H   UNL     1      49.097 -34.729  48.106  0.00  0.00    +0.000 HD
ENDROOT
BRANCH  14  16
ATOM     16  C   UNL     1      49.034 -36.712  48.702  0.00  0.00    +0.000 A 
ATOM     17  C   UNL     1      48.293 -36.604  49.886  0.00  0.00    +0.000 A 
ATOM     18  C   UNL     1      48.325 -37.618  50.843  0.00  0.00    +0.000 A 
ATOM     19  F   UNL     1      47.601 -37.477  51.963  0.00  0.00    +0.000 F 
ATOM     20  C   UNL     1      49.095 -38.755  50.639  0.00  0.00    +0.000 A 
ATOM     21  C   UNL     1      49.833 -38.869  49.469  0.00  0.00    +0.000 A 
ATOM     22  F   UNL     1      50.579 -39.963  49.260  0.00  0.00    +0.000 F 
ATOM     23  C   UNL     1      49.805 -37.862  48.508  0.00  0.00    +0.000 A 
BRANCH  20  24
ATOM     24  O   UNL     1      49.122 -39.744  51.581  0.00  0.00    +0.000 OA
ATOM     25  H   UNL     1      49.264 -39.327  52.452  0.00  0.00    +0.000 HD
ENDBRANCH  20  24
ENDBRANCH  14  16
BRANCH   2  26
ATOM     26  C   UNL     1      48.231 -39.258  44.454  0.00  0.00    +0.000 C 
ATOM     27  C   UNL     1      48.255 -40.565  45.255  0.00  0.00    +0.000 C 
BRANCH  27  28
ATOM     28  C   UNL     1      48.276 -41.767  45.998  0.00  0.00    +0.000 C 
ATOM     29  C   UNL     1      47.195 -42.785  45.801  0.00  0.00    +0.000 C 
ATOM     30  C   UNL     1      49.351 -41.995  47.016  0.00  0.00    +0.000 C 
ENDBRANCH  27  28
ENDBRANCH   2  26
TORSDOF 4
ENDMDL
MODEL 2
REMARK VINA RESULT:      -6.3      1.515      2.209
REMARK  Name = 25023738_BI-D-1870.pdbqt.pdb
REMARK  4 active torsions:
REMARK  status: ('A' for Active; 'I' for Inactive)
REMARK    1  A    between atoms: N_2  and  C_26
REMARK    2  A    between atoms: N_14  and  C_16
REMARK    3  A    between atoms: C_20  and  O_24
REMARK    4  A    between atoms: C_27  and  C_28
REMARK                            x       y       z     vdW  Elec       q    Type
REMARK                         _______ _______ _______ _____ _____    ______ ____
ROOT
ATOM      1  O   UNL     1      50.564 -37.814  40.547  0.00  0.00    +0.000 OA
ATOM      2  N   UNL     1      49.778 -38.685  43.969  0.00  0.00    +0.000 N 
ATOM      3  N   UNL     1      50.334 -36.415  42.395  0.00  0.00    +0.000 N 
ATOM      4  N   UNL     1      49.533 -37.293  45.892  0.00  0.00    +0.000 NA
ATOM      5  N   UNL     1      49.799 -34.967  45.779  0.00  0.00    +0.000 NA
ATOM      6  C   UNL     1      50.032 -38.862  42.627  0.00  0.00    +0.000 C 
ATOM      7  C   UNL     1      49.790 -37.408  44.568  0.00  0.00    +0.000 A 
ATOM      8  C   UNL     1      50.334 -37.671  41.751  0.00  0.00    +0.000 C 
ATOM      9  C   UNL     1      50.064 -36.308  43.787  0.00  0.00    +0.000 A 
ATOM     10  C   UNL     1      50.009 -40.263  42.025  0.00  0.00    +0.000 C 
ATOM     11  C   UNL     1      50.604 -35.152  41.715  0.00  0.00    +0.000 C 
ATOM     12  C   UNL     1      50.051 -35.108  44.464  0.00  0.00    +0.000 A 
ATOM     13  C   UNL     1      49.544 -36.080  46.464  0.00  0.00    +0.000 A 
ATOM     14  N   UNL     1      49.285 -35.920  47.818  0.00  0.00    +0.000 N 
ATOM     15  H   UNL     1      49.333 -34.944  48.084  0.00  0.00    +0.000 HD
ENDROOT
BRANCH  14  16
ATOM     16  C   UNL     1      48.982 -36.849  48.820  0.00  0.00    +0.000 A 
ATOM     17  C   UNL     1      49.479 -38.155  48.714  0.00  0.00    +0.000 A 
ATOM     18  C   UNL     1      49.198 -39.107  49.693  0.00  0.00    +0.000 A 
ATOM     19  F   UNL     1      49.692 -40.346  49.554  0.00  0.00    +0.000 F 
ATOM     20  C   UNL     1      48.419 -38.777  50.793  0.00  0.00    +0.000 A 
ATOM     21  C   UNL     1      47.922 -37.486  50.905  0.00  0.00    +0.000 A 
ATOM     22  F   UNL     1      47.169 -37.155  51.964  0.00  0.00    +0.000 F 
ATOM     23  C   UNL     1      48.199 -36.530  49.933  0.00  0.00    +0.000 A 
BRANCH  20  24
ATOM     24  O   UNL     1      48.147 -39.716  51.748  0.00  0.00    +0.000 OA
ATOM     25  H   UNL     1      47.202 -39.644  51.982  0.00  0.00    +0.000 HD
ENDBRANCH  20  24
ENDBRANCH  14  16
BRANCH   2  26
ATOM     26  C   UNL     1      49.487 -39.836  44.821  0.00  0.00    +0.000 C 
ATOM     27  C   UNL     1      49.182 -41.041  45.719  0.00  0.00    +0.000 C 
BRANCH  27  28
ATOM     28  C   UNL     1      48.900 -42.154  46.542  0.00  0.00    +0.000 C 
ATOM     29  C   UNL     1      49.735 -43.393  46.432  0.00  0.00    +0.000 C 
ATOM     30  C   UNL     1      47.737 -42.110  47.484  0.00  0.00    +0.000 C 
ENDBRANCH  27  28
ENDBRANCH   2  26
TORSDOF 4
ENDMDL
MODEL 3
REMARK VINA RESULT:      -6.0     20.003     23.314
REMARK  Name = 25023738_BI-D-1870.pdbqt.pdb
REMARK  4 active torsions:
REMARK  status: ('A' for Active; 'I' for Inactive)
REMARK    1  A    between atoms: N_2  and  C_26
REMARK    2  A    between atoms: N_14  and  C_16
REMARK    3  A    between atoms: C_20  and  O_24
REMARK    4  A    between atoms: C_27  and  C_28
REMARK                            x       y       z     vdW  Elec       q    Type
REMARK                         _______ _______ _______ _____ _____    ______ ____
ROOT
ATOM      1  O   UNL     1      40.819 -58.268  60.836  0.00  0.00    +0.000 OA
ATOM      2  N   UNL     1      43.588 -56.651  59.162  0.00  0.00    +0.000 N 
ATOM      3  N   UNL     1      43.072 -58.243  61.429  0.00  0.00    +0.000 N 
ATOM      4  N   UNL     1      45.905 -56.595  59.727  0.00  0.00    +0.000 NA
ATOM      5  N   UNL     1      46.745 -57.689  61.622  0.00  0.00    +0.000 NA
ATOM      6  C   UNL     1      42.291 -57.050  59.403  0.00  0.00    +0.000 C 
ATOM      7  C   UNL     1      44.651 -57.015  60.013  0.00  0.00    +0.000 A 
ATOM      8  C   UNL     1      41.976 -57.903  60.608  0.00  0.00    +0.000 C 
ATOM      9  C   UNL     1      44.384 -57.793  61.118  0.00  0.00    +0.000 A 
ATOM     10  C   UNL     1      41.175 -56.629  58.454  0.00  0.00    +0.000 C 
ATOM     11  C   UNL     1      42.963 -59.058  62.634  0.00  0.00    +0.000 C 
ATOM     12  C   UNL     1      45.489 -58.095  61.885  0.00  0.00    +0.000 A 
ATOM     13  C   UNL     1      46.918 -56.940  60.535  0.00  0.00    +0.000 A 
ATOM     14  N   UNL     1      48.219 -56.529  60.276  0.00  0.00    +0.000 N 
ATOM     15  H   UNL     1      48.857 -56.877  60.981  0.00  0.00    +0.000 HD
ENDROOT
BRANCH  14  16
ATOM     16  C   UNL     1      48.757 -55.752  59.244  0.00  0.00    +0.000 A 
ATOM     17  C   UNL     1      48.036 -54.646  58.774  0.00  0.00    +0.000 A 
ATOM     18  C   UNL     1      48.540 -53.849  57.748  0.00  0.00    +0.000 A 
ATOM     19  F   UNL     1      47.820 -52.800  57.326  0.00  0.00    +0.000 F 
ATOM     20  C   UNL     1      49.770 -54.138  57.171  0.00  0.00    +0.000 A 
ATOM     21  C   UNL     1      50.490 -55.232  57.631  0.00  0.00    +0.000 A 
ATOM     22  F   UNL     1      51.679 -55.520  57.082  0.00  0.00    +0.000 F 
ATOM     23  C   UNL     1      49.993 -56.032  58.656  0.00  0.00    +0.000 A 
BRANCH  20  24
ATOM     24  O   UNL     1      50.258 -53.352  56.165  0.00  0.00    +0.000 OA
ATOM     25  H   UNL     1      50.182 -53.851  55.329  0.00  0.00    +0.000 HD
ENDBRANCH  20  24
ENDBRANCH  14  16
BRANCH   2  26
ATOM     26  C   UNL     1      43.898 -55.823  57.998  0.00  0.00    +0.000 C 
ATOM     27  C   UNL     1      44.228 -54.955  56.778  0.00  0.00    +0.000 C 
BRANCH  27  28
ATOM     28  C   UNL     1      44.527 -54.155  55.653  0.00  0.00    +0.000 C 
ATOM     29  C   UNL     1      45.912 -54.160  55.081  0.00  0.00    +0.000 C 
ATOM     30  C   UNL     1      43.473 -53.267  55.068  0.00  0.00    +0.000 C 
ENDBRANCH  27  28
ENDBRANCH   2  26
TORSDOF 4
ENDMDL
MODEL 4
REMARK VINA RESULT:      -5.9     14.619     18.216
REMARK  Name = 25023738_BI-D-1870.pdbqt.pdb
REMARK  4 active torsions:
REMARK  status: ('A' for Active; 'I' for Inactive)
REMARK    1  A    between atoms: N_2  and  C_26
REMARK    2  A    between atoms: N_14  and  C_16
REMARK    3  A    between atoms: C_20  and  O_24
REMARK    4  A    between atoms: C_27  and  C_28
REMARK                            x       y       z     vdW  Elec       q    Type
REMARK                         _______ _______ _______ _____ _____    ______ ____
ROOT
ATOM      1  O   UNL     1      42.458 -56.719  57.052  0.00  0.00    +0.000 OA
ATOM      2  N   UNL     1      43.608 -54.176  54.749  0.00  0.00    +0.000 N 
ATOM      3  N   UNL     1      44.344 -55.359  57.199  0.00  0.00    +0.000 N 
ATOM      4  N   UNL     1      45.526 -52.761  54.855  0.00  0.00    +0.000 NA
ATOM      5  N   UNL     1      47.043 -52.861  56.639  0.00  0.00    +0.000 NA
ATOM      6  C   UNL     1      42.805 -55.170  55.267  0.00  0.00    +0.000 C 
ATOM      7  C   UNL     1      44.775 -53.741  55.410  0.00  0.00    +0.000 A 
ATOM      8  C   UNL     1      43.167 -55.827  56.576  0.00  0.00    +0.000 C 
ATOM      9  C   UNL     1      45.123 -54.328  56.606  0.00  0.00    +0.000 A 
ATOM     10  C   UNL     1      41.551 -55.605  54.517  0.00  0.00    +0.000 C 
ATOM     11  C   UNL     1      44.854 -55.872  58.466  0.00  0.00    +0.000 C 
ATOM     12  C   UNL     1      46.280 -53.834  57.170  0.00  0.00    +0.000 A 
ATOM     13  C   UNL     1      46.637 -52.346  55.480  0.00  0.00    +0.000 A 
ATOM     14  N   UNL     1      47.434 -51.343  54.943  0.00  0.00    +0.000 N 
ATOM     15  H   UNL     1      48.229 -51.153  55.540  0.00  0.00    +0.000 HD
ENDROOT
BRANCH  14  16
ATOM     16  C   UNL     1      47.316 -50.595  53.767  0.00  0.00    +0.000 A 
ATOM     17  C   UNL     1      46.532 -49.433  53.771  0.00  0.00    +0.000 A 
ATOM     18  C   UNL     1      46.391 -48.663  52.618  0.00  0.00    +0.000 A 
ATOM     19  F   UNL     1      45.633 -47.558  52.664  0.00  0.00    +0.000 F 
ATOM     20  C   UNL     1      47.026 -49.035  51.441  0.00  0.00    +0.000 A 
ATOM     21  C   UNL     1      47.803 -50.185  51.428  0.00  0.00    +0.000 A 
ATOM     22  F   UNL     1      48.422 -50.554  50.297  0.00  0.00    +0.000 F 
ATOM     23  C   UNL     1      47.949 -50.958  52.576  0.00  0.00    +0.000 A 
BRANCH  20  24
ATOM     24  O   UNL     1      46.883 -48.275  50.314  0.00  0.00    +0.000 OA
ATOM     25  H   UNL     1      47.730 -47.818  50.149  0.00  0.00    +0.000 HD
ENDBRANCH  20  24
ENDBRANCH  14  16
BRANCH   2  26
ATOM     26  C   UNL     1      43.260 -53.535  53.483  0.00  0.00    +0.000 C 
ATOM     27  C   UNL     1      42.900 -52.860  52.154  0.00  0.00    +0.000 C 
BRANCH  27  28
ATOM     28  C   UNL     1      42.563 -52.242  50.930  0.00  0.00    +0.000 C 
ATOM     29  C   UNL     1      42.058 -53.071  49.789  0.00  0.00    +0.000 C 
ATOM     30  C   UNL     1      42.762 -50.767  50.760  0.00  0.00    +0.000 C 
ENDBRANCH  27  28
ENDBRANCH   2  26
TORSDOF 4
ENDMDL
MODEL 5
REMARK VINA RESULT:      -5.9     17.907     21.071
REMARK  Name = 25023738_BI-D-1870.pdbqt.pdb
REMARK  4 active torsions:
REMARK  status: ('A' for Active; 'I' for Inactive)
REMARK    1  A    between atoms: N_2  and  C_26
REMARK    2  A    between atoms: N_14  and  C_16
REMARK    3  A    between atoms: C_20  and  O_24
REMARK    4  A    between atoms: C_27  and  C_28
REMARK                            x       y       z     vdW  Elec       q    Type
REMARK                         _______ _______ _______ _____ _____    ______ ____
ROOT
ATOM      1  O   UNL     1      55.683 -56.514  52.771  0.00  0.00    +0.000 OA
ATOM      2  N   UNL     1      52.552 -55.563  54.314  0.00  0.00    +0.000 N 
ATOM      3  N   UNL     1      54.965 -56.868  54.959  0.00  0.00    +0.000 N 
ATOM      4  N   UNL     1      51.772 -55.902  56.543  0.00  0.00    +0.000 NA
ATOM      5  N   UNL     1      53.069 -57.000  58.156  0.00  0.00    +0.000 NA
ATOM      6  C   UNL     1      53.510 -55.696  53.332  0.00  0.00    +0.000 C 
ATOM      7  C   UNL     1      52.747 -56.061  55.619  0.00  0.00    +0.000 A 
ATOM      8  C   UNL     1      54.815 -56.389  53.640  0.00  0.00    +0.000 C 
ATOM      9  C   UNL     1      53.931 -56.696  55.920  0.00  0.00    +0.000 A 
ATOM     10  C   UNL     1      53.253 -55.142  51.935  0.00  0.00    +0.000 C 
ATOM     11  C   UNL     1      56.154 -57.562  55.442  0.00  0.00    +0.000 C 
ATOM     12  C   UNL     1      54.025 -57.145  57.220  0.00  0.00    +0.000 A 
ATOM     13  C   UNL     1      51.955 -56.374  57.785  0.00  0.00    +0.000 A 
ATOM     14  N   UNL     1      50.977 -56.231  58.761  0.00  0.00    +0.000 N 
ATOM     15  H   UNL     1      51.277 -56.642  59.636  0.00  0.00    +0.000 HD
ENDROOT
BRANCH  14  16
ATOM     16  C   UNL     1      49.711 -55.638  58.725  0.00  0.00    +0.000 A 
ATOM     17  C   UNL     1      48.675 -56.191  59.490  0.00  0.00    +0.000 A 
ATOM     18  C   UNL     1      47.401 -55.626  59.480  0.00  0.00    +0.000 A 
ATOM     19  F   UNL     1      46.437 -56.185  60.227  0.00  0.00    +0.000 F 
ATOM     20  C   UNL     1      47.133 -54.504  58.708  0.00  0.00    +0.000 A 
ATOM     21  C   UNL     1      48.153 -53.952  57.946  0.00  0.00    +0.000 A 
ATOM     22  F   UNL     1      47.908 -52.867  57.197  0.00  0.00    +0.000 F 
ATOM     23  C   UNL     1      49.429 -54.508  57.952  0.00  0.00    +0.000 A 
BRANCH  20  24
ATOM     24  O   UNL     1      45.881 -53.957  58.702  0.00  0.00    +0.000 OA
ATOM     25  H   UNL     1      45.488 -54.094  59.586  0.00  0.00    +0.000 HD
ENDBRANCH  20  24
ENDBRANCH  14  16
BRANCH   2  26
ATOM     26  C   UNL     1      51.286 -54.895  54.020  0.00  0.00    +0.000 C 
ATOM     27  C   UNL     1      49.955 -54.198  53.713  0.00  0.00    +0.000 C 
BRANCH  27  28
ATOM     28  C   UNL     1      48.732 -53.551  53.429  0.00  0.00    +0.000 C 
ATOM     29  C   UNL     1      47.438 -54.199  53.818  0.00  0.00    +0.000 C 
ATOM     30  C   UNL     1      48.731 -52.246  52.695  0.00  0.00    +0.000 C 
ENDBRANCH  27  28
ENDBRANCH   2  26
TORSDOF 4
ENDMDL
MODEL 6
REMARK VINA RESULT:      -5.8      3.288      4.704
REMARK  Name = 25023738_BI-D-1870.pdbqt.pdb
REMARK  4 active torsions:
REMARK  status: ('A' for Active; 'I' for Inactive)
REMARK    1  A    between atoms: N_2  and  C_26
REMARK    2  A    between atoms: N_14  and  C_16
REMARK    3  A    between atoms: C_20  and  O_24
REMARK    4  A    between atoms: C_27  and  C_28
REMARK                            x       y       z     vdW  Elec       q    Type
REMARK                         _______ _______ _______ _____ _____    ______ ____
ROOT
ATOM      1  O   UNL     1      50.545 -44.087  40.835  0.00  0.00    +0.000 OA
ATOM      2  N   UNL     1      50.117 -42.956  44.245  0.00  0.00    +0.000 N 
ATOM      3  N   UNL     1      50.505 -41.908  41.658  0.00  0.00    +0.000 N 
ATOM      4  N   UNL     1      50.070 -40.743  45.135  0.00  0.00    +0.000 NA
ATOM      5  N   UNL     1      50.319 -38.853  43.772  0.00  0.00    +0.000 NA
ATOM      6  C   UNL     1      50.232 -43.835  43.190  0.00  0.00    +0.000 C 
ATOM      7  C   UNL     1      50.189 -41.559  44.063  0.00  0.00    +0.000 A 
ATOM      8  C   UNL     1      50.441 -43.311  41.790  0.00  0.00    +0.000 C 
ATOM      9  C   UNL     1      50.379 -41.061  42.793  0.00  0.00    +0.000 A 
ATOM     10  C   UNL     1      50.149 -45.337  43.437  0.00  0.00    +0.000 C 
ATOM     11  C   UNL     1      50.701 -41.218  40.387  0.00  0.00    +0.000 C 
ATOM     12  C   UNL     1      50.434 -39.686  42.721  0.00  0.00    +0.000 A 
ATOM     13  C   UNL     1      50.138 -39.414  44.965  0.00  0.00    +0.000 A 
ATOM     14  N   UNL     1      50.019 -38.543  46.040  0.00  0.00    +0.000 N 
ATOM     15  H   UNL     1      50.093 -37.580  45.737  0.00  0.00    +0.000 HD
ENDROOT
BRANCH  14  16
ATOM     16  C   UNL     1      49.823 -38.777  47.406  0.00  0.00    +0.000 A 
ATOM     17  C   UNL     1      49.827 -37.692  48.293  0.00  0.00    +0.000 A 
ATOM     18  C   UNL     1      49.634 -37.886  49.659  0.00  0.00    +0.000 A 
ATOM     19  F   UNL     1      49.646 -36.822  50.475  0.00  0.00    +0.000 F 
ATOM     20  C   UNL     1      49.435 -39.163  50.168  0.00  0.00    +0.000 A 
ATOM     21  C   UNL     1      49.430 -40.243  49.296  0.00  0.00    +0.000 A 
ATOM     22  F   UNL     1      49.237 -41.480  49.776  0.00  0.00    +0.000 F 
ATOM     23  C   UNL     1      49.620 -40.057  47.930  0.00  0.00    +0.000 A 
BRANCH  20  24
ATOM     24  O   UNL     1      49.247 -39.346  51.509  0.00  0.00    +0.000 OA
ATOM     25  H   UNL     1      48.468 -38.823  51.779  0.00  0.00    +0.000 HD
ENDBRANCH  20  24
ENDBRANCH  14  16
BRANCH   2  26
ATOM     26  C   UNL     1      49.918 -43.458  45.602  0.00  0.00    +0.000 C 
ATOM     27  C   UNL     1      49.708 -43.990  47.025  0.00  0.00    +0.000 C 
BRANCH  27  28
ATOM     28  C   UNL     1      49.516 -44.476  48.338  0.00  0.00    +0.000 C 
ATOM     29  C   UNL     1      50.698 -44.877  49.165  0.00  0.00    +0.000 C 
ATOM     30  C   UNL     1      48.128 -44.637  48.878  0.00  0.00    +0.000 C 
ENDBRANCH  27  28
ENDBRANCH   2  26
TORSDOF 4
ENDMDL
MODEL 7
REMARK VINA RESULT:      -5.8     16.883     19.690
REMARK  Name = 25023738_BI-D-1870.pdbqt.pdb
REMARK  4 active torsions:
REMARK  status: ('A' for Active; 'I' for Inactive)
REMARK    1  A    between atoms: N_2  and  C_26
REMARK    2  A    between atoms: N_14  and  C_16
REMARK    3  A    between atoms: C_20  and  O_24
REMARK    4  A    between atoms: C_27  and  C_28
REMARK                            x       y       z     vdW  Elec       q    Type
REMARK                         _______ _______ _______ _____ _____    ______ ____
ROOT
ATOM      1  O   UNL     1      42.381 -52.910  51.251  0.00  0.00    +0.000 OA
ATOM      2  N   UNL     1      44.033 -54.378  54.116  0.00  0.00    +0.000 N 
ATOM      3  N   UNL     1      44.124 -52.048  52.534  0.00  0.00    +0.000 N 
ATOM      4  N   UNL     1      45.817 -53.538  55.459  0.00  0.00    +0.000 NA
ATOM      5  N   UNL     1      46.809 -51.457  55.039  0.00  0.00    +0.000 NA
ATOM      6  C   UNL     1      43.148 -54.262  53.065  0.00  0.00    +0.000 C 
ATOM      7  C   UNL     1      44.973 -53.371  54.414  0.00  0.00    +0.000 A 
ATOM      8  C   UNL     1      43.168 -53.028  52.196  0.00  0.00    +0.000 C 
ATOM      9  C   UNL     1      45.006 -52.237  53.633  0.00  0.00    +0.000 A 
ATOM     10  C   UNL     1      42.151 -55.379  52.780  0.00  0.00    +0.000 C 
ATOM     11  C   UNL     1      44.293 -50.792  51.811  0.00  0.00    +0.000 C 
ATOM     12  C   UNL     1      45.958 -51.314  54.006  0.00  0.00    +0.000 A 
ATOM     13  C   UNL     1      46.712 -52.582  55.745  0.00  0.00    +0.000 A 
ATOM     14  N   UNL     1      47.595 -52.717  56.808  0.00  0.00    +0.000 N 
ATOM     15  H   UNL     1      48.198 -51.907  56.883  0.00  0.00    +0.000 HD
ENDROOT
BRANCH  14  16
ATOM     16  C   UNL     1      47.770 -53.742  57.744  0.00  0.00    +0.000 A 
ATOM     17  C   UNL     1      49.054 -54.262  57.955  0.00  0.00    +0.000 A 
ATOM     18  C   UNL     1      49.267 -55.284  58.880  0.00  0.00    +0.000 A 
ATOM     19  F   UNL     1      50.510 -55.754  59.053  0.00  0.00    +0.000 F 
ATOM     20  C   UNL     1      48.207 -55.806  59.608  0.00  0.00    +0.000 A 
ATOM     21  C   UNL     1      46.932 -55.297  59.404  0.00  0.00    +0.000 A 
ATOM     22  F   UNL     1      45.900 -55.793  60.102  0.00  0.00    +0.000 F 
ATOM     23  C   UNL     1      46.712 -54.276  58.484  0.00  0.00    +0.000 A 
BRANCH  20  24
ATOM     24  O   UNL     1      48.423 -56.808  60.512  0.00  0.00    +0.000 OA
ATOM     25  H   UNL     1      48.490 -57.649  60.020  0.00  0.00    +0.000 HD
ENDBRANCH  20  24
ENDBRANCH  14  16
BRANCH   2  26
ATOM     26  C   UNL     1      44.019 -55.571  54.959  0.00  0.00    +0.000 C 
ATOM     27  C   UNL     1      44.008 -56.826  55.841  0.00  0.00    +0.000 C 
BRANCH  27  28
ATOM     28  C   UNL     1      43.995 -57.979  56.656  0.00  0.00    +0.000 C 
ATOM     29  C   UNL     1      43.935 -59.337  56.027  0.00  0.00    +0.000 C 
ATOM     30  C   UNL     1      43.990 -57.838  58.147  0.00  0.00    +0.000 C 
ENDBRANCH  27  28
ENDBRANCH   2  26
TORSDOF 4
ENDMDL
MODEL 8
REMARK VINA RESULT:      -5.7     21.621     24.612
REMARK  Name = 25023738_BI-D-1870.pdbqt.pdb
REMARK  4 active torsions:
REMARK  status: ('A' for Active; 'I' for Inactive)
REMARK    1  A    between atoms: N_2  and  C_26
REMARK    2  A    between atoms: N_14  and  C_16
REMARK    3  A    between atoms: C_20  and  O_24
REMARK    4  A    between atoms: C_27  and  C_28
REMARK                            x       y       z     vdW  Elec       q    Type
REMARK                         _______ _______ _______ _____ _____    ______ ____
ROOT
ATOM      1  O   UNL     1      55.967 -58.326  63.995  0.00  0.00    +0.000 OA
ATOM      2  N   UNL     1      56.915 -55.312  62.232  0.00  0.00    +0.000 N 
ATOM      3  N   UNL     1      56.456 -56.219  64.861  0.00  0.00    +0.000 N 
ATOM      4  N   UNL     1      57.423 -53.137  63.071  0.00  0.00    +0.000 NA
ATOM      5  N   UNL     1      57.362 -52.647  65.362  0.00  0.00    +0.000 NA
ATOM      6  C   UNL     1      56.549 -56.628  62.419  0.00  0.00    +0.000 C 
ATOM      7  C   UNL     1      57.062 -54.418  63.313  0.00  0.00    +0.000 A 
ATOM      8  C   UNL     1      56.295 -57.150  63.812  0.00  0.00    +0.000 C 
ATOM      9  C   UNL     1      56.834 -54.876  64.592  0.00  0.00    +0.000 A 
ATOM     10  C   UNL     1      56.401 -57.556  61.219  0.00  0.00    +0.000 C 
ATOM     11  C   UNL     1      56.254 -56.539  66.270  0.00  0.00    +0.000 C 
ATOM     12  C   UNL     1      57.005 -53.927  65.577  0.00  0.00    +0.000 A 
ATOM     13  C   UNL     1      57.564 -52.285  64.097  0.00  0.00    +0.000 A 
ATOM     14  N   UNL     1      57.933 -50.963  63.889  0.00  0.00    +0.000 N 
ATOM     15  H   UNL     1      57.993 -50.461  64.767  0.00  0.00    +0.000 HD
ENDROOT
BRANCH  14  16
ATOM     16  C   UNL     1      58.221 -50.253  62.718  0.00  0.00    +0.000 A 
ATOM     17  C   UNL     1      59.028 -49.110  62.793  0.00  0.00    +0.000 A 
ATOM     18  C   UNL     1      59.337 -48.378  61.648  0.00  0.00    +0.000 A 
ATOM     19  F   UNL     1      60.112 -47.289  61.761  0.00  0.00    +0.000 F 
ATOM     20  C   UNL     1      58.849 -48.770  60.409  0.00  0.00    +0.000 A 
ATOM     21  C   UNL     1      58.048 -49.901  60.326  0.00  0.00    +0.000 A 
ATOM     22  F   UNL     1      57.571 -50.290  59.135  0.00  0.00    +0.000 F 
ATOM     23  C   UNL     1      57.737 -50.637  61.465  0.00  0.00    +0.000 A 
BRANCH  20  24
ATOM     24  O   UNL     1      59.155 -48.047  59.290  0.00  0.00    +0.000 OA
ATOM     25  H   UNL     1      58.324 -47.870  58.809  0.00  0.00    +0.000 HD
ENDBRANCH  20  24
ENDBRANCH  14  16
BRANCH   2  26
ATOM     26  C   UNL     1      57.160 -54.802  60.886  0.00  0.00    +0.000 C 
ATOM     27  C   UNL     1      57.416 -54.270  59.470  0.00  0.00    +0.000 C 
BRANCH  27  28
ATOM     28  C   UNL     1      57.652 -53.776  58.168  0.00  0.00    +0.000 C 
ATOM     29  C   UNL     1      56.716 -54.131  57.054  0.00  0.00    +0.000 C 
ATOM     30  C   UNL     1      58.866 -52.942  57.896  0.00  0.00    +0.000 C 
ENDBRANCH  27  28
ENDBRANCH   2  26
TORSDOF 4
ENDMDL
MODEL 9
REMARK VINA RESULT:      -5.7     17.829     20.130
REMARK  Name = 25023738_BI-D-1870.pdbqt.pdb
REMARK  4 active torsions:
REMARK  status: ('A' for Active; 'I' for Inactive)
REMARK    1  A    between atoms: N_2  and  C_26
REMARK    2  A    between atoms: N_14  and  C_16
REMARK    3  A    between atoms: C_20  and  O_24
REMARK    4  A    between atoms: C_27  and  C_28
REMARK                            x       y       z     vdW  Elec       q    Type
REMARK                         _______ _______ _______ _____ _____    ______ ____
ROOT
ATOM      1  O   UNL     1      29.035 -27.851  54.185  0.00  0.00    +0.000 OA
ATOM      2  N   UNL     1      32.597 -27.221  54.103  0.00  0.00    +0.000 N 
ATOM      3  N   UNL     1      30.680 -28.561  55.675  0.00  0.00    +0.000 N 
ATOM      4  N   UNL     1      34.316 -27.923  55.601  0.00  0.00    +0.000 NA
ATOM      5  N   UNL     1      33.856 -29.233  57.489  0.00  0.00    +0.000 NA
ATOM      6  C   UNL     1      31.277 -27.176  53.709  0.00  0.00    +0.000 C 
ATOM      7  C   UNL     1      33.007 -27.912  55.262  0.00  0.00    +0.000 A 
ATOM      8  C   UNL     1      30.222 -27.882  54.526  0.00  0.00    +0.000 C 
ATOM      9  C   UNL     1      32.059 -28.563  56.020  0.00  0.00    +0.000 A 
ATOM     10  C   UNL     1      30.882 -26.414  52.449  0.00  0.00    +0.000 C 
ATOM     11  C   UNL     1      29.810 -29.298  56.585  0.00  0.00    +0.000 C 
ATOM     12  C   UNL     1      32.559 -29.208  57.130  0.00  0.00    +0.000 A 
ATOM     13  C   UNL     1      34.709 -28.580  56.702  0.00  0.00    +0.000 A 
ATOM     14  N   UNL     1      36.044 -28.614  57.083  0.00  0.00    +0.000 N 
ATOM     15  H   UNL     1      36.164 -29.151  57.933  0.00  0.00    +0.000 HD
ENDROOT
BRANCH  14  16
ATOM     16  C   UNL     1      37.188 -28.053  56.505  0.00  0.00    +0.000 A 
ATOM     17  C   UNL     1      37.333 -26.659  56.492  0.00  0.00    +0.000 A 
ATOM     18  C   UNL     1      38.459 -26.064  55.925  0.00  0.00    +0.000 A 
ATOM     19  F   UNL     1      38.561 -24.727  55.932  0.00  0.00    +0.000 F 
ATOM     20  C   UNL     1      39.459 -26.845  55.361  0.00  0.00    +0.000 A 
ATOM     21  C   UNL     1      39.322 -28.226  55.369  0.00  0.00    +0.000 A 
ATOM     22  F   UNL     1      40.281 -28.990  54.827  0.00  0.00    +0.000 F 
ATOM     23  C   UNL     1      38.201 -28.827  55.934  0.00  0.00    +0.000 A 
BRANCH  20  24
ATOM     24  O   UNL     1      40.560 -26.255  54.806  0.00  0.00    +0.000 OA
ATOM     25  H   UNL     1      40.865 -26.818  54.069  0.00  0.00    +0.000 HD
ENDBRANCH  20  24
ENDBRANCH  14  16
BRANCH   2  26
ATOM     26  C   UNL     1      33.622 -26.537  53.318  0.00  0.00    +0.000 C 
ATOM     27  C   UNL     1      34.700 -25.825  52.493  0.00  0.00    +0.000 C 
BRANCH  27  28
ATOM     28  C   UNL     1      35.690 -25.164  51.732  0.00  0.00    +0.000 C 
ATOM     29  C   UNL     1      35.392 -24.738  50.327  0.00  0.00    +0.000 C 
ATOM     30  C   UNL     1      37.051 -24.937  52.315  0.00  0.00    +0.000 C 
ENDBRANCH  27  28
ENDBRANCH   2  26
TORSDOF 4
ENDMDL
