MODEL 1
REMARK VINA RESULT:      -5.0      0.000      0.000
REMARK  Name = 26879_Levamisole.pdbqt.pdb
REMARK  1 active torsions:
REMARK  status: ('A' for Active; 'I' for Inactive)
REMARK    1  A    between atoms: C_5  and  C_9
REMARK                            x       y       z     vdW  Elec       q    Type
REMARK                         _______ _______ _______ _____ _____    ______ ____
ROOT
ATOM      1  S   UNL     1      50.128 -38.835  44.129  0.00  0.00    +0.000 S 
ATOM      2  N   UNL     1      48.465 -36.825  45.187  0.00  0.00    +0.000 NA
ATOM      3  N   UNL     1      49.297 -38.565  46.678  0.00  0.00    +0.000 NA
ATOM      4  C   UNL     1      48.638 -36.433  46.552  0.00  0.00    +0.000 C 
ATOM      5  C   UNL     1      49.005 -37.470  47.425  0.00  0.00    +0.000 C 
ATOM      6  C   UNL     1      49.421 -36.304  44.244  0.00  0.00    +0.000 C 
ATOM      7  C   UNL     1      49.041 -38.199  45.386  0.00  0.00    +0.000 C 
ATOM      8  C   UNL     1      50.329 -37.267  43.544  0.00  0.00    +0.000 C 
ENDROOT
BRANCH   5   9
ATOM      9  C   UNL     1      49.134 -37.421  48.874  0.00  0.00    +0.000 A 
ATOM     10  C   UNL     1      49.860 -38.388  49.576  0.00  0.00    +0.000 A 
ATOM     11  C   UNL     1      48.520 -36.394  49.597  0.00  0.00    +0.000 A 
ATOM     12  C   UNL     1      49.973 -38.330  50.964  0.00  0.00    +0.000 A 
ATOM     13  C   UNL     1      48.630 -36.331  50.984  0.00  0.00    +0.000 A 
ATOM     14  C   UNL     1      49.357 -37.300  51.668  0.00  0.00    +0.000 A 
ENDBRANCH   5   9
TORSDOF 1
ENDMDL
MODEL 2
REMARK VINA RESULT:      -4.7      7.846      8.760
REMARK  Name = 26879_Levamisole.pdbqt.pdb
REMARK  1 active torsions:
REMARK  status: ('A' for Active; 'I' for Inactive)
REMARK    1  A    between atoms: C_5  and  C_9
REMARK                            x       y       z     vdW  Elec       q    Type
REMARK                         _______ _______ _______ _____ _____    ______ ____
ROOT
ATOM      1  S   UNL     1      57.373 -30.394  43.686  0.00  0.00    +0.000 S 
ATOM      2  N   UNL     1      56.713 -30.618  46.413  0.00  0.00    +0.000 NA
ATOM      3  N   UNL     1      54.943 -30.853  44.754  0.00  0.00    +0.000 NA
ATOM      4  C   UNL     1      55.624 -31.463  46.793  0.00  0.00    +0.000 C 
ATOM      5  C   UNL     1      54.556 -31.501  45.882  0.00  0.00    +0.000 C 
ATOM      6  C   UNL     1      57.955 -31.274  46.095  0.00  0.00    +0.000 C 
ATOM      7  C   UNL     1      56.198 -30.382  45.021  0.00  0.00    +0.000 C 
ATOM      8  C   UNL     1      58.472 -31.180  44.693  0.00  0.00    +0.000 C 
ENDROOT
BRANCH   5   9
ATOM      9  C   UNL     1      53.267 -32.159  46.036  0.00  0.00    +0.000 A 
ATOM     10  C   UNL     1      52.969 -33.348  45.364  0.00  0.00    +0.000 A 
ATOM     11  C   UNL     1      52.291 -31.601  46.867  0.00  0.00    +0.000 A 
ATOM     12  C   UNL     1      51.730 -33.966  45.518  0.00  0.00    +0.000 A 
ATOM     13  C   UNL     1      51.050 -32.215  47.025  0.00  0.00    +0.000 A 
ATOM     14  C   UNL     1      50.770 -33.399  46.350  0.00  0.00    +0.000 A 
ENDBRANCH   5   9
TORSDOF 1
ENDMDL
MODEL 3
REMARK VINA RESULT:      -4.7      7.587      8.984
REMARK  Name = 26879_Levamisole.pdbqt.pdb
REMARK  1 active torsions:
REMARK  status: ('A' for Active; 'I' for Inactive)
REMARK    1  A    between atoms: C_5  and  C_9
REMARK                            x       y       z     vdW  Elec       q    Type
REMARK                         _______ _______ _______ _____ _____    ______ ____
ROOT
ATOM      1  S   UNL     1      47.555 -40.960  50.711  0.00  0.00    +0.000 S 
ATOM      2  N   UNL     1      49.314 -43.051  50.032  0.00  0.00    +0.000 NA
ATOM      3  N   UNL     1      47.689 -43.415  51.812  0.00  0.00    +0.000 NA
ATOM      4  C   UNL     1      48.876 -44.402  50.196  0.00  0.00    +0.000 C 
ATOM      5  C   UNL     1      48.032 -44.623  51.296  0.00  0.00    +0.000 C 
ATOM      6  C   UNL     1      48.821 -42.352  48.872  0.00  0.00    +0.000 C 
ATOM      7  C   UNL     1      48.377 -42.497  51.068  0.00  0.00    +0.000 C 
ATOM      8  C   UNL     1      47.929 -41.168  49.080  0.00  0.00    +0.000 C 
ENDROOT
BRANCH   5   9
ATOM      9  C   UNL     1      47.524 -45.891  51.798  0.00  0.00    +0.000 A 
ATOM     10  C   UNL     1      46.320 -45.968  52.504  0.00  0.00    +0.000 A 
ATOM     11  C   UNL     1      48.246 -47.068  51.584  0.00  0.00    +0.000 A 
ATOM     12  C   UNL     1      45.847 -47.188  52.982  0.00  0.00    +0.000 A 
ATOM     13  C   UNL     1      47.778 -48.292  52.059  0.00  0.00    +0.000 A 
ATOM     14  C   UNL     1      46.578 -48.351  52.759  0.00  0.00    +0.000 A 
ENDBRANCH   5   9
TORSDOF 1
ENDMDL
MODEL 4
REMARK VINA RESULT:      -4.7      2.289      5.085
REMARK  Name = 26879_Levamisole.pdbqt.pdb
REMARK  1 active torsions:
REMARK  status: ('A' for Active; 'I' for Inactive)
REMARK    1  A    between atoms: C_5  and  C_9
REMARK                            x       y       z     vdW  Elec       q    Type
REMARK                         _______ _______ _______ _____ _____    ______ ____
ROOT
ATOM      1  S   UNL     1      49.120 -41.085  49.126  0.00  0.00    +0.000 S 
ATOM      2  N   UNL     1      49.803 -38.550  50.143  0.00  0.00    +0.000 NA
ATOM      3  N   UNL     1      49.683 -38.852  47.727  0.00  0.00    +0.000 NA
ATOM      4  C   UNL     1      49.440 -37.386  49.396  0.00  0.00    +0.000 C 
ATOM      5  C   UNL     1      49.487 -37.537  48.001  0.00  0.00    +0.000 C 
ATOM      6  C   UNL     1      48.752 -39.179  50.902  0.00  0.00    +0.000 C 
ATOM      7  C   UNL     1      49.817 -39.458  48.945  0.00  0.00    +0.000 C 
ATOM      8  C   UNL     1      48.330 -40.565  50.522  0.00  0.00    +0.000 C 
ENDROOT
BRANCH   5   9
ATOM      9  C   UNL     1      49.298 -36.518  46.980  0.00  0.00    +0.000 A 
ATOM     10  C   UNL     1      48.579 -36.780  45.810  0.00  0.00    +0.000 A 
ATOM     11  C   UNL     1      49.844 -35.243  47.154  0.00  0.00    +0.000 A 
ATOM     12  C   UNL     1      48.408 -35.795  44.839  0.00  0.00    +0.000 A 
ATOM     13  C   UNL     1      49.676 -34.254  46.187  0.00  0.00    +0.000 A 
ATOM     14  C   UNL     1      48.957 -34.531  45.029  0.00  0.00    +0.000 A 
ENDBRANCH   5   9
TORSDOF 1
ENDMDL
MODEL 5
REMARK VINA RESULT:      -4.5     18.685     20.254
REMARK  Name = 26879_Levamisole.pdbqt.pdb
REMARK  1 active torsions:
REMARK  status: ('A' for Active; 'I' for Inactive)
REMARK    1  A    between atoms: C_5  and  C_9
REMARK                            x       y       z     vdW  Elec       q    Type
REMARK                         _______ _______ _______ _____ _____    ______ ____
ROOT
ATOM      1  S   UNL     1      59.042 -53.078  59.331  0.00  0.00    +0.000 S 
ATOM      2  N   UNL     1      57.995 -51.331  61.274  0.00  0.00    +0.000 NA
ATOM      3  N   UNL     1      59.743 -50.516  59.784  0.00  0.00    +0.000 NA
ATOM      4  C   UNL     1      57.959 -49.929  60.995  0.00  0.00    +0.000 C 
ATOM      5  C   UNL     1      59.036 -49.448  60.232  0.00  0.00    +0.000 C 
ATOM      6  C   UNL     1      56.973 -52.135  60.654  0.00  0.00    +0.000 C 
ATOM      7  C   UNL     1      59.132 -51.609  60.331  0.00  0.00    +0.000 C 
ATOM      8  C   UNL     1      57.388 -53.163  59.648  0.00  0.00    +0.000 C 
ENDROOT
BRANCH   5   9
ATOM      9  C   UNL     1      59.349 -48.069  59.890  0.00  0.00    +0.000 A 
ATOM     10  C   UNL     1      59.773 -47.712  58.606  0.00  0.00    +0.000 A 
ATOM     11  C   UNL     1      59.235 -47.065  60.856  0.00  0.00    +0.000 A 
ATOM     12  C   UNL     1      60.073 -46.388  58.293  0.00  0.00    +0.000 A 
ATOM     13  C   UNL     1      59.533 -45.739  60.549  0.00  0.00    +0.000 A 
ATOM     14  C   UNL     1      59.952 -45.401  59.266  0.00  0.00    +0.000 A 
ENDBRANCH   5   9
TORSDOF 1
ENDMDL
MODEL 6
REMARK VINA RESULT:      -4.4      7.561      8.742
REMARK  Name = 26879_Levamisole.pdbqt.pdb
REMARK  1 active torsions:
REMARK  status: ('A' for Active; 'I' for Inactive)
REMARK    1  A    between atoms: C_5  and  C_9
REMARK                            x       y       z     vdW  Elec       q    Type
REMARK                         _______ _______ _______ _____ _____    ______ ____
ROOT
ATOM      1  S   UNL     1      49.064 -41.706  49.023  0.00  0.00    +0.000 S 
ATOM      2  N   UNL     1      50.354 -44.205  49.162  0.00  0.00    +0.000 NA
ATOM      3  N   UNL     1      48.567 -43.717  50.746  0.00  0.00    +0.000 NA
ATOM      4  C   UNL     1      49.614 -45.339  49.621  0.00  0.00    +0.000 C 
ATOM      5  C   UNL     1      48.666 -45.065  50.620  0.00  0.00    +0.000 C 
ATOM      6  C   UNL     1      50.114 -43.788  47.804  0.00  0.00    +0.000 C 
ATOM      7  C   UNL     1      49.493 -43.205  49.881  0.00  0.00    +0.000 C 
ATOM      8  C   UNL     1      49.497 -42.444  47.570  0.00  0.00    +0.000 C 
ENDROOT
BRANCH   5   9
ATOM      9  C   UNL     1      47.853 -46.010  51.370  0.00  0.00    +0.000 A 
ATOM     10  C   UNL     1      48.153 -47.375  51.392  0.00  0.00    +0.000 A 
ATOM     11  C   UNL     1      46.740 -45.561  52.088  0.00  0.00    +0.000 A 
ATOM     12  C   UNL     1      47.365 -48.271  52.113  0.00  0.00    +0.000 A 
ATOM     13  C   UNL     1      45.948 -46.452  52.810  0.00  0.00    +0.000 A 
ATOM     14  C   UNL     1      46.262 -47.807  52.822  0.00  0.00    +0.000 A 
ENDBRANCH   5   9
TORSDOF 1
ENDMDL
MODEL 7
REMARK VINA RESULT:      -4.4     16.180     18.140
REMARK  Name = 26879_Levamisole.pdbqt.pdb
REMARK  1 active torsions:
REMARK  status: ('A' for Active; 'I' for Inactive)
REMARK    1  A    between atoms: C_5  and  C_9
REMARK                            x       y       z     vdW  Elec       q    Type
REMARK                         _______ _______ _______ _____ _____    ______ ____
ROOT
ATOM      1  S   UNL     1      44.226 -55.163  56.868  0.00  0.00    +0.000 S 
ATOM      2  N   UNL     1      46.941 -54.466  57.135  0.00  0.00    +0.000 NA
ATOM      3  N   UNL     1      45.756 -53.814  55.107  0.00  0.00    +0.000 NA
ATOM      4  C   UNL     1      47.412 -53.271  56.506  0.00  0.00    +0.000 C 
ATOM      5  C   UNL     1      46.802 -52.967  55.278  0.00  0.00    +0.000 C 
ATOM      6  C   UNL     1      46.209 -54.298  58.365  0.00  0.00    +0.000 C 
ATOM      7  C   UNL     1      45.788 -54.650  56.188  0.00  0.00    +0.000 C 
ATOM      8  C   UNL     1      44.766 -54.697  58.395  0.00  0.00    +0.000 C 
ENDROOT
BRANCH   5   9
ATOM      9  C   UNL     1      47.143 -51.903  54.346  0.00  0.00    +0.000 A 
ATOM     10  C   UNL     1      48.048 -52.111  53.299  0.00  0.00    +0.000 A 
ATOM     11  C   UNL     1      46.568 -50.638  54.486  0.00  0.00    +0.000 A 
ATOM     12  C   UNL     1      48.368 -51.082  52.415  0.00  0.00    +0.000 A 
ATOM     13  C   UNL     1      46.884 -49.605  53.605  0.00  0.00    +0.000 A 
ATOM     14  C   UNL     1      47.784 -49.829  52.569  0.00  0.00    +0.000 A 
ENDBRANCH   5   9
TORSDOF 1
ENDMDL
MODEL 8
REMARK VINA RESULT:      -4.4     19.146     20.668
REMARK  Name = 26879_Levamisole.pdbqt.pdb
REMARK  1 active torsions:
REMARK  status: ('A' for Active; 'I' for Inactive)
REMARK    1  A    between atoms: C_5  and  C_9
REMARK                            x       y       z     vdW  Elec       q    Type
REMARK                         _______ _______ _______ _____ _____    ______ ____
ROOT
ATOM      1  S   UNL     1      60.938 -22.154  60.207  0.00  0.00    +0.000 S 
ATOM      2  N   UNL     1      59.230 -24.261  59.452  0.00  0.00    +0.000 NA
ATOM      3  N   UNL     1      61.075 -23.658  57.976  0.00  0.00    +0.000 NA
ATOM      4  C   UNL     1      59.760 -25.330  58.663  0.00  0.00    +0.000 C 
ATOM      5  C   UNL     1      60.741 -24.951  57.732  0.00  0.00    +0.000 C 
ATOM      6  C   UNL     1      59.541 -24.286  60.858  0.00  0.00    +0.000 C 
ATOM      7  C   UNL     1      60.253 -23.260  58.993  0.00  0.00    +0.000 C 
ATOM      8  C   UNL     1      60.384 -23.184  61.421  0.00  0.00    +0.000 C 
ENDROOT
BRANCH   5   9
ATOM      9  C   UNL     1      61.375 -25.772  56.712  0.00  0.00    +0.000 A 
ATOM     10  C   UNL     1      60.690 -26.160  55.556  0.00  0.00    +0.000 A 
ATOM     11  C   UNL     1      62.697 -26.196  56.876  0.00  0.00    +0.000 A 
ATOM     12  C   UNL     1      61.309 -26.949  54.588  0.00  0.00    +0.000 A 
ATOM     13  C   UNL     1      63.321 -26.985  55.911  0.00  0.00    +0.000 A 
ATOM     14  C   UNL     1      62.625 -27.361  54.767  0.00  0.00    +0.000 A 
ENDBRANCH   5   9
TORSDOF 1
ENDMDL
MODEL 9
REMARK VINA RESULT:      -4.4     19.338     19.779
REMARK  Name = 26879_Levamisole.pdbqt.pdb
REMARK  1 active torsions:
REMARK  status: ('A' for Active; 'I' for Inactive)
REMARK    1  A    between atoms: C_5  and  C_9
REMARK                            x       y       z     vdW  Elec       q    Type
REMARK                         _______ _______ _______ _____ _____    ______ ____
ROOT
ATOM      1  S   UNL     1      64.145 -47.574  57.642  0.00  0.00    +0.000 S 
ATOM      2  N   UNL     1      62.945 -45.282  58.750  0.00  0.00    +0.000 NA
ATOM      3  N   UNL     1      61.650 -47.344  58.633  0.00  0.00    +0.000 NA
ATOM      4  C   UNL     1      61.956 -45.445  59.771  0.00  0.00    +0.000 C 
ATOM      5  C   UNL     1      61.137 -46.577  59.629  0.00  0.00    +0.000 C 
ATOM      6  C   UNL     1      64.318 -45.431  59.158  0.00  0.00    +0.000 C 
ATOM      7  C   UNL     1      62.718 -46.640  58.150  0.00  0.00    +0.000 C 
ATOM      8  C   UNL     1      65.110 -46.569  58.590  0.00  0.00    +0.000 C 
ENDROOT
BRANCH   5   9
ATOM      9  C   UNL     1      59.976 -46.950  60.421  0.00  0.00    +0.000 A 
ATOM     10  C   UNL     1      59.336 -46.031  61.258  0.00  0.00    +0.000 A 
ATOM     11  C   UNL     1      59.476 -48.254  60.361  0.00  0.00    +0.000 A 
ATOM     12  C   UNL     1      58.226 -46.402  62.014  0.00  0.00    +0.000 A 
ATOM     13  C   UNL     1      58.366 -48.631  61.114  0.00  0.00    +0.000 A 
ATOM     14  C   UNL     1      57.741 -47.704  61.941  0.00  0.00    +0.000 A 
ENDBRANCH   5   9
TORSDOF 1
ENDMDL
