MODEL 1
REMARK VINA RESULT:      -5.0      0.000      0.000
REMARK  Name = 27924_Phorbol.pdbqt.pdb
REMARK  26 active torsions:
REMARK  status: ('A' for Active; 'I' for Inactive)
REMARK    1  A    between atoms: O_1  and  C_10
REMARK    2  A    between atoms: O_1  and  C_26
REMARK    3  A    between atoms: O_2  and  C_13
REMARK    4  A    between atoms: O_2  and  C_28
REMARK    5  A    between atoms: O_3  and  C_14
REMARK    6  A    between atoms: O_4  and  C_20
REMARK    7  A    between atoms: O_7  and  C_29
REMARK    8  A    between atoms: C_11  and  C_16
REMARK    9  A    between atoms: C_11  and  C_17
REMARK   10  A    between atoms: C_15  and  C_21
REMARK   11  A    between atoms: C_22  and  C_29
REMARK   12  A    between atoms: C_26  and  C_30
REMARK   13  A    between atoms: C_27  and  C_31
REMARK   14  A    between atoms: C_28  and  C_32
REMARK   15  A    between atoms: C_32  and  C_33
REMARK   16  A    between atoms: C_33  and  C_34
REMARK   17  A    between atoms: C_34  and  C_35
REMARK   18  A    between atoms: C_35  and  C_36
REMARK   19  A    between atoms: C_36  and  C_37
REMARK   20  A    between atoms: C_37  and  C_38
REMARK   21  A    between atoms: C_38  and  C_39
REMARK   22  A    between atoms: C_39  and  C_40
REMARK   23  A    between atoms: C_40  and  C_41
REMARK   24  A    between atoms: C_41  and  C_42
REMARK   25  A    between atoms: C_42  and  C_43
REMARK   26  A    between atoms: C_43  and  C_44
REMARK                            x       y       z     vdW  Elec       q    Type
REMARK                         _______ _______ _______ _____ _____    ______ ____
ROOT
ATOM      1  O   UNL     1      50.788 -47.971  52.126  0.00  0.00    +0.000 OA
ATOM      2  C   UNL     1      43.904 -48.292  50.432  0.00  0.00    +0.000 C 
ATOM      3  C   UNL     1      43.353 -47.396  49.339  0.00  0.00    +0.000 C 
ATOM      4  C   UNL     1      43.023 -47.126  50.834  0.00  0.00    +0.000 C 
ATOM      5  C   UNL     1      45.381 -48.503  50.581  0.00  0.00    +0.000 C 
ATOM      6  C   UNL     1      44.371 -46.581  48.520  0.00  0.00    +0.000 C 
ATOM      7  C   UNL     1      46.367 -47.481  49.849  0.00  0.00    +0.000 C 
ATOM      8  C   UNL     1      45.747 -47.327  48.404  0.00  0.00    +0.000 C 
ATOM      9  C   UNL     1      41.669 -47.532  51.392  0.00  0.00    +0.000 C 
ATOM     10  C   UNL     1      43.590 -45.943  51.580  0.00  0.00    +0.000 C 
ATOM     11  C   UNL     1      47.877 -48.030  49.990  0.00  0.00    +0.000 C 
ATOM     12  C   UNL     1      45.804 -48.831  52.001  0.00  0.00    +0.000 C 
ATOM     13  C   UNL     1      48.445 -48.061  51.478  0.00  0.00    +0.000 C 
ATOM     14  C   UNL     1      46.636 -46.643  47.365  0.00  0.00    +0.000 C 
ATOM     15  C   UNL     1      46.732 -49.802  52.138  0.00  0.00    +0.000 C 
ATOM     16  C   UNL     1      48.171 -49.343  52.294  0.00  0.00    +0.000 C 
ATOM     17  C   UNL     1      49.015 -47.298  49.289  0.00  0.00    +0.000 C 
ATOM     18  C   UNL     1      49.926 -47.826  51.272  0.00  0.00    +0.000 C 
ATOM     19  C   UNL     1      50.177 -47.239  49.951  0.00  0.00    +0.000 C 
ATOM     20  C   UNL     1      51.491 -46.696  49.546  0.00  0.00    +0.000 C 
ENDROOT
BRANCH   7  21
ATOM     21  O   UNL     1      46.329 -46.176  50.441  0.00  0.00    +0.000 OA
ATOM     22  H   UNL     1      45.412 -45.833  50.355  0.00  0.00    +0.000 HD
ENDBRANCH   7  21
BRANCH  13  23
ATOM     23  O   UNL     1      48.023 -46.898  52.231  0.00  0.00    +0.000 OA
ATOM     24  H   UNL     1      48.238 -47.090  53.168  0.00  0.00    +0.000 HD
ENDBRANCH  13  23
BRANCH   3  25
ATOM     25  O   UNL     1      42.398 -48.137  48.536  0.00  0.00    +0.000 OA
BRANCH  25  27
ATOM     26  O   UNL     1      43.425 -49.767  47.382  0.00  0.00    +0.000 OA
ATOM     27  C   UNL     1      42.537 -49.435  48.165  0.00  0.00    +0.000 C 
ATOM     28  C   UNL     1      41.643 -50.464  48.789  0.00  0.00    +0.000 C 
ENDBRANCH  25  27
ENDBRANCH   3  25
BRANCH  15  29
ATOM     29  C   UNL     1      46.561 -51.196  51.594  0.00  0.00    +0.000 C 
BRANCH  29  30
ATOM     30  O   UNL     1      47.715 -51.521  50.837  0.00  0.00    +0.000 OA
ATOM     31  H   UNL     1      47.405 -51.996  50.045  0.00  0.00    +0.000 HD
ENDBRANCH  29  30
ENDBRANCH  15  29
BRANCH   6  32
ATOM     32  O   UNL     1      43.811 -46.367  47.195  0.00  0.00    +0.000 OA
BRANCH  32  34
ATOM     33  O   UNL     1      42.312 -44.720  46.990  0.00  0.00    +0.000 OA
ATOM     34  C   UNL     1      43.414 -45.175  46.693  0.00  0.00    +0.000 C 
BRANCH  34  35
ATOM     35  C   UNL     1      44.335 -44.417  45.770  0.00  0.00    +0.000 C 
BRANCH  35  36
ATOM     36  C   UNL     1      44.816 -43.114  46.399  0.00  0.00    +0.000 C 
BRANCH  36  37
ATOM     37  C   UNL     1      46.187 -43.213  47.076  0.00  0.00    +0.000 C 
BRANCH  37  38
ATOM     38  C   UNL     1      47.378 -43.121  46.113  0.00  0.00    +0.000 C 
BRANCH  38  39
ATOM     39  C   UNL     1      48.686 -42.769  46.830  0.00  0.00    +0.000 C 
BRANCH  39  40
ATOM     40  C   UNL     1      49.219 -43.897  47.717  0.00  0.00    +0.000 C 
BRANCH  40  41
ATOM     41  C   UNL     1      49.748 -43.401  49.066  0.00  0.00    +0.000 C 
BRANCH  41  42
ATOM     42  C   UNL     1      48.846 -43.775  50.245  0.00  0.00    +0.000 C 
BRANCH  42  43
ATOM     43  C   UNL     1      47.729 -42.779  50.572  0.00  0.00    +0.000 C 
BRANCH  43  44
ATOM     44  C   UNL     1      48.134 -41.603  51.466  0.00  0.00    +0.000 C 
BRANCH  44  45
ATOM     45  C   UNL     1      48.073 -40.221  50.808  0.00  0.00    +0.000 C 
BRANCH  45  46
ATOM     46  C   UNL     1      48.270 -40.197  49.291  0.00  0.00    +0.000 C 
ATOM     47  C   UNL     1      49.648 -39.714  48.866  0.00  0.00    +0.000 C 
ENDBRANCH  45  46
ENDBRANCH  44  45
ENDBRANCH  43  44
ENDBRANCH  42  43
ENDBRANCH  41  42
ENDBRANCH  40  41
ENDBRANCH  39  40
ENDBRANCH  38  39
ENDBRANCH  37  38
ENDBRANCH  36  37
ENDBRANCH  35  36
ENDBRANCH  34  35
ENDBRANCH  32  34
ENDBRANCH   6  32
TORSDOF 20
ENDMDL
MODEL 2
REMARK VINA RESULT:      -4.9      2.240      6.299
REMARK  Name = 27924_Phorbol.pdbqt.pdb
REMARK  26 active torsions:
REMARK  status: ('A' for Active; 'I' for Inactive)
REMARK    1  A    between atoms: O_1  and  C_10
REMARK    2  A    between atoms: O_1  and  C_26
REMARK    3  A    between atoms: O_2  and  C_13
REMARK    4  A    between atoms: O_2  and  C_28
REMARK    5  A    between atoms: O_3  and  C_14
REMARK    6  A    between atoms: O_4  and  C_20
REMARK    7  A    between atoms: O_7  and  C_29
REMARK    8  A    between atoms: C_11  and  C_16
REMARK    9  A    between atoms: C_11  and  C_17
REMARK   10  A    between atoms: C_15  and  C_21
REMARK   11  A    between atoms: C_22  and  C_29
REMARK   12  A    between atoms: C_26  and  C_30
REMARK   13  A    between atoms: C_27  and  C_31
REMARK   14  A    between atoms: C_28  and  C_32
REMARK   15  A    between atoms: C_32  and  C_33
REMARK   16  A    between atoms: C_33  and  C_34
REMARK   17  A    between atoms: C_34  and  C_35
REMARK   18  A    between atoms: C_35  and  C_36
REMARK   19  A    between atoms: C_36  and  C_37
REMARK   20  A    between atoms: C_37  and  C_38
REMARK   21  A    between atoms: C_38  and  C_39
REMARK   22  A    between atoms: C_39  and  C_40
REMARK   23  A    between atoms: C_40  and  C_41
REMARK   24  A    between atoms: C_41  and  C_42
REMARK   25  A    between atoms: C_42  and  C_43
REMARK   26  A    between atoms: C_43  and  C_44
REMARK                            x       y       z     vdW  Elec       q    Type
REMARK                         _______ _______ _______ _____ _____    ______ ____
ROOT
ATOM      1  O   UNL     1      39.771 -47.419  46.829  0.00  0.00    +0.000 OA
ATOM      2  C   UNL     1      46.475 -47.994  49.084  0.00  0.00    +0.000 C 
ATOM      3  C   UNL     1      47.023 -46.993  50.084  0.00  0.00    +0.000 C 
ATOM      4  C   UNL     1      47.475 -46.965  48.596  0.00  0.00    +0.000 C 
ATOM      5  C   UNL     1      44.999 -48.116  48.850  0.00  0.00    +0.000 C 
ATOM      6  C   UNL     1      46.024 -45.998  50.701  0.00  0.00    +0.000 C 
ATOM      7  C   UNL     1      44.054 -46.932  49.356  0.00  0.00    +0.000 C 
ATOM      8  C   UNL     1      44.586 -46.618  50.810  0.00  0.00    +0.000 C 
ATOM      9  C   UNL     1      48.825 -47.543  48.207  0.00  0.00    +0.000 C 
ATOM     10  C   UNL     1      47.060 -45.862  47.654  0.00  0.00    +0.000 C 
ATOM     11  C   UNL     1      42.517 -47.384  49.174  0.00  0.00    +0.000 C 
ATOM     12  C   UNL     1      44.647 -48.612  47.460  0.00  0.00    +0.000 C 
ATOM     13  C   UNL     1      42.049 -47.586  47.665  0.00  0.00    +0.000 C 
ATOM     14  C   UNL     1      43.689 -45.731  51.673  0.00  0.00    +0.000 C 
ATOM     15  C   UNL     1      43.653 -49.523  47.385  0.00  0.00    +0.000 C 
ATOM     16  C   UNL     1      42.270 -48.988  47.056  0.00  0.00    +0.000 C 
ATOM     17  C   UNL     1      41.399 -46.479  49.677  0.00  0.00    +0.000 C 
ATOM     18  C   UNL     1      40.582 -47.217  47.720  0.00  0.00    +0.000 C 
ATOM     19  C   UNL     1      40.293 -46.431  48.924  0.00  0.00    +0.000 C 
ATOM     20  C   UNL     1      39.004 -45.741  49.147  0.00  0.00    +0.000 C 
ENDROOT
BRANCH   7  21
ATOM     21  O   UNL     1      44.240 -45.731  48.596  0.00  0.00    +0.000 OA
ATOM     22  H   UNL     1      43.871 -45.882  47.698  0.00  0.00    +0.000 HD
ENDBRANCH   7  21
BRANCH  13  23
ATOM     23  O   UNL     1      42.616 -46.576  46.794  0.00  0.00    +0.000 OA
ATOM     24  H   UNL     1      43.453 -46.293  47.217  0.00  0.00    +0.000 HD
ENDBRANCH  13  23
BRANCH   3  25
ATOM     25  O   UNL     1      47.858 -47.680  51.053  0.00  0.00    +0.000 OA
BRANCH  25  27
ATOM     26  O   UNL     1      46.590 -49.106  52.238  0.00  0.00    +0.000 OA
ATOM     27  C   UNL     1      47.601 -48.910  51.566  0.00  0.00    +0.000 C 
ATOM     28  C   UNL     1      48.528 -50.040  51.230  0.00  0.00    +0.000 C 
ENDBRANCH  25  27
ENDBRANCH   3  25
BRANCH  15  29
ATOM     29  C   UNL     1      43.671 -50.834  48.127  0.00  0.00    +0.000 C 
BRANCH  29  30
ATOM     30  O   UNL     1      42.409 -51.009  48.748  0.00  0.00    +0.000 OA
ATOM     31  H   UNL     1      42.179 -51.951  48.654  0.00  0.00    +0.000 HD
ENDBRANCH  29  30
ENDBRANCH  15  29
BRANCH   6  32
ATOM     32  O   UNL     1      46.509 -45.638  52.024  0.00  0.00    +0.000 OA
BRANCH  32  34
ATOM     33  O   UNL     1      47.936 -44.604  53.401  0.00  0.00    +0.000 OA
ATOM     34  C   UNL     1      47.411 -44.666  52.292  0.00  0.00    +0.000 C 
BRANCH  34  35
ATOM     35  C   UNL     1      47.762 -43.665  51.220  0.00  0.00    +0.000 C 
BRANCH  35  36
ATOM     36  C   UNL     1      49.004 -44.084  50.443  0.00  0.00    +0.000 C 
BRANCH  36  37
ATOM     37  C   UNL     1      49.550 -43.004  49.502  0.00  0.00    +0.000 C 
BRANCH  37  38
ATOM     38  C   UNL     1      48.475 -42.106  48.876  0.00  0.00    +0.000 C 
BRANCH  38  39
ATOM     39  C   UNL     1      48.624 -40.638  49.288  0.00  0.00    +0.000 C 
BRANCH  39  40
ATOM     40  C   UNL     1      49.553 -39.837  48.371  0.00  0.00    +0.000 C 
BRANCH  40  41
ATOM     41  C   UNL     1      50.069 -38.549  49.017  0.00  0.00    +0.000 C 
BRANCH  41  42
ATOM     42  C   UNL     1      49.622 -37.281  48.283  0.00  0.00    +0.000 C 
BRANCH  42  43
ATOM     43  C   UNL     1      48.686 -36.354  49.063  0.00  0.00    +0.000 C 
BRANCH  43  44
ATOM     44  C   UNL     1      48.369 -36.790  50.497  0.00  0.00    +0.000 C 
BRANCH  44  45
ATOM     45  C   UNL     1      47.001 -36.356  51.033  0.00  0.00    +0.000 C 
BRANCH  45  46
ATOM     46  C   UNL     1      47.020 -35.571  52.346  0.00  0.00    +0.000 C 
ATOM     47  C   UNL     1      48.421 -35.230  52.828  0.00  0.00    +0.000 C 
ENDBRANCH  45  46
ENDBRANCH  44  45
ENDBRANCH  43  44
ENDBRANCH  42  43
ENDBRANCH  41  42
ENDBRANCH  40  41
ENDBRANCH  39  40
ENDBRANCH  38  39
ENDBRANCH  37  38
ENDBRANCH  36  37
ENDBRANCH  35  36
ENDBRANCH  34  35
ENDBRANCH  32  34
ENDBRANCH   6  32
TORSDOF 20
ENDMDL
MODEL 3
REMARK VINA RESULT:      -4.8      3.618      9.647
REMARK  Name = 27924_Phorbol.pdbqt.pdb
REMARK  26 active torsions:
REMARK  status: ('A' for Active; 'I' for Inactive)
REMARK    1  A    between atoms: O_1  and  C_10
REMARK    2  A    between atoms: O_1  and  C_26
REMARK    3  A    between atoms: O_2  and  C_13
REMARK    4  A    between atoms: O_2  and  C_28
REMARK    5  A    between atoms: O_3  and  C_14
REMARK    6  A    between atoms: O_4  and  C_20
REMARK    7  A    between atoms: O_7  and  C_29
REMARK    8  A    between atoms: C_11  and  C_16
REMARK    9  A    between atoms: C_11  and  C_17
REMARK   10  A    between atoms: C_15  and  C_21
REMARK   11  A    between atoms: C_22  and  C_29
REMARK   12  A    between atoms: C_26  and  C_30
REMARK   13  A    between atoms: C_27  and  C_31
REMARK   14  A    between atoms: C_28  and  C_32
REMARK   15  A    between atoms: C_32  and  C_33
REMARK   16  A    between atoms: C_33  and  C_34
REMARK   17  A    between atoms: C_34  and  C_35
REMARK   18  A    between atoms: C_35  and  C_36
REMARK   19  A    between atoms: C_36  and  C_37
REMARK   20  A    between atoms: C_37  and  C_38
REMARK   21  A    between atoms: C_38  and  C_39
REMARK   22  A    between atoms: C_39  and  C_40
REMARK   23  A    between atoms: C_40  and  C_41
REMARK   24  A    between atoms: C_41  and  C_42
REMARK   25  A    between atoms: C_42  and  C_43
REMARK   26  A    between atoms: C_43  and  C_44
REMARK                            x       y       z     vdW  Elec       q    Type
REMARK                         _______ _______ _______ _____ _____    ______ ____
ROOT
ATOM      1  O   UNL     1      49.086 -37.852  48.692  0.00  0.00    +0.000 OA
ATOM      2  C   UNL     1      48.842 -44.876  47.714  0.00  0.00    +0.000 C 
ATOM      3  C   UNL     1      48.761 -45.803  48.913  0.00  0.00    +0.000 C 
ATOM      4  C   UNL     1      50.071 -45.684  48.083  0.00  0.00    +0.000 C 
ATOM      5  C   UNL     1      48.551 -43.412  47.854  0.00  0.00    +0.000 C 
ATOM      6  C   UNL     1      48.551 -45.150  50.292  0.00  0.00    +0.000 C 
ATOM      7  C   UNL     1      48.549 -42.780  49.321  0.00  0.00    +0.000 C 
ATOM      8  C   UNL     1      47.726 -43.820  50.179  0.00  0.00    +0.000 C 
ATOM      9  C   UNL     1      50.429 -46.767  47.079  0.00  0.00    +0.000 C 
ATOM     10  C   UNL     1      51.307 -45.013  48.629  0.00  0.00    +0.000 C 
ATOM     11  C   UNL     1      48.018 -41.260  49.227  0.00  0.00    +0.000 C 
ATOM     12  C   UNL     1      49.273 -42.553  46.832  0.00  0.00    +0.000 C 
ATOM     13  C   UNL     1      48.964 -40.266  48.418  0.00  0.00    +0.000 C 
ATOM     14  C   UNL     1      47.292 -43.346  51.566  0.00  0.00    +0.000 C 
ATOM     15  C   UNL     1      48.554 -41.553  46.279  0.00  0.00    +0.000 C 
ATOM     16  C   UNL     1      48.728 -40.176  46.894  0.00  0.00    +0.000 C 
ATOM     17  C   UNL     1      47.816 -40.451  50.502  0.00  0.00    +0.000 C 
ATOM     18  C   UNL     1      48.721 -38.941  49.109  0.00  0.00    +0.000 C 
ATOM     19  C   UNL     1      48.129 -39.151  50.435  0.00  0.00    +0.000 C 
ATOM     20  C   UNL     1      47.981 -38.070  51.432  0.00  0.00    +0.000 C 
ENDROOT
BRANCH   7  21
ATOM     21  O   UNL     1      49.862 -42.740  49.894  0.00  0.00    +0.000 OA
ATOM     22  H   UNL     1      49.936 -43.485  50.531  0.00  0.00    +0.000 HD
ENDBRANCH   7  21
BRANCH  13  23
ATOM     23  O   UNL     1      50.363 -40.530  48.684  0.00  0.00    +0.000 OA
ATOM     24  H   UNL     1      50.678 -39.787  49.240  0.00  0.00    +0.000 HD
ENDBRANCH  13  23
BRANCH   3  25
ATOM     25  O   UNL     1      47.849 -46.895  48.624  0.00  0.00    +0.000 OA
BRANCH  25  27
ATOM     26  O   UNL     1      46.698 -47.226  46.725  0.00  0.00    +0.000 OA
ATOM     27  C   UNL     1      46.723 -46.789  47.874  0.00  0.00    +0.000 C 
ATOM     28  C   UNL     1      45.491 -46.207  48.498  0.00  0.00    +0.000 C 
ENDBRANCH  25  27
ENDBRANCH   3  25
BRANCH  15  29
ATOM     29  C   UNL     1      47.250 -41.769  45.556  0.00  0.00    +0.000 C 
BRANCH  29  30
ATOM     30  O   UNL     1      46.297 -40.859  46.078  0.00  0.00    +0.000 OA
ATOM     31  H   UNL     1      45.654 -41.388  46.583  0.00  0.00    +0.000 HD
ENDBRANCH  29  30
ENDBRANCH  15  29
BRANCH   6  32
ATOM     32  O   UNL     1      47.845 -46.102  51.134  0.00  0.00    +0.000 OA
BRANCH  32  34
ATOM     33  O   UNL     1      49.499 -47.157  52.206  0.00  0.00    +0.000 OA
ATOM     34  C   UNL     1      48.384 -47.209  51.692  0.00  0.00    +0.000 C 
BRANCH  34  35
ATOM     35  C   UNL     1      47.606 -48.500  51.677  0.00  0.00    +0.000 C 
BRANCH  35  36
ATOM     36  C   UNL     1      47.896 -49.348  52.911  0.00  0.00    +0.000 C 
BRANCH  36  37
ATOM     37  C   UNL     1      46.660 -50.024  53.513  0.00  0.00    +0.000 C 
BRANCH  37  38
ATOM     38  C   UNL     1      46.831 -51.523  53.795  0.00  0.00    +0.000 C 
BRANCH  38  39
ATOM     39  C   UNL     1      47.056 -51.817  55.282  0.00  0.00    +0.000 C 
BRANCH  39  40
ATOM     40  C   UNL     1      46.726 -53.260  55.676  0.00  0.00    +0.000 C 
BRANCH  40  41
ATOM     41  C   UNL     1      46.981 -53.550  57.158  0.00  0.00    +0.000 C 
BRANCH  41  42
ATOM     42  C   UNL     1      45.756 -54.111  57.885  0.00  0.00    +0.000 C 
BRANCH  42  43
ATOM     43  C   UNL     1      44.849 -55.024  57.055  0.00  0.00    +0.000 C 
BRANCH  43  44
ATOM     44  C   UNL     1      43.345 -54.769  57.197  0.00  0.00    +0.000 C 
BRANCH  44  45
ATOM     45  C   UNL     1      42.702 -53.957  56.069  0.00  0.00    +0.000 C 
BRANCH  45  46
ATOM     46  C   UNL     1      43.191 -54.279  54.655  0.00  0.00    +0.000 C 
ATOM     47  C   UNL     1      43.469 -53.043  53.815  0.00  0.00    +0.000 C 
ENDBRANCH  45  46
ENDBRANCH  44  45
ENDBRANCH  43  44
ENDBRANCH  42  43
ENDBRANCH  41  42
ENDBRANCH  40  41
ENDBRANCH  39  40
ENDBRANCH  38  39
ENDBRANCH  37  38
ENDBRANCH  36  37
ENDBRANCH  35  36
ENDBRANCH  34  35
ENDBRANCH  32  34
ENDBRANCH   6  32
TORSDOF 20
ENDMDL
MODEL 4
REMARK VINA RESULT:      -4.6      3.755      9.787
REMARK  Name = 27924_Phorbol.pdbqt.pdb
REMARK  26 active torsions:
REMARK  status: ('A' for Active; 'I' for Inactive)
REMARK    1  A    between atoms: O_1  and  C_10
REMARK    2  A    between atoms: O_1  and  C_26
REMARK    3  A    between atoms: O_2  and  C_13
REMARK    4  A    between atoms: O_2  and  C_28
REMARK    5  A    between atoms: O_3  and  C_14
REMARK    6  A    between atoms: O_4  and  C_20
REMARK    7  A    between atoms: O_7  and  C_29
REMARK    8  A    between atoms: C_11  and  C_16
REMARK    9  A    between atoms: C_11  and  C_17
REMARK   10  A    between atoms: C_15  and  C_21
REMARK   11  A    between atoms: C_22  and  C_29
REMARK   12  A    between atoms: C_26  and  C_30
REMARK   13  A    between atoms: C_27  and  C_31
REMARK   14  A    between atoms: C_28  and  C_32
REMARK   15  A    between atoms: C_32  and  C_33
REMARK   16  A    between atoms: C_33  and  C_34
REMARK   17  A    between atoms: C_34  and  C_35
REMARK   18  A    between atoms: C_35  and  C_36
REMARK   19  A    between atoms: C_36  and  C_37
REMARK   20  A    between atoms: C_37  and  C_38
REMARK   21  A    between atoms: C_38  and  C_39
REMARK   22  A    between atoms: C_39  and  C_40
REMARK   23  A    between atoms: C_40  and  C_41
REMARK   24  A    between atoms: C_41  and  C_42
REMARK   25  A    between atoms: C_42  and  C_43
REMARK   26  A    between atoms: C_43  and  C_44
REMARK                            x       y       z     vdW  Elec       q    Type
REMARK                         _______ _______ _______ _____ _____    ______ ____
ROOT
ATOM      1  O   UNL     1      49.167 -37.961  48.778  0.00  0.00    +0.000 OA
ATOM      2  C   UNL     1      49.079 -45.004  47.912  0.00  0.00    +0.000 C 
ATOM      3  C   UNL     1      48.955 -45.912  49.122  0.00  0.00    +0.000 C 
ATOM      4  C   UNL     1      50.301 -45.786  48.352  0.00  0.00    +0.000 C 
ATOM      5  C   UNL     1      48.759 -43.543  48.012  0.00  0.00    +0.000 C 
ATOM      6  C   UNL     1      48.670 -45.240  50.478  0.00  0.00    +0.000 C 
ATOM      7  C   UNL     1      48.678 -42.886  49.466  0.00  0.00    +0.000 C 
ATOM      8  C   UNL     1      47.831 -43.925  50.303  0.00  0.00    +0.000 C 
ATOM      9  C   UNL     1      50.723 -46.880  47.386  0.00  0.00    +0.000 C 
ATOM     10  C   UNL     1      51.500 -45.086  48.945  0.00  0.00    +0.000 C 
ATOM     11  C   UNL     1      48.129 -41.377  49.322  0.00  0.00    +0.000 C 
ATOM     12  C   UNL     1      49.515 -42.689  47.011  0.00  0.00    +0.000 C 
ATOM     13  C   UNL     1      49.096 -40.381  48.541  0.00  0.00    +0.000 C 
ATOM     14  C   UNL     1      47.325 -43.436  51.660  0.00  0.00    +0.000 C 
ATOM     15  C   UNL     1      48.808 -41.710  46.407  0.00  0.00    +0.000 C 
ATOM     16  C   UNL     1      48.931 -40.320  47.006  0.00  0.00    +0.000 C 
ATOM     17  C   UNL     1      47.853 -40.551  50.571  0.00  0.00    +0.000 C 
ATOM     18  C   UNL     1      48.800 -39.049  49.196  0.00  0.00    +0.000 C 
ATOM     19  C   UNL     1      48.150 -39.247  50.496  0.00  0.00    +0.000 C 
ATOM     20  C   UNL     1      47.938 -38.152  51.466  0.00  0.00    +0.000 C 
ENDROOT
BRANCH   7  21
ATOM     21  O   UNL     1      49.962 -42.816  50.100  0.00  0.00    +0.000 OA
ATOM     22  H   UNL     1      50.364 -41.949  49.872  0.00  0.00    +0.000 HD
ENDBRANCH   7  21
BRANCH  13  23
ATOM     23  O   UNL     1      50.485 -40.618  48.877  0.00  0.00    +0.000 OA
ATOM     24  H   UNL     1      50.762 -39.861  49.434  0.00  0.00    +0.000 HD
ENDBRANCH  13  23
BRANCH   3  25
ATOM     25  O   UNL     1      48.075 -47.023  48.809  0.00  0.00    +0.000 OA
BRANCH  25  27
ATOM     26  O   UNL     1      47.014 -47.384  46.863  0.00  0.00    +0.000 OA
ATOM     27  C   UNL     1      46.980 -46.946  48.012  0.00  0.00    +0.000 C 
ATOM     28  C   UNL     1      45.708 -46.394  48.583  0.00  0.00    +0.000 C 
ENDBRANCH  25  27
ENDBRANCH   3  25
BRANCH  15  29
ATOM     29  C   UNL     1      47.544 -41.960  45.627  0.00  0.00    +0.000 C 
BRANCH  29  30
ATOM     30  O   UNL     1      46.529 -41.116  46.145  0.00  0.00    +0.000 OA
ATOM     31  H   UNL     1      45.894 -41.692  46.605  0.00  0.00    +0.000 HD
ENDBRANCH  29  30
ENDBRANCH  15  29
BRANCH   6  32
ATOM     32  O   UNL     1      47.939 -46.188  51.302  0.00  0.00    +0.000 OA
BRANCH  32  34
ATOM     33  O   UNL     1      49.581 -47.411  52.204  0.00  0.00    +0.000 OA
ATOM     34  C   UNL     1      48.429 -47.355  51.779  0.00  0.00    +0.000 C 
BRANCH  34  35
ATOM     35  C   UNL     1      47.549 -48.581  51.784  0.00  0.00    +0.000 C 
BRANCH  35  36
ATOM     36  C   UNL     1      47.891 -49.515  52.938  0.00  0.00    +0.000 C 
BRANCH  36  37
ATOM     37  C   UNL     1      46.689 -49.916  53.800  0.00  0.00    +0.000 C 
BRANCH  37  38
ATOM     38  C   UNL     1      46.567 -51.424  54.057  0.00  0.00    +0.000 C 
BRANCH  38  39
ATOM     39  C   UNL     1      47.226 -51.849  55.373  0.00  0.00    +0.000 C 
BRANCH  39  40
ATOM     40  C   UNL     1      46.568 -53.071  56.020  0.00  0.00    +0.000 C 
BRANCH  40  41
ATOM     41  C   UNL     1      45.944 -54.027  54.999  0.00  0.00    +0.000 C 
BRANCH  41  42
ATOM     42  C   UNL     1      46.450 -55.466  55.130  0.00  0.00    +0.000 C 
BRANCH  42  43
ATOM     43  C   UNL     1      46.819 -55.917  56.547  0.00  0.00    +0.000 C 
BRANCH  43  44
ATOM     44  C   UNL     1      48.072 -56.790  56.657  0.00  0.00    +0.000 C 
BRANCH  44  45
ATOM     45  C   UNL     1      49.379 -56.041  56.931  0.00  0.00    +0.000 C 
BRANCH  45  46
ATOM     46  C   UNL     1      49.274 -54.842  57.876  0.00  0.00    +0.000 C 
ATOM     47  C   UNL     1      49.992 -53.603  57.364  0.00  0.00    +0.000 C 
ENDBRANCH  45  46
ENDBRANCH  44  45
ENDBRANCH  43  44
ENDBRANCH  42  43
ENDBRANCH  41  42
ENDBRANCH  40  41
ENDBRANCH  39  40
ENDBRANCH  38  39
ENDBRANCH  37  38
ENDBRANCH  36  37
ENDBRANCH  35  36
ENDBRANCH  34  35
ENDBRANCH  32  34
ENDBRANCH   6  32
TORSDOF 20
ENDMDL
MODEL 5
REMARK VINA RESULT:      -4.4      6.670     10.294
REMARK  Name = 27924_Phorbol.pdbqt.pdb
REMARK  26 active torsions:
REMARK  status: ('A' for Active; 'I' for Inactive)
REMARK    1  A    between atoms: O_1  and  C_10
REMARK    2  A    between atoms: O_1  and  C_26
REMARK    3  A    between atoms: O_2  and  C_13
REMARK    4  A    between atoms: O_2  and  C_28
REMARK    5  A    between atoms: O_3  and  C_14
REMARK    6  A    between atoms: O_4  and  C_20
REMARK    7  A    between atoms: O_7  and  C_29
REMARK    8  A    between atoms: C_11  and  C_16
REMARK    9  A    between atoms: C_11  and  C_17
REMARK   10  A    between atoms: C_15  and  C_21
REMARK   11  A    between atoms: C_22  and  C_29
REMARK   12  A    between atoms: C_26  and  C_30
REMARK   13  A    between atoms: C_27  and  C_31
REMARK   14  A    between atoms: C_28  and  C_32
REMARK   15  A    between atoms: C_32  and  C_33
REMARK   16  A    between atoms: C_33  and  C_34
REMARK   17  A    between atoms: C_34  and  C_35
REMARK   18  A    between atoms: C_35  and  C_36
REMARK   19  A    between atoms: C_36  and  C_37
REMARK   20  A    between atoms: C_37  and  C_38
REMARK   21  A    between atoms: C_38  and  C_39
REMARK   22  A    between atoms: C_39  and  C_40
REMARK   23  A    between atoms: C_40  and  C_41
REMARK   24  A    between atoms: C_41  and  C_42
REMARK   25  A    between atoms: C_42  and  C_43
REMARK   26  A    between atoms: C_43  and  C_44
REMARK                            x       y       z     vdW  Elec       q    Type
REMARK                         _______ _______ _______ _____ _____    ______ ____
ROOT
ATOM      1  O   UNL     1      47.622 -57.723  61.693  0.00  0.00    +0.000 OA
ATOM      2  C   UNL     1      45.389 -54.515  55.769  0.00  0.00    +0.000 C 
ATOM      3  C   UNL     1      46.319 -54.401  54.576  0.00  0.00    +0.000 C 
ATOM      4  C   UNL     1      45.972 -53.155  55.440  0.00  0.00    +0.000 C 
ATOM      5  C   UNL     1      45.689 -55.467  56.889  0.00  0.00    +0.000 C 
ATOM      6  C   UNL     1      47.658 -55.159  54.654  0.00  0.00    +0.000 C 
ATOM      7  C   UNL     1      47.170 -56.053  57.005  0.00  0.00    +0.000 C 
ATOM      8  C   UNL     1      47.532 -56.460  55.522  0.00  0.00    +0.000 C 
ATOM      9  C   UNL     1      44.954 -52.147  54.934  0.00  0.00    +0.000 C 
ATOM     10  C   UNL     1      46.984 -52.502  56.348  0.00  0.00    +0.000 C 
ATOM     11  C   UNL     1      47.187 -57.191  58.147  0.00  0.00    +0.000 C 
ATOM     12  C   UNL     1      45.111 -55.031  58.222  0.00  0.00    +0.000 C 
ATOM     13  C   UNL     1      46.901 -56.666  59.624  0.00  0.00    +0.000 C 
ATOM     14  C   UNL     1      48.777 -57.332  55.353  0.00  0.00    +0.000 C 
ATOM     15  C   UNL     1      44.548 -56.001  58.974  0.00  0.00    +0.000 C 
ATOM     16  C   UNL     1      45.421 -56.606  60.060  0.00  0.00    +0.000 C 
ATOM     17  C   UNL     1      48.458 -57.993  58.395  0.00  0.00    +0.000 C 
ATOM     18  C   UNL     1      47.705 -57.623  60.477  0.00  0.00    +0.000 C 
ATOM     19  C   UNL     1      48.723 -58.304  59.670  0.00  0.00    +0.000 C 
ATOM     20  C   UNL     1      49.800 -59.129  60.258  0.00  0.00    +0.000 C 
ENDROOT
BRANCH   7  21
ATOM     21  O   UNL     1      48.120 -55.049  57.385  0.00  0.00    +0.000 OA
ATOM     22  H   UNL     1      47.665 -54.178  57.362  0.00  0.00    +0.000 HD
ENDBRANCH   7  21
BRANCH  13  23
ATOM     23  O   UNL     1      47.537 -55.387  59.864  0.00  0.00    +0.000 OA
ATOM     24  H   UNL     1      47.786 -55.038  58.983  0.00  0.00    +0.000 HD
ENDBRANCH  13  23
BRANCH   3  25
ATOM     25  O   UNL     1      45.573 -54.632  53.352  0.00  0.00    +0.000 OA
BRANCH  25  27
ATOM     26  O   UNL     1      43.370 -55.026  53.169  0.00  0.00    +0.000 OA
ATOM     27  C   UNL     1      44.514 -55.472  53.235  0.00  0.00    +0.000 C 
ATOM     28  C   UNL     1      44.771 -56.943  53.103  0.00  0.00    +0.000 C 
ENDBRANCH  25  27
ENDBRANCH   3  25
BRANCH  15  29
ATOM     29  C   UNL     1      43.429 -56.885  58.487  0.00  0.00    +0.000 C 
BRANCH  29  30
ATOM     30  O   UNL     1      42.200 -56.228  58.746  0.00  0.00    +0.000 OA
ATOM     31  H   UNL     1      41.493 -56.842  58.479  0.00  0.00    +0.000 HD
ENDBRANCH  29  30
ENDBRANCH  15  29
BRANCH   6  32
ATOM     32  O   UNL     1      48.057 -55.503  53.299  0.00  0.00    +0.000 OA
BRANCH  32  34
ATOM     33  O   UNL     1      49.056 -55.104  51.339  0.00  0.00    +0.000 OA
ATOM     34  C   UNL     1      48.710 -54.687  52.441  0.00  0.00    +0.000 C 
BRANCH  34  35
ATOM     35  C   UNL     1      49.008 -53.266  52.852  0.00  0.00    +0.000 C 
BRANCH  35  36
ATOM     36  C   UNL     1      48.061 -52.277  52.184  0.00  0.00    +0.000 C 
BRANCH  36  37
ATOM     37  C   UNL     1      48.458 -50.807  52.366  0.00  0.00    +0.000 C 
BRANCH  37  38
ATOM     38  C   UNL     1      47.555 -50.021  53.326  0.00  0.00    +0.000 C 
BRANCH  38  39
ATOM     39  C   UNL     1      46.381 -49.347  52.607  0.00  0.00    +0.000 C 
BRANCH  39  40
ATOM     40  C   UNL     1      46.577 -47.844  52.392  0.00  0.00    +0.000 C 
BRANCH  40  41
ATOM     41  C   UNL     1      47.337 -47.517  51.104  0.00  0.00    +0.000 C 
BRANCH  41  42
ATOM     42  C   UNL     1      48.723 -46.916  51.355  0.00  0.00    +0.000 C 
BRANCH  42  43
ATOM     43  C   UNL     1      49.913 -47.786  50.937  0.00  0.00    +0.000 C 
BRANCH  43  44
ATOM     44  C   UNL     1      50.447 -47.539  49.523  0.00  0.00    +0.000 C 
BRANCH  44  45
ATOM     45  C   UNL     1      51.388 -46.341  49.370  0.00  0.00    +0.000 C 
BRANCH  45  46
ATOM     46  C   UNL     1      50.852 -45.176  48.535  0.00  0.00    +0.000 C 
ATOM     47  C   UNL     1      50.187 -44.090  49.367  0.00  0.00    +0.000 C 
ENDBRANCH  45  46
ENDBRANCH  44  45
ENDBRANCH  43  44
ENDBRANCH  42  43
ENDBRANCH  41  42
ENDBRANCH  40  41
ENDBRANCH  39  40
ENDBRANCH  38  39
ENDBRANCH  37  38
ENDBRANCH  36  37
ENDBRANCH  35  36
ENDBRANCH  34  35
ENDBRANCH  32  34
ENDBRANCH   6  32
TORSDOF 20
ENDMDL
MODEL 6
REMARK VINA RESULT:      -4.3     15.803     19.692
REMARK  Name = 27924_Phorbol.pdbqt.pdb
REMARK  26 active torsions:
REMARK  status: ('A' for Active; 'I' for Inactive)
REMARK    1  A    between atoms: O_1  and  C_10
REMARK    2  A    between atoms: O_1  and  C_26
REMARK    3  A    between atoms: O_2  and  C_13
REMARK    4  A    between atoms: O_2  and  C_28
REMARK    5  A    between atoms: O_3  and  C_14
REMARK    6  A    between atoms: O_4  and  C_20
REMARK    7  A    between atoms: O_7  and  C_29
REMARK    8  A    between atoms: C_11  and  C_16
REMARK    9  A    between atoms: C_11  and  C_17
REMARK   10  A    between atoms: C_15  and  C_21
REMARK   11  A    between atoms: C_22  and  C_29
REMARK   12  A    between atoms: C_26  and  C_30
REMARK   13  A    between atoms: C_27  and  C_31
REMARK   14  A    between atoms: C_28  and  C_32
REMARK   15  A    between atoms: C_32  and  C_33
REMARK   16  A    between atoms: C_33  and  C_34
REMARK   17  A    between atoms: C_34  and  C_35
REMARK   18  A    between atoms: C_35  and  C_36
REMARK   19  A    between atoms: C_36  and  C_37
REMARK   20  A    between atoms: C_37  and  C_38
REMARK   21  A    between atoms: C_38  and  C_39
REMARK   22  A    between atoms: C_39  and  C_40
REMARK   23  A    between atoms: C_40  and  C_41
REMARK   24  A    between atoms: C_41  and  C_42
REMARK   25  A    between atoms: C_42  and  C_43
REMARK   26  A    between atoms: C_43  and  C_44
REMARK                            x       y       z     vdW  Elec       q    Type
REMARK                         _______ _______ _______ _____ _____    ______ ____
ROOT
ATOM      1  O   UNL     1      59.763 -55.014  60.329  0.00  0.00    +0.000 OA
ATOM      2  C   UNL     1      59.626 -47.926  60.649  0.00  0.00    +0.000 C 
ATOM      3  C   UNL     1      60.812 -47.173  61.223  0.00  0.00    +0.000 C 
ATOM      4  C   UNL     1      59.476 -47.283  62.013  0.00  0.00    +0.000 C 
ATOM      5  C   UNL     1      59.750 -49.366  60.250  0.00  0.00    +0.000 C 
ATOM      6  C   UNL     1      62.075 -47.993  61.545  0.00  0.00    +0.000 C 
ATOM      7  C   UNL     1      61.001 -50.196  60.798  0.00  0.00    +0.000 C 
ATOM      8  C   UNL     1      62.225 -49.221  60.580  0.00  0.00    +0.000 C 
ATOM      9  C   UNL     1      58.520 -46.103  62.045  0.00  0.00    +0.000 C 
ATOM     10  C   UNL     1      59.350 -48.124  63.260  0.00  0.00    +0.000 C 
ATOM     11  C   UNL     1      61.020 -51.638  60.077  0.00  0.00    +0.000 C 
ATOM     12  C   UNL     1      58.442 -50.130  60.332  0.00  0.00    +0.000 C 
ATOM     13  C   UNL     1      59.788 -52.584  60.432  0.00  0.00    +0.000 C 
ATOM     14  C   UNL     1      63.612 -49.847  60.730  0.00  0.00    +0.000 C 
ATOM     15  C   UNL     1      58.182 -50.980  59.314  0.00  0.00    +0.000 C 
ATOM     16  C   UNL     1      58.530 -52.439  59.548  0.00  0.00    +0.000 C 
ATOM     17  C   UNL     1      62.173 -52.598  60.339  0.00  0.00    +0.000 C 
ATOM     18  C   UNL     1      60.394 -53.967  60.334  0.00  0.00    +0.000 C 
ATOM     19  C   UNL     1      61.857 -53.897  60.411  0.00  0.00    +0.000 C 
ATOM     20  C   UNL     1      62.715 -55.091  60.564  0.00  0.00    +0.000 C 
ENDROOT
BRANCH   7  21
ATOM     21  O   UNL     1      60.920 -50.424  62.211  0.00  0.00    +0.000 OA
ATOM     22  H   UNL     1      59.971 -50.515  62.448  0.00  0.00    +0.000 HD
ENDBRANCH   7  21
BRANCH  13  23
ATOM     23  O   UNL     1      59.423 -52.477  61.830  0.00  0.00    +0.000 OA
ATOM     24  H   UNL     1      58.661 -51.862  61.864  0.00  0.00    +0.000 HD
ENDBRANCH  13  23
BRANCH   3  25
ATOM     25  O   UNL     1      61.059 -45.980  60.435  0.00  0.00    +0.000 OA
BRANCH  25  27
ATOM     26  O   UNL     1      59.878 -45.152  58.715  0.00  0.00    +0.000 OA
ATOM     27  C   UNL     1      60.804 -45.858  59.108  0.00  0.00    +0.000 C 
ATOM     28  C   UNL     1      61.721 -46.532  58.132  0.00  0.00    +0.000 C 
ENDBRANCH  25  27
ENDBRANCH   3  25
BRANCH  15  29
ATOM     29  C   UNL     1      58.141 -50.556  57.870  0.00  0.00    +0.000 C 
BRANCH  29  30
ATOM     30  O   UNL     1      59.339 -50.986  57.247  0.00  0.00    +0.000 OA
ATOM     31  H   UNL     1      59.338 -50.610  56.348  0.00  0.00    +0.000 HD
ENDBRANCH  29  30
ENDBRANCH  15  29
BRANCH   6  32
ATOM     32  O   UNL     1      63.225 -47.114  61.411  0.00  0.00    +0.000 OA
BRANCH  32  34
ATOM     33  O   UNL     1      64.237 -47.640  63.335  0.00  0.00    +0.000 OA
ATOM     34  C   UNL     1      64.157 -46.890  62.365  0.00  0.00    +0.000 C 
BRANCH  34  35
ATOM     35  C   UNL     1      65.093 -45.715  62.224  0.00  0.00    +0.000 C 
BRANCH  35  36
ATOM     36  C   UNL     1      65.541 -45.522  60.780  0.00  0.00    +0.000 C 
BRANCH  36  37
ATOM     37  C   UNL     1      66.494 -46.608  60.268  0.00  0.00    +0.000 C 
BRANCH  37  38
ATOM     38  C   UNL     1      66.601 -46.688  58.739  0.00  0.00    +0.000 C 
BRANCH  38  39
ATOM     39  C   UNL     1      65.265 -47.039  58.075  0.00  0.00    +0.000 C 
BRANCH  39  40
ATOM     40  C   UNL     1      65.418 -47.835  56.776  0.00  0.00    +0.000 C 
BRANCH  40  41
ATOM     41  C   UNL     1      65.505 -46.945  55.534  0.00  0.00    +0.000 C 
BRANCH  41  42
ATOM     42  C   UNL     1      66.935 -46.513  55.197  0.00  0.00    +0.000 C 
BRANCH  42  43
ATOM     43  C   UNL     1      67.114 -45.042  54.810  0.00  0.00    +0.000 C 
BRANCH  43  44
ATOM     44  C   UNL     1      65.831 -44.206  54.777  0.00  0.00    +0.000 C 
BRANCH  44  45
ATOM     45  C   UNL     1      65.734 -43.102  55.834  0.00  0.00    +0.000 C 
BRANCH  45  46
ATOM     46  C   UNL     1      65.156 -43.524  57.186  0.00  0.00    +0.000 C 
ATOM     47  C   UNL     1      65.743 -42.758  58.361  0.00  0.00    +0.000 C 
ENDBRANCH  45  46
ENDBRANCH  44  45
ENDBRANCH  43  44
ENDBRANCH  42  43
ENDBRANCH  41  42
ENDBRANCH  40  41
ENDBRANCH  39  40
ENDBRANCH  38  39
ENDBRANCH  37  38
ENDBRANCH  36  37
ENDBRANCH  35  36
ENDBRANCH  34  35
ENDBRANCH  32  34
ENDBRANCH   6  32
TORSDOF 20
ENDMDL
MODEL 7
REMARK VINA RESULT:      -4.3      6.364      9.705
REMARK  Name = 27924_Phorbol.pdbqt.pdb
REMARK  26 active torsions:
REMARK  status: ('A' for Active; 'I' for Inactive)
REMARK    1  A    between atoms: O_1  and  C_10
REMARK    2  A    between atoms: O_1  and  C_26
REMARK    3  A    between atoms: O_2  and  C_13
REMARK    4  A    between atoms: O_2  and  C_28
REMARK    5  A    between atoms: O_3  and  C_14
REMARK    6  A    between atoms: O_4  and  C_20
REMARK    7  A    between atoms: O_7  and  C_29
REMARK    8  A    between atoms: C_11  and  C_16
REMARK    9  A    between atoms: C_11  and  C_17
REMARK   10  A    between atoms: C_15  and  C_21
REMARK   11  A    between atoms: C_22  and  C_29
REMARK   12  A    between atoms: C_26  and  C_30
REMARK   13  A    between atoms: C_27  and  C_31
REMARK   14  A    between atoms: C_28  and  C_32
REMARK   15  A    between atoms: C_32  and  C_33
REMARK   16  A    between atoms: C_33  and  C_34
REMARK   17  A    between atoms: C_34  and  C_35
REMARK   18  A    between atoms: C_35  and  C_36
REMARK   19  A    between atoms: C_36  and  C_37
REMARK   20  A    between atoms: C_37  and  C_38
REMARK   21  A    between atoms: C_38  and  C_39
REMARK   22  A    between atoms: C_39  and  C_40
REMARK   23  A    between atoms: C_40  and  C_41
REMARK   24  A    between atoms: C_41  and  C_42
REMARK   25  A    between atoms: C_42  and  C_43
REMARK   26  A    between atoms: C_43  and  C_44
REMARK                            x       y       z     vdW  Elec       q    Type
REMARK                         _______ _______ _______ _____ _____    ______ ____
ROOT
ATOM      1  O   UNL     1      55.991 -42.283  39.807  0.00  0.00    +0.000 OA
ATOM      2  C   UNL     1      53.613 -46.369  45.099  0.00  0.00    +0.000 C 
ATOM      3  C   UNL     1      52.477 -45.880  45.979  0.00  0.00    +0.000 C 
ATOM      4  C   UNL     1      53.935 -45.945  46.519  0.00  0.00    +0.000 C 
ATOM      5  C   UNL     1      53.907 -45.708  43.786  0.00  0.00    +0.000 C 
ATOM      6  C   UNL     1      51.772 -44.578  45.555  0.00  0.00    +0.000 C 
ATOM      7  C   UNL     1      53.287 -44.261  43.514  0.00  0.00    +0.000 C 
ATOM      8  C   UNL     1      51.788 -44.396  43.997  0.00  0.00    +0.000 C 
ATOM      9  C   UNL     1      54.350 -47.086  47.431  0.00  0.00    +0.000 C 
ATOM     10  C   UNL     1      54.743 -44.701  46.794  0.00  0.00    +0.000 C 
ATOM     11  C   UNL     1      53.573 -43.857  41.980  0.00  0.00    +0.000 C 
ATOM     12  C   UNL     1      55.359 -45.826  43.363  0.00  0.00    +0.000 C 
ATOM     13  C   UNL     1      55.110 -43.653  41.613  0.00  0.00    +0.000 C 
ATOM     14  C   UNL     1      50.849 -43.261  43.586  0.00  0.00    +0.000 C 
ATOM     15  C   UNL     1      55.580 -46.099  42.059  0.00  0.00    +0.000 C 
ATOM     16  C   UNL     1      55.884 -44.912  41.162  0.00  0.00    +0.000 C 
ATOM     17  C   UNL     1      52.996 -42.563  41.419  0.00  0.00    +0.000 C 
ATOM     18  C   UNL     1      55.055 -42.602  40.526  0.00  0.00    +0.000 C 
ATOM     19  C   UNL     1      53.772 -41.893  40.557  0.00  0.00    +0.000 C 
ATOM     20  C   UNL     1      53.505 -40.672  39.768  0.00  0.00    +0.000 C 
ENDROOT
BRANCH   7  21
ATOM     21  O   UNL     1      53.882 -43.253  44.341  0.00  0.00    +0.000 OA
ATOM     22  H   UNL     1      54.853 -43.272  44.188  0.00  0.00    +0.000 HD
ENDBRANCH   7  21
BRANCH  13  23
ATOM     23  O   UNL     1      55.827 -42.992  42.684  0.00  0.00    +0.000 OA
ATOM     24  H   UNL     1      56.738 -42.849  42.352  0.00  0.00    +0.000 HD
ENDBRANCH  13  23
BRANCH   3  25
ATOM     25  O   UNL     1      51.576 -46.980  46.269  0.00  0.00    +0.000 OA
BRANCH  25  27
ATOM     26  O   UNL     1      50.485 -47.737  44.458  0.00  0.00    +0.000 OA
ATOM     27  C   UNL     1      51.247 -47.965  45.396  0.00  0.00    +0.000 C 
ATOM     28  C   UNL     1      51.893 -49.310  45.547  0.00  0.00    +0.000 C 
ENDBRANCH  25  27
ENDBRANCH   3  25
BRANCH  15  29
ATOM     29  C   UNL     1      55.010 -47.303  41.355  0.00  0.00    +0.000 C 
BRANCH  29  30
ATOM     30  O   UNL     1      54.130 -46.847  40.341  0.00  0.00    +0.000 OA
ATOM     31  H   UNL     1      53.824 -45.964  40.612  0.00  0.00    +0.000 HD
ENDBRANCH  29  30
ENDBRANCH  15  29
BRANCH   6  32
ATOM     32  O   UNL     1      50.400 -44.638  46.032  0.00  0.00    +0.000 OA
BRANCH  32  34
ATOM     33  O   UNL     1      49.886 -42.722  47.067  0.00  0.00    +0.000 OA
ATOM     34  C   UNL     1      49.904 -43.951  47.087  0.00  0.00    +0.000 C 
BRANCH  34  35
ATOM     35  C   UNL     1      49.377 -44.707  48.281  0.00  0.00    +0.000 C 
BRANCH  35  36
ATOM     36  C   UNL     1      49.511 -43.896  49.565  0.00  0.00    +0.000 C 
BRANCH  36  37
ATOM     37  C   UNL     1      48.179 -43.394  50.132  0.00  0.00    +0.000 C 
BRANCH  37  38
ATOM     38  C   UNL     1      48.318 -42.407  51.299  0.00  0.00    +0.000 C 
BRANCH  38  39
ATOM     39  C   UNL     1      47.930 -40.977  50.908  0.00  0.00    +0.000 C 
BRANCH  39  40
ATOM     40  C   UNL     1      47.968 -40.725  49.398  0.00  0.00    +0.000 C 
BRANCH  40  41
ATOM     41  C   UNL     1      49.254 -40.034  48.937  0.00  0.00    +0.000 C 
BRANCH  41  42
ATOM     42  C   UNL     1      49.063 -38.548  48.622  0.00  0.00    +0.000 C 
BRANCH  42  43
ATOM     43  C   UNL     1      49.598 -37.569  49.671  0.00  0.00    +0.000 C 
BRANCH  43  44
ATOM     44  C   UNL     1      48.618 -36.480  50.120  0.00  0.00    +0.000 C 
BRANCH  44  45
ATOM     45  C   UNL     1      47.433 -36.962  50.961  0.00  0.00    +0.000 C 
BRANCH  45  46
ATOM     46  C   UNL     1      46.814 -35.922  51.897  0.00  0.00    +0.000 C 
ATOM     47  C   UNL     1      47.816 -35.295  52.853  0.00  0.00    +0.000 C 
ENDBRANCH  45  46
ENDBRANCH  44  45
ENDBRANCH  43  44
ENDBRANCH  42  43
ENDBRANCH  41  42
ENDBRANCH  40  41
ENDBRANCH  39  40
ENDBRANCH  38  39
ENDBRANCH  37  38
ENDBRANCH  36  37
ENDBRANCH  35  36
ENDBRANCH  34  35
ENDBRANCH  32  34
ENDBRANCH   6  32
TORSDOF 20
ENDMDL
MODEL 8
REMARK VINA RESULT:      -4.2     16.570     20.155
REMARK  Name = 27924_Phorbol.pdbqt.pdb
REMARK  26 active torsions:
REMARK  status: ('A' for Active; 'I' for Inactive)
REMARK    1  A    between atoms: O_1  and  C_10
REMARK    2  A    between atoms: O_1  and  C_26
REMARK    3  A    between atoms: O_2  and  C_13
REMARK    4  A    between atoms: O_2  and  C_28
REMARK    5  A    between atoms: O_3  and  C_14
REMARK    6  A    between atoms: O_4  and  C_20
REMARK    7  A    between atoms: O_7  and  C_29
REMARK    8  A    between atoms: C_11  and  C_16
REMARK    9  A    between atoms: C_11  and  C_17
REMARK   10  A    between atoms: C_15  and  C_21
REMARK   11  A    between atoms: C_22  and  C_29
REMARK   12  A    between atoms: C_26  and  C_30
REMARK   13  A    between atoms: C_27  and  C_31
REMARK   14  A    between atoms: C_28  and  C_32
REMARK   15  A    between atoms: C_32  and  C_33
REMARK   16  A    between atoms: C_33  and  C_34
REMARK   17  A    between atoms: C_34  and  C_35
REMARK   18  A    between atoms: C_35  and  C_36
REMARK   19  A    between atoms: C_36  and  C_37
REMARK   20  A    between atoms: C_37  and  C_38
REMARK   21  A    between atoms: C_38  and  C_39
REMARK   22  A    between atoms: C_39  and  C_40
REMARK   23  A    between atoms: C_40  and  C_41
REMARK   24  A    between atoms: C_41  and  C_42
REMARK   25  A    between atoms: C_42  and  C_43
REMARK   26  A    between atoms: C_43  and  C_44
REMARK                            x       y       z     vdW  Elec       q    Type
REMARK                         _______ _______ _______ _____ _____    ______ ____
ROOT
ATOM      1  O   UNL     1      56.559 -52.375  63.084  0.00  0.00    +0.000 OA
ATOM      2  C   UNL     1      61.028 -48.054  59.661  0.00  0.00    +0.000 C 
ATOM      3  C   UNL     1      62.183 -47.416  60.409  0.00  0.00    +0.000 C 
ATOM      4  C   UNL     1      60.953 -46.571  59.970  0.00  0.00    +0.000 C 
ATOM      5  C   UNL     1      60.283 -49.217  60.244  0.00  0.00    +0.000 C 
ATOM      6  C   UNL     1      62.432 -47.891  61.852  0.00  0.00    +0.000 C 
ATOM      7  C   UNL     1      60.452 -49.516  61.804  0.00  0.00    +0.000 C 
ATOM      8  C   UNL     1      62.008 -49.389  62.046  0.00  0.00    +0.000 C 
ATOM      9  C   UNL     1      61.052 -45.674  58.748  0.00  0.00    +0.000 C 
ATOM     10  C   UNL     1      59.954 -46.034  60.964  0.00  0.00    +0.000 C 
ATOM     11  C   UNL     1      59.726 -50.914  62.144  0.00  0.00    +0.000 C 
ATOM     12  C   UNL     1      58.846 -49.314  59.768  0.00  0.00    +0.000 C 
ATOM     13  C   UNL     1      58.144 -50.914  61.956  0.00  0.00    +0.000 C 
ATOM     14  C   UNL     1      62.520 -49.916  63.387  0.00  0.00    +0.000 C 
ATOM     15  C   UNL     1      58.400 -50.552  59.465  0.00  0.00    +0.000 C 
ATOM     16  C   UNL     1      57.616 -51.271  60.549  0.00  0.00    +0.000 C 
ATOM     17  C   UNL     1      59.824 -51.494  63.549  0.00  0.00    +0.000 C 
ATOM     18  C   UNL     1      57.685 -51.907  63.002  0.00  0.00    +0.000 C 
ATOM     19  C   UNL     1      58.729 -52.111  64.013  0.00  0.00    +0.000 C 
ATOM     20  C   UNL     1      58.499 -52.849  65.273  0.00  0.00    +0.000 C 
ENDROOT
BRANCH   7  21
ATOM     21  O   UNL     1      59.839 -48.506  62.617  0.00  0.00    +0.000 OA
ATOM     22  H   UNL     1      59.401 -48.953  63.374  0.00  0.00    +0.000 HD
ENDBRANCH   7  21
BRANCH  13  23
ATOM     23  O   UNL     1      57.557 -49.666  62.400  0.00  0.00    +0.000 OA
ATOM     24  H   UNL     1      57.984 -49.455  63.256  0.00  0.00    +0.000 HD
ENDBRANCH  13  23
BRANCH   3  25
ATOM     25  O   UNL     1      63.367 -47.414  59.569  0.00  0.00    +0.000 OA
BRANCH  25  27
ATOM     26  O   UNL     1      63.653 -49.588  59.088  0.00  0.00    +0.000 OA
ATOM     27  C   UNL     1      63.722 -48.416  58.725  0.00  0.00    +0.000 C 
ATOM     28  C   UNL     1      64.119 -48.070  57.321  0.00  0.00    +0.000 C 
ENDBRANCH  25  27
ENDBRANCH   3  25
BRANCH  15  29
ATOM     29  C   UNL     1      59.064 -51.450  58.455  0.00  0.00    +0.000 C 
BRANCH  29  30
ATOM     30  O   UNL     1      59.228 -50.720  57.251  0.00  0.00    +0.000 OA
ATOM     31  H   UNL     1      58.636 -49.949  57.310  0.00  0.00    +0.000 HD
ENDBRANCH  29  30
ENDBRANCH  15  29
BRANCH   6  32
ATOM     32  O   UNL     1      63.850 -47.737  62.136  0.00  0.00    +0.000 OA
BRANCH  32  34
ATOM     33  O   UNL     1      65.079 -46.937  63.824  0.00  0.00    +0.000 OA
ATOM     34  C   UNL     1      64.407 -46.712  62.821  0.00  0.00    +0.000 C 
BRANCH  34  35
ATOM     35  C   UNL     1      64.195 -45.298  62.340  0.00  0.00    +0.000 C 
BRANCH  35  36
ATOM     36  C   UNL     1      65.150 -44.938  61.208  0.00  0.00    +0.000 C 
BRANCH  36  37
ATOM     37  C   UNL     1      64.469 -44.314  59.986  0.00  0.00    +0.000 C 
BRANCH  37  38
ATOM     38  C   UNL     1      65.312 -44.347  58.704  0.00  0.00    +0.000 C 
BRANCH  38  39
ATOM     39  C   UNL     1      66.815 -44.417  58.993  0.00  0.00    +0.000 C 
BRANCH  39  40
ATOM     40  C   UNL     1      67.662 -44.728  57.755  0.00  0.00    +0.000 C 
BRANCH  40  41
ATOM     41  C   UNL     1      68.678 -43.629  57.432  0.00  0.00    +0.000 C 
BRANCH  41  42
ATOM     42  C   UNL     1      68.033 -42.265  57.171  0.00  0.00    +0.000 C 
BRANCH  42  43
ATOM     43  C   UNL     1      67.609 -41.994  55.725  0.00  0.00    +0.000 C 
BRANCH  43  44
ATOM     44  C   UNL     1      68.103 -43.009  54.690  0.00  0.00    +0.000 C 
BRANCH  44  45
ATOM     45  C   UNL     1      67.021 -43.889  54.057  0.00  0.00    +0.000 C 
BRANCH  45  46
ATOM     46  C   UNL     1      65.689 -43.949  54.807  0.00  0.00    +0.000 C 
ATOM     47  C   UNL     1      65.177 -45.365  55.020  0.00  0.00    +0.000 C 
ENDBRANCH  45  46
ENDBRANCH  44  45
ENDBRANCH  43  44
ENDBRANCH  42  43
ENDBRANCH  41  42
ENDBRANCH  40  41
ENDBRANCH  39  40
ENDBRANCH  38  39
ENDBRANCH  37  38
ENDBRANCH  36  37
ENDBRANCH  35  36
ENDBRANCH  34  35
ENDBRANCH  32  34
ENDBRANCH   6  32
TORSDOF 20
ENDMDL
MODEL 9
REMARK VINA RESULT:      -4.2      1.337      2.147
REMARK  Name = 27924_Phorbol.pdbqt.pdb
REMARK  26 active torsions:
REMARK  status: ('A' for Active; 'I' for Inactive)
REMARK    1  A    between atoms: O_1  and  C_10
REMARK    2  A    between atoms: O_1  and  C_26
REMARK    3  A    between atoms: O_2  and  C_13
REMARK    4  A    between atoms: O_2  and  C_28
REMARK    5  A    between atoms: O_3  and  C_14
REMARK    6  A    between atoms: O_4  and  C_20
REMARK    7  A    between atoms: O_7  and  C_29
REMARK    8  A    between atoms: C_11  and  C_16
REMARK    9  A    between atoms: C_11  and  C_17
REMARK   10  A    between atoms: C_15  and  C_21
REMARK   11  A    between atoms: C_22  and  C_29
REMARK   12  A    between atoms: C_26  and  C_30
REMARK   13  A    between atoms: C_27  and  C_31
REMARK   14  A    between atoms: C_28  and  C_32
REMARK   15  A    between atoms: C_32  and  C_33
REMARK   16  A    between atoms: C_33  and  C_34
REMARK   17  A    between atoms: C_34  and  C_35
REMARK   18  A    between atoms: C_35  and  C_36
REMARK   19  A    between atoms: C_36  and  C_37
REMARK   20  A    between atoms: C_37  and  C_38
REMARK   21  A    between atoms: C_38  and  C_39
REMARK   22  A    between atoms: C_39  and  C_40
REMARK   23  A    between atoms: C_40  and  C_41
REMARK   24  A    between atoms: C_41  and  C_42
REMARK   25  A    between atoms: C_42  and  C_43
REMARK   26  A    between atoms: C_43  and  C_44
REMARK                            x       y       z     vdW  Elec       q    Type
REMARK                         _______ _______ _______ _____ _____    ______ ____
ROOT
ATOM      1  O   UNL     1      50.113 -46.973  51.164  0.00  0.00    +0.000 OA
ATOM      2  C   UNL     1      43.132 -48.156  50.693  0.00  0.00    +0.000 C 
ATOM      3  C   UNL     1      42.303 -47.389  49.679  0.00  0.00    +0.000 C 
ATOM      4  C   UNL     1      42.197 -47.076  51.199  0.00  0.00    +0.000 C 
ATOM      5  C   UNL     1      44.628 -48.192  50.593  0.00  0.00    +0.000 C 
ATOM      6  C   UNL     1      43.065 -46.511  48.669  0.00  0.00    +0.000 C 
ATOM      7  C   UNL     1      45.348 -47.108  49.666  0.00  0.00    +0.000 C 
ATOM      8  C   UNL     1      44.482 -47.104  48.345  0.00  0.00    +0.000 C 
ATOM      9  C   UNL     1      41.013 -47.600  51.996  0.00  0.00    +0.000 C 
ATOM     10  C   UNL     1      42.734 -45.798  51.794  0.00  0.00    +0.000 C 
ATOM     11  C   UNL     1      46.915 -47.475  49.564  0.00  0.00    +0.000 C 
ATOM     12  C   UNL     1      45.318 -48.391  51.929  0.00  0.00    +0.000 C 
ATOM     13  C   UNL     1      47.723 -47.361  50.932  0.00  0.00    +0.000 C 
ATOM     14  C   UNL     1      45.096 -46.383  47.145  0.00  0.00    +0.000 C 
ATOM     15  C   UNL     1      46.365 -49.244  51.938  0.00  0.00    +0.000 C 
ATOM     16  C   UNL     1      47.745 -48.619  51.828  0.00  0.00    +0.000 C 
ATOM     17  C   UNL     1      47.824 -46.661  48.652  0.00  0.00    +0.000 C 
ATOM     18  C   UNL     1      49.110 -46.973  50.466  0.00  0.00    +0.000 C 
ATOM     19  C   UNL     1      49.065 -46.435  49.102  0.00  0.00    +0.000 C 
ATOM     20  C   UNL     1      50.218 -45.771  48.458  0.00  0.00    +0.000 C 
ENDROOT
BRANCH   7  21
ATOM     21  O   UNL     1      45.253 -45.785  50.209  0.00  0.00    +0.000 OA
ATOM     22  H   UNL     1      45.093 -45.866  51.176  0.00  0.00    +0.000 HD
ENDBRANCH   7  21
BRANCH  13  23
ATOM     23  O   UNL     1      47.297 -46.213  51.706  0.00  0.00    +0.000 OA
ATOM     24  H   UNL     1      48.114 -45.733  51.953  0.00  0.00    +0.000 HD
ENDBRANCH  13  23
BRANCH   3  25
ATOM     25  O   UNL     1      41.323 -48.276  49.080  0.00  0.00    +0.000 OA
BRANCH  25  27
ATOM     26  O   UNL     1      40.968 -50.436  49.579  0.00  0.00    +0.000 OA
ATOM     27  C   UNL     1      41.509 -49.602  48.857  0.00  0.00    +0.000 C 
ATOM     28  C   UNL     1      42.316 -50.028  47.667  0.00  0.00    +0.000 C 
ENDBRANCH  25  27
ENDBRANCH   3  25
BRANCH  15  29
ATOM     29  C   UNL     1      46.275 -50.676  51.482  0.00  0.00    +0.000 C 
BRANCH  29  30
ATOM     30  O   UNL     1      47.354 -50.929  50.598  0.00  0.00    +0.000 OA
ATOM     31  H   UNL     1      47.267 -51.855  50.308  0.00  0.00    +0.000 HD
ENDBRANCH  29  30
ENDBRANCH  15  29
BRANCH   6  32
ATOM     32  O   UNL     1      42.270 -46.435  47.454  0.00  0.00    +0.000 OA
BRANCH  32  34
ATOM     33  O   UNL     1      40.630 -44.944  47.753  0.00  0.00    +0.000 OA
ATOM     34  C   UNL     1      41.550 -45.363  47.053  0.00  0.00    +0.000 C 
BRANCH  34  35
ATOM     35  C   UNL     1      41.886 -44.693  45.744  0.00  0.00    +0.000 C 
BRANCH  35  36
ATOM     36  C   UNL     1      42.341 -43.253  45.950  0.00  0.00    +0.000 C 
BRANCH  36  37
ATOM     37  C   UNL     1      43.827 -43.107  46.295  0.00  0.00    +0.000 C 
BRANCH  37  38
ATOM     38  C   UNL     1      44.766 -43.144  45.082  0.00  0.00    +0.000 C 
BRANCH  38  39
ATOM     39  C   UNL     1      46.245 -43.104  45.484  0.00  0.00    +0.000 C 
BRANCH  39  40
ATOM     40  C   UNL     1      46.469 -42.714  46.948  0.00  0.00    +0.000 C 
BRANCH  40  41
ATOM     41  C   UNL     1      46.808 -41.232  47.129  0.00  0.00    +0.000 C 
BRANCH  41  42
ATOM     42  C   UNL     1      48.226 -40.875  46.676  0.00  0.00    +0.000 C 
BRANCH  42  43
ATOM     43  C   UNL     1      49.362 -41.589  47.414  0.00  0.00    +0.000 C 
BRANCH  43  44
ATOM     44  C   UNL     1      49.380 -41.407  48.934  0.00  0.00    +0.000 C 
BRANCH  44  45
ATOM     45  C   UNL     1      49.146 -42.679  49.756  0.00  0.00    +0.000 C 
BRANCH  45  46
ATOM     46  C   UNL     1      47.804 -42.762  50.486  0.00  0.00    +0.000 C 
ATOM     47  C   UNL     1      47.943 -42.891  51.995  0.00  0.00    +0.000 C 
ENDBRANCH  45  46
ENDBRANCH  44  45
ENDBRANCH  43  44
ENDBRANCH  42  43
ENDBRANCH  41  42
ENDBRANCH  40  41
ENDBRANCH  39  40
ENDBRANCH  38  39
ENDBRANCH  37  38
ENDBRANCH  36  37
ENDBRANCH  35  36
ENDBRANCH  34  35
ENDBRANCH  32  34
ENDBRANCH   6  32
TORSDOF 20
ENDMDL
