REMARK  Name = 27924_Phorbol.pdbqt.pdb
REMARK  26 active torsions:
REMARK  status: ('A' for Active; 'I' for Inactive)
REMARK    1  A    between atoms: O_1  and  C_10
REMARK    2  A    between atoms: O_1  and  C_26
REMARK    3  A    between atoms: O_2  and  C_13
REMARK    4  A    between atoms: O_2  and  C_28
REMARK    5  A    between atoms: O_3  and  C_14
REMARK    6  A    between atoms: O_4  and  C_20
REMARK    7  A    between atoms: O_7  and  C_29
REMARK    8  A    between atoms: C_11  and  C_16
REMARK    9  A    between atoms: C_11  and  C_17
REMARK   10  A    between atoms: C_15  and  C_21
REMARK   11  A    between atoms: C_22  and  C_29
REMARK   12  A    between atoms: C_26  and  C_30
REMARK   13  A    between atoms: C_27  and  C_31
REMARK   14  A    between atoms: C_28  and  C_32
REMARK   15  A    between atoms: C_32  and  C_33
REMARK   16  A    between atoms: C_33  and  C_34
REMARK   17  A    between atoms: C_34  and  C_35
REMARK   18  A    between atoms: C_35  and  C_36
REMARK   19  A    between atoms: C_36  and  C_37
REMARK   20  A    between atoms: C_37  and  C_38
REMARK   21  A    between atoms: C_38  and  C_39
REMARK   22  A    between atoms: C_39  and  C_40
REMARK   23  A    between atoms: C_40  and  C_41
REMARK   24  A    between atoms: C_41  and  C_42
REMARK   25  A    between atoms: C_42  and  C_43
REMARK   26  A    between atoms: C_43  and  C_44
REMARK                            x       y       z     vdW  Elec       q    Type
REMARK                         _______ _______ _______ _____ _____    ______ ____
ROOT
ATOM      1  O   UNL     1      -3.093   8.111   0.238  0.00  0.00    +0.000 OA
ATOM      2  C   UNL     1       2.001  12.341   2.791  0.00  0.00    +0.000 C 
ATOM      3  C   UNL     1       3.455  12.051   2.469  0.00  0.00    +0.000 C 
ATOM      4  C   UNL     1       2.886  11.795   3.894  0.00  0.00    +0.000 C 
ATOM      5  C   UNL     1       0.897  11.696   2.008  0.00  0.00    +0.000 C 
ATOM      6  C   UNL     1       3.738  10.940   1.441  0.00  0.00    +0.000 C 
ATOM      7  C   UNL     1       1.251  10.419   1.116  0.00  0.00    +0.000 C 
ATOM      8  C   UNL     1       2.587  10.831   0.380  0.00  0.00    +0.000 C 
ATOM      9  C   UNL     1       3.174  12.785   5.010  0.00  0.00    +0.000 C 
ATOM     10  C   UNL     1       2.682  10.402   4.437  0.00  0.00    +0.000 C 
ATOM     11  C   UNL     1      -0.038  10.037   0.226  0.00  0.00    +0.000 C 
ATOM     12  C   UNL     1      -0.390  11.538   2.796  0.00  0.00    +0.000 C 
ATOM     13  C   UNL     1      -1.306   9.545   1.055  0.00  0.00    +0.000 C 
ATOM     14  C   UNL     1       3.017   9.930  -0.778  0.00  0.00    +0.000 C 
ATOM     15  C   UNL     1      -1.533  11.822   2.135  0.00  0.00    +0.000 C 
ATOM     16  C   UNL     1      -2.280  10.641   1.541  0.00  0.00    +0.000 C 
ATOM     17  C   UNL     1       0.058   8.914  -0.799  0.00  0.00    +0.000 C 
ATOM     18  C   UNL     1      -1.972   8.578   0.100  0.00  0.00    +0.000 C 
ATOM     19  C   UNL     1      -1.028   8.142  -0.935  0.00  0.00    +0.000 C 
ATOM     20  C   UNL     1      -1.315   7.038  -1.875  0.00  0.00    +0.000 C 
ENDROOT
BRANCH   7  21
ATOM     21  O   UNL     1       1.574   9.274   1.916  0.00  0.00    +0.000 OA
ATOM     22  H   UNL     1       0.732   8.892   2.250  0.00  0.00    +0.000 HD
ENDBRANCH   7  21
BRANCH  13  23
ATOM     23  O   UNL     1      -0.918   8.703   2.168  0.00  0.00    +0.000 OA
ATOM     24  H   UNL     1      -1.743   8.286   2.493  0.00  0.00    +0.000 HD
ENDBRANCH  13  23
BRANCH   3  25
ATOM     25  O   UNL     1       4.155  13.296   2.211  0.00  0.00    +0.000 OA
BRANCH  25  27
ATOM     26  O   UNL     1       5.934  14.659   2.350  0.00  0.00    +0.000 OA
ATOM     27  C   UNL     1       5.424  13.570   2.606  0.00  0.00    +0.000 C 
ATOM     28  C   UNL     1       6.159  12.555   3.429  0.00  0.00    +0.000 C 
ENDBRANCH  25  27
ENDBRANCH   3  25
BRANCH  15  29
ATOM     29  C   UNL     1      -1.801  13.147   1.471  0.00  0.00    +0.000 C 
BRANCH  29  30
ATOM     30  O   UNL     1      -3.136  13.526   1.760  0.00  0.00    +0.000 OA
ATOM     31  H   UNL     1      -3.211  13.568   2.730  0.00  0.00    +0.000 HD
ENDBRANCH  29  30
ENDBRANCH  15  29
BRANCH   6  32
ATOM     32  O   UNL     1       4.994  11.253   0.779  0.00  0.00    +0.000 OA
BRANCH  32  34
ATOM     33  O   UNL     1       7.172  10.906   0.408  0.00  0.00    +0.000 OA
ATOM     34  C   UNL     1       6.079  10.447   0.731  0.00  0.00    +0.000 C 
BRANCH  34  35
ATOM     35  C   UNL     1       5.932   8.986   1.077  0.00  0.00    +0.000 C 
BRANCH  35  36
ATOM     36  C   UNL     1       6.290   8.713   2.533  0.00  0.00    +0.000 C 
BRANCH  36  37
ATOM     37  C   UNL     1       6.389   7.225   2.887  0.00  0.00    +0.000 C 
BRANCH  37  38
ATOM     38  C   UNL     1       5.092   6.434   2.670  0.00  0.00    +0.000 C 
BRANCH  38  39
ATOM     39  C   UNL     1       5.085   5.673   1.340  0.00  0.00    +0.000 C 
BRANCH  39  40
ATOM     40  C   UNL     1       3.808   4.861   1.107  0.00  0.00    +0.000 C 
BRANCH  40  41
ATOM     41  C   UNL     1       2.564   5.736   0.932  0.00  0.00    +0.000 C 
BRANCH  41  42
ATOM     42  C   UNL     1       1.349   4.964   0.410  0.00  0.00    +0.000 C 
BRANCH  42  43
ATOM     43  C   UNL     1       0.878   3.795   1.280  0.00  0.00    +0.000 C 
BRANCH  43  44
ATOM     44  C   UNL     1       0.518   4.150   2.726  0.00  0.00    +0.000 C 
BRANCH  44  45
ATOM     45  C   UNL     1      -0.534   5.250   2.895  0.00  0.00    +0.000 C 
BRANCH  45  46
ATOM     46  C   UNL     1      -1.874   5.002   2.199  0.00  0.00    +0.000 C 
ATOM     47  C   UNL     1      -2.590   3.754   2.691  0.00  0.00    +0.000 C 
ENDBRANCH  45  46
ENDBRANCH  44  45
ENDBRANCH  43  44
ENDBRANCH  42  43
ENDBRANCH  41  42
ENDBRANCH  40  41
ENDBRANCH  39  40
ENDBRANCH  38  39
ENDBRANCH  37  38
ENDBRANCH  36  37
ENDBRANCH  35  36
ENDBRANCH  34  35
ENDBRANCH  32  34
ENDBRANCH   6  32
TORSDOF 20
