MODEL 1
REMARK VINA RESULT:      -4.0      0.000      0.000
REMARK  Name = 2Methylcholine.pdbqt.pdb
REMARK  3 active torsions:
REMARK  status: ('A' for Active; 'I' for Inactive)
REMARK    1  A    between atoms: C_1  and  N_2
REMARK    2  A    between atoms: C_1  and  C_6
REMARK    3  A    between atoms: C_6  and  O_8
REMARK                            x       y       z     vdW  Elec       q    Type
REMARK                         _______ _______ _______ _____ _____    ______ ____
ROOT
ATOM      1  C   UNL     1      47.691 -37.223  50.980  0.00  0.00    +0.000 C 
ENDROOT
BRANCH   1   2
ATOM      2  N   UNL     1      48.602 -38.212  50.438  0.00  0.00    +0.000 N 
ATOM      3  C   UNL     1      47.970 -39.534  50.450  0.00  0.00    +0.000 C 
ATOM      4  C   UNL     1      48.957 -37.861  49.060  0.00  0.00    +0.000 C 
ATOM      5  C   UNL     1      49.822 -38.257  51.248  0.00  0.00    +0.000 C 
ENDBRANCH   1   2
BRANCH   1   6
ATOM      6  C   UNL     1      46.826 -36.265  51.527  0.00  0.00    +0.000 C 
ATOM      7  C   UNL     1      47.289 -35.298  52.550  0.00  0.00    +0.000 C 
BRANCH   6   8
ATOM      8  O   UNL     1      45.521 -36.170  51.152  0.00  0.00    +0.000 OA
ATOM      9  H   UNL     1      45.485 -36.109  50.178  0.00  0.00    +0.000 HD
ENDBRANCH   6   8
ENDBRANCH   1   6
TORSDOF 3
ENDMDL
MODEL 2
REMARK VINA RESULT:      -3.8      2.310      3.788
REMARK  Name = 2Methylcholine.pdbqt.pdb
REMARK  3 active torsions:
REMARK  status: ('A' for Active; 'I' for Inactive)
REMARK    1  A    between atoms: C_1  and  N_2
REMARK    2  A    between atoms: C_1  and  C_6
REMARK    3  A    between atoms: C_6  and  O_8
REMARK                            x       y       z     vdW  Elec       q    Type
REMARK                         _______ _______ _______ _____ _____    ______ ____
ROOT
ATOM      1  C   UNL     1      48.045 -38.641  50.956  0.00  0.00    +0.000 C 
ENDROOT
BRANCH   1   2
ATOM      2  N   UNL     1      48.121 -37.194  50.973  0.00  0.00    +0.000 N 
ATOM      3  C   UNL     1      46.791 -36.627  51.219  0.00  0.00    +0.000 C 
ATOM      4  C   UNL     1      49.034 -36.754  52.032  0.00  0.00    +0.000 C 
ATOM      5  C   UNL     1      48.616 -36.708  49.683  0.00  0.00    +0.000 C 
ENDBRANCH   1   2
BRANCH   1   6
ATOM      6  C   UNL     1      48.000 -40.042  50.937  0.00  0.00    +0.000 C 
ATOM      7  C   UNL     1      47.554 -40.787  49.736  0.00  0.00    +0.000 C 
BRANCH   6   8
ATOM      8  O   UNL     1      48.359 -40.792  52.015  0.00  0.00    +0.000 OA
ATOM      9  H   UNL     1      49.233 -41.189  51.836  0.00  0.00    +0.000 HD
ENDBRANCH   6   8
ENDBRANCH   1   6
TORSDOF 3
ENDMDL
MODEL 3
REMARK VINA RESULT:      -3.6      2.623      3.850
REMARK  Name = 2Methylcholine.pdbqt.pdb
REMARK  3 active torsions:
REMARK  status: ('A' for Active; 'I' for Inactive)
REMARK    1  A    between atoms: C_1  and  N_2
REMARK    2  A    between atoms: C_1  and  C_6
REMARK    3  A    between atoms: C_6  and  O_8
REMARK                            x       y       z     vdW  Elec       q    Type
REMARK                         _______ _______ _______ _____ _____    ______ ____
ROOT
ATOM      1  C   UNL     1      48.966 -37.005  49.589  0.00  0.00    +0.000 C 
ENDROOT
BRANCH   1   2
ATOM      2  N   UNL     1      48.303 -37.130  50.872  0.00  0.00    +0.000 N 
ATOM      3  C   UNL     1      49.173 -36.617  51.935  0.00  0.00    +0.000 C 
ATOM      4  C   UNL     1      47.052 -36.367  50.864  0.00  0.00    +0.000 C 
ATOM      5  C   UNL     1      48.002 -38.539  51.138  0.00  0.00    +0.000 C 
ENDBRANCH   1   2
BRANCH   1   6
ATOM      6  C   UNL     1      49.582 -36.885  48.335  0.00  0.00    +0.000 C 
ATOM      7  C   UNL     1      48.949 -36.127  47.230  0.00  0.00    +0.000 C 
BRANCH   6   8
ATOM      8  O   UNL     1      50.789 -37.454  48.065  0.00  0.00    +0.000 OA
ATOM      9  H   UNL     1      51.198 -36.970  47.322  0.00  0.00    +0.000 HD
ENDBRANCH   6   8
ENDBRANCH   1   6
TORSDOF 3
ENDMDL
MODEL 4
REMARK VINA RESULT:      -3.4     10.962     12.977
REMARK  Name = 2Methylcholine.pdbqt.pdb
REMARK  3 active torsions:
REMARK  status: ('A' for Active; 'I' for Inactive)
REMARK    1  A    between atoms: C_1  and  N_2
REMARK    2  A    between atoms: C_1  and  C_6
REMARK    3  A    between atoms: C_6  and  O_8
REMARK                            x       y       z     vdW  Elec       q    Type
REMARK                         _______ _______ _______ _____ _____    ______ ____
ROOT
ATOM      1  C   UNL     1      39.732 -28.897  54.428  0.00  0.00    +0.000 C 
ENDROOT
BRANCH   1   2
ATOM      2  N   UNL     1      38.849 -27.847  54.898  0.00  0.00    +0.000 N 
ATOM      3  C   UNL     1      37.621 -27.833  54.098  0.00  0.00    +0.000 C 
ATOM      4  C   UNL     1      38.506 -28.075  56.304  0.00  0.00    +0.000 C 
ATOM      5  C   UNL     1      39.515 -26.548  54.773  0.00  0.00    +0.000 C 
ENDBRANCH   1   2
BRANCH   1   6
ATOM      6  C   UNL     1      40.595 -29.915  53.999  0.00  0.00    +0.000 C 
ATOM      7  C   UNL     1      41.707 -29.643  53.058  0.00  0.00    +0.000 C 
BRANCH   6   8
ATOM      8  O   UNL     1      40.461 -31.202  54.421  0.00  0.00    +0.000 OA
ATOM      9  H   UNL     1      40.725 -31.248  55.360  0.00  0.00    +0.000 HD
ENDBRANCH   6   8
ENDBRANCH   1   6
TORSDOF 3
ENDMDL
MODEL 5
REMARK VINA RESULT:      -3.4      2.981      3.972
REMARK  Name = 2Methylcholine.pdbqt.pdb
REMARK  3 active torsions:
REMARK  status: ('A' for Active; 'I' for Inactive)
REMARK    1  A    between atoms: C_1  and  N_2
REMARK    2  A    between atoms: C_1  and  C_6
REMARK    3  A    between atoms: C_6  and  O_8
REMARK                            x       y       z     vdW  Elec       q    Type
REMARK                         _______ _______ _______ _____ _____    ______ ____
ROOT
ATOM      1  C   UNL     1      48.898 -39.887  50.356  0.00  0.00    +0.000 C 
ENDROOT
BRANCH   1   2
ATOM      2  N   UNL     1      48.248 -41.147  50.054  0.00  0.00    +0.000 N 
ATOM      3  C   UNL     1      49.215 -42.079  49.467  0.00  0.00    +0.000 C 
ATOM      4  C   UNL     1      47.700 -41.733  51.280  0.00  0.00    +0.000 C 
ATOM      5  C   UNL     1      47.158 -40.926  49.101  0.00  0.00    +0.000 C 
ENDBRANCH   1   2
BRANCH   1   6
ATOM      6  C   UNL     1      49.520 -38.672  50.674  0.00  0.00    +0.000 C 
ATOM      7  C   UNL     1      49.316 -37.457  49.850  0.00  0.00    +0.000 C 
BRANCH   6   8
ATOM      8  O   UNL     1      50.342 -38.541  51.751  0.00  0.00    +0.000 OA
ATOM      9  H   UNL     1      50.577 -37.598  51.847  0.00  0.00    +0.000 HD
ENDBRANCH   6   8
ENDBRANCH   1   6
TORSDOF 3
ENDMDL
MODEL 6
REMARK VINA RESULT:      -3.3     11.460     13.478
REMARK  Name = 2Methylcholine.pdbqt.pdb
REMARK  3 active torsions:
REMARK  status: ('A' for Active; 'I' for Inactive)
REMARK    1  A    between atoms: C_1  and  N_2
REMARK    2  A    between atoms: C_1  and  C_6
REMARK    3  A    between atoms: C_6  and  O_8
REMARK                            x       y       z     vdW  Elec       q    Type
REMARK                         _______ _______ _______ _____ _____    ______ ____
ROOT
ATOM      1  C   UNL     1      39.893 -28.065  54.521  0.00  0.00    +0.000 C 
ENDROOT
BRANCH   1   2
ATOM      2  N   UNL     1      38.704 -27.428  55.053  0.00  0.00    +0.000 N 
ATOM      3  C   UNL     1      38.413 -27.953  56.390  0.00  0.00    +0.000 C 
ATOM      4  C   UNL     1      38.909 -25.980  55.138  0.00  0.00    +0.000 C 
ATOM      5  C   UNL     1      37.563 -27.699  54.174  0.00  0.00    +0.000 C 
ENDBRANCH   1   2
BRANCH   1   6
ATOM      6  C   UNL     1      41.055 -28.677  54.031  0.00  0.00    +0.000 C 
ATOM      7  C   UNL     1      40.998 -29.934  53.248  0.00  0.00    +0.000 C 
BRANCH   6   8
ATOM      8  O   UNL     1      42.294 -28.155  54.247  0.00  0.00    +0.000 OA
ATOM      9  H   UNL     1      42.948 -28.877  54.184  0.00  0.00    +0.000 HD
ENDBRANCH   6   8
ENDBRANCH   1   6
TORSDOF 3
ENDMDL
MODEL 7
REMARK VINA RESULT:      -3.3     16.566     17.873
REMARK  Name = 2Methylcholine.pdbqt.pdb
REMARK  3 active torsions:
REMARK  status: ('A' for Active; 'I' for Inactive)
REMARK    1  A    between atoms: C_1  and  N_2
REMARK    2  A    between atoms: C_1  and  C_6
REMARK    3  A    between atoms: C_6  and  O_8
REMARK                            x       y       z     vdW  Elec       q    Type
REMARK                         _______ _______ _______ _____ _____    ______ ____
ROOT
ATOM      1  C   UNL     1      59.776 -46.099  60.342  0.00  0.00    +0.000 C 
ENDROOT
BRANCH   1   2
ATOM      2  N   UNL     1      59.298 -47.093  61.282  0.00  0.00    +0.000 N 
ATOM      3  C   UNL     1      58.177 -46.551  62.055  0.00  0.00    +0.000 C 
ATOM      4  C   UNL     1      58.852 -48.289  60.561  0.00  0.00    +0.000 C 
ATOM      5  C   UNL     1      60.377 -47.465  62.201  0.00  0.00    +0.000 C 
ENDBRANCH   1   2
BRANCH   1   6
ATOM      6  C   UNL     1      60.261 -45.154  59.426  0.00  0.00    +0.000 C 
ATOM      7  C   UNL     1      59.732 -45.072  58.044  0.00  0.00    +0.000 C 
BRANCH   6   8
ATOM      8  O   UNL     1      61.238 -44.264  59.754  0.00  0.00    +0.000 OA
ATOM      9  H   UNL     1      61.022 -43.877  60.625  0.00  0.00    +0.000 HD
ENDBRANCH   6   8
ENDBRANCH   1   6
TORSDOF 3
ENDMDL
MODEL 8
REMARK VINA RESULT:      -3.3      1.682      2.148
REMARK  Name = 2Methylcholine.pdbqt.pdb
REMARK  3 active torsions:
REMARK  status: ('A' for Active; 'I' for Inactive)
REMARK    1  A    between atoms: C_1  and  N_2
REMARK    2  A    between atoms: C_1  and  C_6
REMARK    3  A    between atoms: C_6  and  O_8
REMARK                            x       y       z     vdW  Elec       q    Type
REMARK                         _______ _______ _______ _____ _____    ______ ____
ROOT
ATOM      1  C   UNL     1      47.871 -38.905  50.700  0.00  0.00    +0.000 C 
ENDROOT
BRANCH   1   2
ATOM      2  N   UNL     1      48.122 -40.251  50.222  0.00  0.00    +0.000 N 
ATOM      3  C   UNL     1      47.046 -40.667  49.317  0.00  0.00    +0.000 C 
ATOM      4  C   UNL     1      49.399 -40.297  49.504  0.00  0.00    +0.000 C 
ATOM      5  C   UNL     1      48.178 -41.176  51.356  0.00  0.00    +0.000 C 
ENDBRANCH   1   2
BRANCH   1   6
ATOM      6  C   UNL     1      47.604 -37.612  51.170  0.00  0.00    +0.000 C 
ATOM      7  C   UNL     1      48.580 -36.874  52.007  0.00  0.00    +0.000 C 
BRANCH   6   8
ATOM      8  O   UNL     1      46.440 -36.965  50.887  0.00  0.00    +0.000 OA
ATOM      9  H   UNL     1      45.696 -37.550  51.128  0.00  0.00    +0.000 HD
ENDBRANCH   6   8
ENDBRANCH   1   6
TORSDOF 3
ENDMDL
MODEL 9
REMARK VINA RESULT:      -3.2     11.394     12.782
REMARK  Name = 2Methylcholine.pdbqt.pdb
REMARK  3 active torsions:
REMARK  status: ('A' for Active; 'I' for Inactive)
REMARK    1  A    between atoms: C_1  and  N_2
REMARK    2  A    between atoms: C_1  and  C_6
REMARK    3  A    between atoms: C_6  and  O_8
REMARK                            x       y       z     vdW  Elec       q    Type
REMARK                         _______ _______ _______ _____ _____    ______ ____
ROOT
ATOM      1  C   UNL     1      40.131 -27.765  54.495  0.00  0.00    +0.000 C 
ENDROOT
BRANCH   1   2
ATOM      2  N   UNL     1      40.675 -29.042  54.076  0.00  0.00    +0.000 N 
ATOM      3  C   UNL     1      42.111 -28.910  53.813  0.00  0.00    +0.000 C 
ATOM      4  C   UNL     1      40.470 -30.041  55.128  0.00  0.00    +0.000 C 
ATOM      5  C   UNL     1      40.004 -29.489  52.854  0.00  0.00    +0.000 C 
ENDBRANCH   1   2
BRANCH   1   6
ATOM      6  C   UNL     1      39.586 -26.544  54.916  0.00  0.00    +0.000 C 
ATOM      7  C   UNL     1      38.401 -26.489  55.805  0.00  0.00    +0.000 C 
BRANCH   6   8
ATOM      8  O   UNL     1      40.112 -25.347  54.535  0.00  0.00    +0.000 OA
ATOM      9  H   UNL     1      40.752 -25.508  53.814  0.00  0.00    +0.000 HD
ENDBRANCH   6   8
ENDBRANCH   1   6
TORSDOF 3
ENDMDL
