MODEL 1
REMARK VINA RESULT:      -8.1      0.000      0.000
REMARK  Name = 3035817_K252a.pdbqt.pdb
REMARK  3 active torsions:
REMARK  status: ('A' for Active; 'I' for Inactive)
REMARK    1  A    between atoms: C_3  and  O_7
REMARK    2  A    between atoms: C_3  and  C_9
REMARK    3  A    between atoms: C_9  and  O_11
REMARK                            x       y       z     vdW  Elec       q    Type
REMARK                         _______ _______ _______ _____ _____    ______ ____
ROOT
ATOM      1  O   UNL     1      49.837 -42.133  49.156  0.00  0.00    +0.000 OA
ATOM      2  C   UNL     1      49.219 -42.719  47.957  0.00  0.00    +0.000 C 
ATOM      3  C   UNL     1      47.714 -42.991  48.392  0.00  0.00    +0.000 C 
ATOM      4  C   UNL     1      48.829 -41.320  49.704  0.00  0.00    +0.000 C 
ATOM      5  C   UNL     1      47.605 -41.985  49.445  0.00  0.00    +0.000 C 
ATOM      6  C   UNL     1      50.051 -44.007  47.653  0.00  0.00    +0.000 C 
ATOM      7  N   UNL     1      49.342 -41.711  46.884  0.00  0.00    +0.000 N 
ATOM      8  C   UNL     1      49.391 -40.341  46.938  0.00  0.00    +0.000 A 
ATOM      9  C   UNL     1      49.209 -39.536  48.063  0.00  0.00    +0.000 A 
ATOM     10  C   UNL     1      49.556 -39.617  45.753  0.00  0.00    +0.000 A 
ATOM     11  N   UNL     1      48.913 -39.996  49.309  0.00  0.00    +0.000 N 
ATOM     12  C   UNL     1      49.216 -38.157  47.824  0.00  0.00    +0.000 A 
ATOM     13  C   UNL     1      48.644 -38.784  49.968  0.00  0.00    +0.000 A 
ATOM     14  C   UNL     1      48.849 -37.653  49.090  0.00  0.00    +0.000 A 
ATOM     15  C   UNL     1      48.243 -38.598  51.301  0.00  0.00    +0.000 A 
ATOM     16  C   UNL     1      48.622 -36.364  49.614  0.00  0.00    +0.000 A 
ATOM     17  C   UNL     1      48.227 -36.199  50.940  0.00  0.00    +0.000 A 
ATOM     18  C   UNL     1      48.039 -37.298  51.766  0.00  0.00    +0.000 A 
ATOM     19  C   UNL     1      49.400 -37.414  46.640  0.00  0.00    +0.000 A 
ATOM     20  C   UNL     1      49.590 -38.240  45.494  0.00  0.00    +0.000 A 
ATOM     21  C   UNL     1      49.404 -36.020  46.265  0.00  0.00    +0.000 C 
ATOM     22  C   UNL     1      49.718 -37.324  44.327  0.00  0.00    +0.000 C 
ATOM     23  N   UNL     1      49.600 -36.098  44.880  0.00  0.00    +0.000 N 
ATOM     24  H   UNL     1      49.647 -35.252  44.330  0.00  0.00    +0.000 HD
ATOM     25  O   UNL     1      49.280 -34.975  46.886  0.00  0.00    +0.000 OA
ATOM     26  C   UNL     1      49.567 -40.638  44.786  0.00  0.00    +0.000 A 
ATOM     27  C   UNL     1      49.406 -41.896  45.479  0.00  0.00    +0.000 A 
ATOM     28  C   UNL     1      49.657 -40.652  43.379  0.00  0.00    +0.000 A 
ATOM     29  C   UNL     1      49.323 -43.093  44.746  0.00  0.00    +0.000 A 
ATOM     30  C   UNL     1      49.419 -43.054  43.355  0.00  0.00    +0.000 A 
ATOM     31  C   UNL     1      49.589 -41.856  42.680  0.00  0.00    +0.000 A 
ENDROOT
BRANCH   3  32
ATOM     32  O   UNL     1      46.734 -42.716  47.380  0.00  0.00    +0.000 OA
ATOM     33  H   UNL     1      47.087 -41.988  46.822  0.00  0.00    +0.000 HD
ENDBRANCH   3  32
BRANCH   3  34
ATOM     34  C   UNL     1      47.531 -44.404  48.941  0.00  0.00    +0.000 C 
ATOM     35  O   UNL     1      47.171 -45.322  48.199  0.00  0.00    +0.000 OA
BRANCH  34  36
ATOM     36  O   UNL     1      47.757 -44.457  50.288  0.00  0.00    +0.000 OA
ATOM     37  C   UNL     1      48.584 -45.480  50.771  0.00  0.00    +0.000 C 
ENDBRANCH  34  36
ENDBRANCH   3  34
TORSDOF 3
ENDMDL
MODEL 2
REMARK VINA RESULT:      -7.9      3.004      6.589
REMARK  Name = 3035817_K252a.pdbqt.pdb
REMARK  3 active torsions:
REMARK  status: ('A' for Active; 'I' for Inactive)
REMARK    1  A    between atoms: C_3  and  O_7
REMARK    2  A    between atoms: C_3  and  C_9
REMARK    3  A    between atoms: C_9  and  O_11
REMARK                            x       y       z     vdW  Elec       q    Type
REMARK                         _______ _______ _______ _____ _____    ______ ____
ROOT
ATOM      1  O   UNL     1      49.144 -45.398  45.986  0.00  0.00    +0.000 OA
ATOM      2  C   UNL     1      49.886 -46.298  46.883  0.00  0.00    +0.000 C 
ATOM      3  C   UNL     1      51.412 -46.016  46.538  0.00  0.00    +0.000 C 
ATOM      4  C   UNL     1      49.924 -44.229  45.946  0.00  0.00    +0.000 C 
ATOM      5  C   UNL     1      51.273 -44.654  46.028  0.00  0.00    +0.000 C 
ATOM      6  C   UNL     1      49.393 -47.737  46.521  0.00  0.00    +0.000 C 
ATOM      7  N   UNL     1      49.520 -45.914  48.262  0.00  0.00    +0.000 N 
ATOM      8  C   UNL     1      49.138 -44.706  48.788  0.00  0.00    +0.000 A 
ATOM      9  C   UNL     1      49.119 -43.472  48.136  0.00  0.00    +0.000 A 
ATOM     10  C   UNL     1      48.800 -44.628  50.143  0.00  0.00    +0.000 A 
ATOM     11  N   UNL     1      49.520 -43.265  46.853  0.00  0.00    +0.000 N 
ATOM     12  C   UNL     1      48.775 -42.376  48.935  0.00  0.00    +0.000 A 
ATOM     13  C   UNL     1      49.485 -41.860  46.802  0.00  0.00    +0.000 A 
ATOM     14  C   UNL     1      49.009 -41.301  48.048  0.00  0.00    +0.000 A 
ATOM     15  C   UNL     1      49.829 -41.027  45.724  0.00  0.00    +0.000 A 
ATOM     16  C   UNL     1      48.915 -39.899  48.148  0.00  0.00    +0.000 A 
ATOM     17  C   UNL     1      49.259 -39.088  47.067  0.00  0.00    +0.000 A 
ATOM     18  C   UNL     1      49.710 -39.646  45.879  0.00  0.00    +0.000 A 
ATOM     19  C   UNL     1      48.414 -42.284  50.295  0.00  0.00    +0.000 A 
ATOM     20  C   UNL     1      48.431 -43.547  50.955  0.00  0.00    +0.000 A 
ATOM     21  C   UNL     1      48.071 -41.232  51.222  0.00  0.00    +0.000 C 
ATOM     22  C   UNL     1      48.082 -43.286  52.379  0.00  0.00    +0.000 C 
ATOM     23  N   UNL     1      47.898 -41.948  52.413  0.00  0.00    +0.000 N 
ATOM     24  H   UNL     1      47.645 -41.461  53.262  0.00  0.00    +0.000 HD
ATOM     25  O   UNL     1      47.935 -40.022  51.119  0.00  0.00    +0.000 OA
ATOM     26  C   UNL     1      49.038 -45.943  50.579  0.00  0.00    +0.000 A 
ATOM     27  C   UNL     1      49.502 -46.703  49.440  0.00  0.00    +0.000 A 
ATOM     28  C   UNL     1      48.953 -46.590  51.829  0.00  0.00    +0.000 A 
ATOM     29  C   UNL     1      49.873 -48.049  49.602  0.00  0.00    +0.000 A 
ATOM     30  C   UNL     1      49.770 -48.644  50.859  0.00  0.00    +0.000 A 
ATOM     31  C   UNL     1      49.312 -47.931  51.955  0.00  0.00    +0.000 A 
ENDROOT
BRANCH   3  32
ATOM     32  O   UNL     1      52.294 -46.002  47.670  0.00  0.00    +0.000 OA
ATOM     33  H   UNL     1      53.188 -46.252  47.347  0.00  0.00    +0.000 HD
ENDBRANCH   3  32
BRANCH   3  34
ATOM     34  C   UNL     1      51.935 -46.968  45.466  0.00  0.00    +0.000 C 
ATOM     35  O   UNL     1      51.595 -46.832  44.288  0.00  0.00    +0.000 OA
BRANCH  34  36
ATOM     36  O   UNL     1      52.729 -47.945  46.001  0.00  0.00    +0.000 OA
ATOM     37  C   UNL     1      52.618 -49.238  45.471  0.00  0.00    +0.000 C 
ENDBRANCH  34  36
ENDBRANCH   3  34
TORSDOF 3
ENDMDL
MODEL 3
REMARK VINA RESULT:      -7.8      2.307      6.128
REMARK  Name = 3035817_K252a.pdbqt.pdb
REMARK  3 active torsions:
REMARK  status: ('A' for Active; 'I' for Inactive)
REMARK    1  A    between atoms: C_3  and  O_7
REMARK    2  A    between atoms: C_3  and  C_9
REMARK    3  A    between atoms: C_9  and  O_11
REMARK                            x       y       z     vdW  Elec       q    Type
REMARK                         _______ _______ _______ _____ _____    ______ ____
ROOT
ATOM      1  O   UNL     1      50.439 -41.402  44.814  0.00  0.00    +0.000 OA
ATOM      2  C   UNL     1      49.833 -40.123  44.413  0.00  0.00    +0.000 C 
ATOM      3  C   UNL     1      48.495 -40.546  43.666  0.00  0.00    +0.000 C 
ATOM      4  C   UNL     1      49.344 -42.205  45.177  0.00  0.00    +0.000 C 
ATOM      5  C   UNL     1      48.284 -41.840  44.311  0.00  0.00    +0.000 C 
ATOM      6  C   UNL     1      50.898 -39.433  43.499  0.00  0.00    +0.000 C 
ATOM      7  N   UNL     1      49.591 -39.363  45.657  0.00  0.00    +0.000 N 
ATOM      8  C   UNL     1      49.330 -39.789  46.934  0.00  0.00    +0.000 A 
ATOM      9  C   UNL     1      49.103 -41.100  47.355  0.00  0.00    +0.000 A 
ATOM     10  C   UNL     1      49.180 -38.842  47.952  0.00  0.00    +0.000 A 
ATOM     11  N   UNL     1      49.072 -42.185  46.535  0.00  0.00    +0.000 N 
ATOM     12  C   UNL     1      48.764 -41.248  48.704  0.00  0.00    +0.000 A 
ATOM     13  C   UNL     1      48.613 -43.166  47.431  0.00  0.00    +0.000 A 
ATOM     14  C   UNL     1      48.445 -42.623  48.762  0.00  0.00    +0.000 A 
ATOM     15  C   UNL     1      48.342 -44.518  47.166  0.00  0.00    +0.000 A 
ATOM     16  C   UNL     1      47.992 -43.491  49.775  0.00  0.00    +0.000 A 
ATOM     17  C   UNL     1      47.731 -44.832  49.493  0.00  0.00    +0.000 A 
ATOM     18  C   UNL     1      47.902 -45.332  48.210  0.00  0.00    +0.000 A 
ATOM     19  C   UNL     1      48.628 -40.306  49.744  0.00  0.00    +0.000 A 
ATOM     20  C   UNL     1      48.864 -38.969  49.312  0.00  0.00    +0.000 A 
ATOM     21  C   UNL     1      48.265 -40.330  51.141  0.00  0.00    +0.000 C 
ATOM     22  C   UNL     1      48.637 -38.093  50.494  0.00  0.00    +0.000 C 
ATOM     23  N   UNL     1      48.307 -38.968  51.469  0.00  0.00    +0.000 N 
ATOM     24  H   UNL     1      48.091 -38.669  52.410  0.00  0.00    +0.000 HD
ATOM     25  O   UNL     1      47.980 -41.219  51.929  0.00  0.00    +0.000 OA
ATOM     26  C   UNL     1      49.309 -37.632  47.246  0.00  0.00    +0.000 A 
ATOM     27  C   UNL     1      49.527 -37.960  45.855  0.00  0.00    +0.000 A 
ATOM     28  C   UNL     1      49.231 -36.272  47.611  0.00  0.00    +0.000 A 
ATOM     29  C   UNL     1      49.635 -36.932  44.903  0.00  0.00    +0.000 A 
ATOM     30  C   UNL     1      49.552 -35.602  45.315  0.00  0.00    +0.000 A 
ATOM     31  C   UNL     1      49.359 -35.274  46.647  0.00  0.00    +0.000 A 
ENDROOT
BRANCH   3  32
ATOM     32  O   UNL     1      47.364 -39.703  43.931  0.00  0.00    +0.000 OA
ATOM     33  H   UNL     1      47.672 -38.976  44.516  0.00  0.00    +0.000 HD
ENDBRANCH   3  32
BRANCH   3  34
ATOM     34  C   UNL     1      48.709 -40.695  42.162  0.00  0.00    +0.000 C 
ATOM     35  O   UNL     1      48.479 -39.752  41.401  0.00  0.00    +0.000 OA
BRANCH  34  36
ATOM     36  O   UNL     1      49.109 -41.960  41.830  0.00  0.00    +0.000 OA
ATOM     37  C   UNL     1      50.255 -42.094  41.035  0.00  0.00    +0.000 C 
ENDBRANCH  34  36
ENDBRANCH   3  34
TORSDOF 3
ENDMDL
MODEL 4
REMARK VINA RESULT:      -7.5     15.277     18.838
REMARK  Name = 3035817_K252a.pdbqt.pdb
REMARK  3 active torsions:
REMARK  status: ('A' for Active; 'I' for Inactive)
REMARK    1  A    between atoms: C_3  and  O_7
REMARK    2  A    between atoms: C_3  and  C_9
REMARK    3  A    between atoms: C_9  and  O_11
REMARK                            x       y       z     vdW  Elec       q    Type
REMARK                         _______ _______ _______ _____ _____    ______ ____
ROOT
ATOM      1  O   UNL     1      48.258 -54.388  59.213  0.00  0.00    +0.000 OA
ATOM      2  C   UNL     1      48.692 -54.462  57.809  0.00  0.00    +0.000 C 
ATOM      3  C   UNL     1      49.366 -55.896  57.688  0.00  0.00    +0.000 C 
ATOM      4  C   UNL     1      47.817 -55.690  59.509  0.00  0.00    +0.000 C 
ATOM      5  C   UNL     1      48.656 -56.565  58.776  0.00  0.00    +0.000 C 
ATOM      6  C   UNL     1      49.677 -53.262  57.619  0.00  0.00    +0.000 C 
ATOM      7  N   UNL     1      47.475 -54.318  56.984  0.00  0.00    +0.000 N 
ATOM      8  C   UNL     1      46.170 -54.658  57.240  0.00  0.00    +0.000 A 
ATOM      9  C   UNL     1      45.683 -55.359  58.343  0.00  0.00    +0.000 A 
ATOM     10  C   UNL     1      45.190 -54.368  56.285  0.00  0.00    +0.000 A 
ATOM     11  N   UNL     1      46.452 -55.858  59.349  0.00  0.00    +0.000 N 
ATOM     12  C   UNL     1      44.316 -55.657  58.312  0.00  0.00    +0.000 A 
ATOM     13  C   UNL     1      45.496 -56.618  60.045  0.00  0.00    +0.000 A 
ATOM     14  C   UNL     1      44.185 -56.487  59.446  0.00  0.00    +0.000 A 
ATOM     15  C   UNL     1      45.690 -57.413  61.187  0.00  0.00    +0.000 A 
ATOM     16  C   UNL     1      43.118 -57.190  60.039  0.00  0.00    +0.000 A 
ATOM     17  C   UNL     1      43.329 -57.973  61.174  0.00  0.00    +0.000 A 
ATOM     18  C   UNL     1      44.595 -58.081  61.734  0.00  0.00    +0.000 A 
ATOM     19  C   UNL     1      43.314 -55.355  57.367  0.00  0.00    +0.000 A 
ATOM     20  C   UNL     1      43.815 -54.635  56.243  0.00  0.00    +0.000 A 
ATOM     21  C   UNL     1      41.904 -55.622  57.209  0.00  0.00    +0.000 C 
ATOM     22  C   UNL     1      42.665 -54.435  55.319  0.00  0.00    +0.000 C 
ATOM     23  N   UNL     1      41.639 -55.030  55.967  0.00  0.00    +0.000 N 
ATOM     24  H   UNL     1      40.705 -55.060  55.584  0.00  0.00    +0.000 HD
ATOM     25  O   UNL     1      41.068 -56.192  57.894  0.00  0.00    +0.000 OA
ATOM     26  C   UNL     1      45.953 -53.811  55.243  0.00  0.00    +0.000 A 
ATOM     27  C   UNL     1      47.336 -53.814  55.666  0.00  0.00    +0.000 A 
ATOM     28  C   UNL     1      45.646 -53.328  53.955  0.00  0.00    +0.000 A 
ATOM     29  C   UNL     1      48.337 -53.362  54.789  0.00  0.00    +0.000 A 
ATOM     30  C   UNL     1      47.981 -52.893  53.524  0.00  0.00    +0.000 A 
ATOM     31  C   UNL     1      46.658 -52.869  53.114  0.00  0.00    +0.000 A 
ENDROOT
BRANCH   3  32
ATOM     32  O   UNL     1      49.095 -56.589  56.460  0.00  0.00    +0.000 OA
ATOM     33  H   UNL     1      48.135 -56.800  56.449  0.00  0.00    +0.000 HD
ENDBRANCH   3  32
BRANCH   3  34
ATOM     34  C   UNL     1      50.869 -55.839  57.947  0.00  0.00    +0.000 C 
ATOM     35  O   UNL     1      51.302 -55.679  59.091  0.00  0.00    +0.000 OA
BRANCH  34  36
ATOM     36  O   UNL     1      51.587 -55.930  56.786  0.00  0.00    +0.000 OA
ATOM     37  C   UNL     1      52.795 -56.639  56.820  0.00  0.00    +0.000 C 
ENDBRANCH  34  36
ENDBRANCH   3  34
TORSDOF 3
ENDMDL
MODEL 5
REMARK VINA RESULT:      -7.3      2.187      4.313
REMARK  Name = 3035817_K252a.pdbqt.pdb
REMARK  3 active torsions:
REMARK  status: ('A' for Active; 'I' for Inactive)
REMARK    1  A    between atoms: C_3  and  O_7
REMARK    2  A    between atoms: C_3  and  C_9
REMARK    3  A    between atoms: C_9  and  O_11
REMARK                            x       y       z     vdW  Elec       q    Type
REMARK                         _______ _______ _______ _____ _____    ______ ____
ROOT
ATOM      1  O   UNL     1      50.195 -42.620  45.990  0.00  0.00    +0.000 OA
ATOM      2  C   UNL     1      49.589 -41.805  44.925  0.00  0.00    +0.000 C 
ATOM      3  C   UNL     1      48.178 -42.490  44.670  0.00  0.00    +0.000 C 
ATOM      4  C   UNL     1      49.116 -42.949  46.830  0.00  0.00    +0.000 C 
ATOM      5  C   UNL     1      47.992 -43.104  45.982  0.00  0.00    +0.000 C 
ATOM      6  C   UNL     1      50.583 -41.897  43.721  0.00  0.00    +0.000 C 
ATOM      7  N   UNL     1      49.483 -40.430  45.455  0.00  0.00    +0.000 N 
ATOM      8  C   UNL     1      49.328 -39.971  46.738  0.00  0.00    +0.000 A 
ATOM      9  C   UNL     1      49.106 -40.734  47.885  0.00  0.00    +0.000 A 
ATOM     10  C   UNL     1      49.298 -38.592  46.970  0.00  0.00    +0.000 A 
ATOM     11  N   UNL     1      48.971 -42.088  47.903  0.00  0.00    +0.000 N 
ATOM     12  C   UNL     1      48.888 -40.006  49.059  0.00  0.00    +0.000 A 
ATOM     13  C   UNL     1      48.570 -42.283  49.237  0.00  0.00    +0.000 A 
ATOM     14  C   UNL     1      48.540 -41.033  49.964  0.00  0.00    +0.000 A 
ATOM     15  C   UNL     1      48.240 -43.492  49.870  0.00  0.00    +0.000 A 
ATOM     16  C   UNL     1      48.158 -41.069  51.320  0.00  0.00    +0.000 A 
ATOM     17  C   UNL     1      47.836 -42.279  51.932  0.00  0.00    +0.000 A 
ATOM     18  C   UNL     1      47.876 -43.468  51.216  0.00  0.00    +0.000 A 
ATOM     19  C   UNL     1      48.874 -38.618  49.312  0.00  0.00    +0.000 A 
ATOM     20  C   UNL     1      49.106 -37.842  48.139  0.00  0.00    +0.000 A 
ATOM     21  C   UNL     1      48.641 -37.760  50.449  0.00  0.00    +0.000 C 
ATOM     22  C   UNL     1      49.011 -36.414  48.549  0.00  0.00    +0.000 C 
ATOM     23  N   UNL     1      48.749 -36.488  49.872  0.00  0.00    +0.000 N 
ATOM     24  H   UNL     1      48.628 -35.663  50.444  0.00  0.00    +0.000 HD
ATOM     25  O   UNL     1      48.405 -37.963  51.630  0.00  0.00    +0.000 OA
ATOM     26  C   UNL     1      49.395 -38.074  45.666  0.00  0.00    +0.000 A 
ATOM     27  C   UNL     1      49.475 -39.196  44.757  0.00  0.00    +0.000 A 
ATOM     28  C   UNL     1      49.387 -36.771  45.127  0.00  0.00    +0.000 A 
ATOM     29  C   UNL     1      49.522 -38.970  43.371  0.00  0.00    +0.000 A 
ATOM     30  C   UNL     1      49.513 -37.662  42.887  0.00  0.00    +0.000 A 
ATOM     31  C   UNL     1      49.453 -36.578  43.748  0.00  0.00    +0.000 A 
ENDROOT
BRANCH   3  32
ATOM     32  O   UNL     1      47.098 -41.575  44.427  0.00  0.00    +0.000 OA
ATOM     33  H   UNL     1      47.468 -40.667  44.479  0.00  0.00    +0.000 HD
ENDBRANCH   3  32
BRANCH   3  34
ATOM     34  C   UNL     1      48.248 -43.538  43.562  0.00  0.00    +0.000 C 
ATOM     35  O   UNL     1      47.960 -43.241  42.400  0.00  0.00    +0.000 OA
BRANCH  34  36
ATOM     36  O   UNL     1      48.600 -44.766  44.049  0.00  0.00    +0.000 OA
ATOM     37  C   UNL     1      49.618 -45.464  43.385  0.00  0.00    +0.000 C 
ENDBRANCH  34  36
ENDBRANCH   3  34
TORSDOF 3
ENDMDL
MODEL 6
REMARK VINA RESULT:      -7.3     14.949     18.192
REMARK  Name = 3035817_K252a.pdbqt.pdb
REMARK  3 active torsions:
REMARK  status: ('A' for Active; 'I' for Inactive)
REMARK    1  A    between atoms: C_3  and  O_7
REMARK    2  A    between atoms: C_3  and  C_9
REMARK    3  A    between atoms: C_9  and  O_11
REMARK                            x       y       z     vdW  Elec       q    Type
REMARK                         _______ _______ _______ _____ _____    ______ ____
ROOT
ATOM      1  O   UNL     1      47.797 -55.384  59.067  0.00  0.00    +0.000 OA
ATOM      2  C   UNL     1      48.711 -55.600  57.935  0.00  0.00    +0.000 C 
ATOM      3  C   UNL     1      48.752 -57.180  57.767  0.00  0.00    +0.000 C 
ATOM      4  C   UNL     1      46.802 -56.364  58.900  0.00  0.00    +0.000 C 
ATOM      5  C   UNL     1      47.453 -57.497  58.356  0.00  0.00    +0.000 C 
ATOM      6  C   UNL     1      50.067 -54.957  58.374  0.00  0.00    +0.000 C 
ATOM      7  N   UNL     1      48.115 -54.906  56.775  0.00  0.00    +0.000 N 
ATOM      8  C   UNL     1      46.807 -54.639  56.461  0.00  0.00    +0.000 A 
ATOM      9  C   UNL     1      45.671 -55.085  57.138  0.00  0.00    +0.000 A 
ATOM     10  C   UNL     1      46.517 -53.915  55.300  0.00  0.00    +0.000 A 
ATOM     11  N   UNL     1      45.685 -55.904  58.224  0.00  0.00    +0.000 N 
ATOM     12  C   UNL     1      44.448 -54.744  56.550  0.00  0.00    +0.000 A 
ATOM     13  C   UNL     1      44.312 -56.182  58.348  0.00  0.00    +0.000 A 
ATOM     14  C   UNL     1      43.540 -55.464  57.357  0.00  0.00    +0.000 A 
ATOM     15  C   UNL     1      43.681 -57.015  59.287  0.00  0.00    +0.000 A 
ATOM     16  C   UNL     1      42.142 -55.639  57.358  0.00  0.00    +0.000 A 
ATOM     17  C   UNL     1      41.534 -56.469  58.300  0.00  0.00    +0.000 A 
ATOM     18  C   UNL     1      42.293 -57.144  59.244  0.00  0.00    +0.000 A 
ATOM     19  C   UNL     1      44.141 -54.000  55.392  0.00  0.00    +0.000 A 
ATOM     20  C   UNL     1      45.304 -53.542  54.706  0.00  0.00    +0.000 A 
ATOM     21  C   UNL     1      42.947 -53.609  54.681  0.00  0.00    +0.000 C 
ATOM     22  C   UNL     1      44.827 -52.825  53.492  0.00  0.00    +0.000 C 
ATOM     23  N   UNL     1      43.482 -52.923  53.583  0.00  0.00    +0.000 N 
ATOM     24  H   UNL     1      42.865 -52.523  52.889  0.00  0.00    +0.000 HD
ATOM     25  O   UNL     1      41.752 -53.769  54.878  0.00  0.00    +0.000 OA
ATOM     26  C   UNL     1      47.797 -53.722  54.750  0.00  0.00    +0.000 A 
ATOM     27  C   UNL     1      48.751 -54.352  55.635  0.00  0.00    +0.000 A 
ATOM     28  C   UNL     1      48.274 -53.114  53.570  0.00  0.00    +0.000 A 
ATOM     29  C   UNL     1      50.116 -54.364  55.297  0.00  0.00    +0.000 A 
ATOM     30  C   UNL     1      50.538 -53.747  54.120  0.00  0.00    +0.000 A 
ATOM     31  C   UNL     1      49.636 -53.126  53.272  0.00  0.00    +0.000 A 
ENDROOT
BRANCH   3  32
ATOM     32  O   UNL     1      48.774 -57.642  56.408  0.00  0.00    +0.000 OA
ATOM     33  H   UNL     1      49.510 -58.288  56.330  0.00  0.00    +0.000 HD
ENDBRANCH   3  32
BRANCH   3  34
ATOM     34  C   UNL     1      49.898 -57.804  58.560  0.00  0.00    +0.000 C 
ATOM     35  O   UNL     1      49.806 -57.952  59.781  0.00  0.00    +0.000 OA
BRANCH  34  36
ATOM     36  O   UNL     1      50.970 -58.090  57.760  0.00  0.00    +0.000 OA
ATOM     37  C   UNL     1      51.534 -59.369  57.860  0.00  0.00    +0.000 C 
ENDBRANCH  34  36
ENDBRANCH   3  34
TORSDOF 3
ENDMDL
MODEL 7
REMARK VINA RESULT:      -7.0     26.799     29.491
REMARK  Name = 3035817_K252a.pdbqt.pdb
REMARK  3 active torsions:
REMARK  status: ('A' for Active; 'I' for Inactive)
REMARK    1  A    between atoms: C_3  and  O_7
REMARK    2  A    between atoms: C_3  and  C_9
REMARK    3  A    between atoms: C_9  and  O_11
REMARK                            x       y       z     vdW  Elec       q    Type
REMARK                         _______ _______ _______ _____ _____    ______ ____
ROOT
ATOM      1  O   UNL     1      52.503 -35.942  73.438  0.00  0.00    +0.000 OA
ATOM      2  C   UNL     1      53.725 -35.323  73.978  0.00  0.00    +0.000 C 
ATOM      3  C   UNL     1      53.196 -34.044  74.760  0.00  0.00    +0.000 C 
ATOM      4  C   UNL     1      51.546 -35.758  74.452  0.00  0.00    +0.000 C 
ATOM      5  C   UNL     1      51.842 -34.509  75.049  0.00  0.00    +0.000 C 
ATOM      6  C   UNL     1      54.608 -35.001  72.728  0.00  0.00    +0.000 C 
ATOM      7  N   UNL     1      54.353 -36.328  74.859  0.00  0.00    +0.000 N 
ATOM      8  C   UNL     1      53.803 -37.342  75.602  0.00  0.00    +0.000 A 
ATOM      9  C   UNL     1      52.446 -37.599  75.802  0.00  0.00    +0.000 A 
ATOM     10  C   UNL     1      54.645 -38.190  76.328  0.00  0.00    +0.000 A 
ATOM     11  N   UNL     1      51.430 -36.843  75.304  0.00  0.00    +0.000 N 
ATOM     12  C   UNL     1      52.155 -38.644  76.685  0.00  0.00    +0.000 A 
ATOM     13  C   UNL     1      50.335 -37.421  75.970  0.00  0.00    +0.000 A 
ATOM     14  C   UNL     1      50.751 -38.535  76.794  0.00  0.00    +0.000 A 
ATOM     15  C   UNL     1      48.983 -37.047  75.894  0.00  0.00    +0.000 A 
ATOM     16  C   UNL     1      49.760 -39.221  77.523  0.00  0.00    +0.000 A 
ATOM     17  C   UNL     1      48.423 -38.836  77.433  0.00  0.00    +0.000 A 
ATOM     18  C   UNL     1      48.045 -37.767  76.633  0.00  0.00    +0.000 A 
ATOM     19  C   UNL     1      52.992 -39.519  77.408  0.00  0.00    +0.000 A 
ATOM     20  C   UNL     1      54.377 -39.255  77.199  0.00  0.00    +0.000 A 
ATOM     21  C   UNL     1      52.819 -40.597  78.352  0.00  0.00    +0.000 C 
ATOM     22  C   UNL     1      55.127 -40.214  78.057  0.00  0.00    +0.000 C 
ATOM     23  N   UNL     1      54.147 -40.922  78.659  0.00  0.00    +0.000 N 
ATOM     24  H   UNL     1      54.345 -41.665  79.315  0.00  0.00    +0.000 HD
ATOM     25  O   UNL     1      51.844 -41.158  78.829  0.00  0.00    +0.000 OA
ATOM     26  C   UNL     1      55.911 -37.634  76.071  0.00  0.00    +0.000 A 
ATOM     27  C   UNL     1      55.718 -36.491  75.207  0.00  0.00    +0.000 A 
ATOM     28  C   UNL     1      57.219 -37.938  76.501  0.00  0.00    +0.000 A 
ATOM     29  C   UNL     1      56.820 -35.704  74.833  0.00  0.00    +0.000 A 
ATOM     30  C   UNL     1      58.095 -36.047  75.283  0.00  0.00    +0.000 A 
ATOM     31  C   UNL     1      58.295 -37.149  76.099  0.00  0.00    +0.000 A 
ENDROOT
BRANCH   3  32
ATOM     32  O   UNL     1      53.871 -33.774  75.998  0.00  0.00    +0.000 OA
ATOM     33  H   UNL     1      54.827 -33.948  75.854  0.00  0.00    +0.000 HD
ENDBRANCH   3  32
BRANCH   3  34
ATOM     34  C   UNL     1      53.189 -32.801  73.874  0.00  0.00    +0.000 C 
ATOM     35  O   UNL     1      54.135 -32.009  73.899  0.00  0.00    +0.000 OA
BRANCH  34  36
ATOM     36  O   UNL     1      52.030 -32.698  73.157  0.00  0.00    +0.000 OA
ATOM     37  C   UNL     1      51.606 -31.415  72.783  0.00  0.00    +0.000 C 
ENDBRANCH  34  36
ENDBRANCH   3  34
TORSDOF 3
ENDMDL
MODEL 8
REMARK VINA RESULT:      -6.9      2.814      5.805
REMARK  Name = 3035817_K252a.pdbqt.pdb
REMARK  3 active torsions:
REMARK  status: ('A' for Active; 'I' for Inactive)
REMARK    1  A    between atoms: C_3  and  O_7
REMARK    2  A    between atoms: C_3  and  C_9
REMARK    3  A    between atoms: C_9  and  O_11
REMARK                            x       y       z     vdW  Elec       q    Type
REMARK                         _______ _______ _______ _____ _____    ______ ____
ROOT
ATOM      1  O   UNL     1      48.791 -39.500  43.064  0.00  0.00    +0.000 OA
ATOM      2  C   UNL     1      49.580 -40.690  43.422  0.00  0.00    +0.000 C 
ATOM      3  C   UNL     1      51.046 -40.348  42.912  0.00  0.00    +0.000 C 
ATOM      4  C   UNL     1      49.666 -38.423  43.293  0.00  0.00    +0.000 C 
ATOM      5  C   UNL     1      50.960 -38.891  42.957  0.00  0.00    +0.000 C 
ATOM      6  C   UNL     1      48.892 -41.878  42.674  0.00  0.00    +0.000 C 
ATOM      7  N   UNL     1      49.490 -40.829  44.890  0.00  0.00    +0.000 N 
ATOM      8  C   UNL     1      49.325 -39.888  45.874  0.00  0.00    +0.000 A 
ATOM      9  C   UNL     1      49.320 -38.501  45.721  0.00  0.00    +0.000 A 
ATOM     10  C   UNL     1      49.229 -40.303  47.206  0.00  0.00    +0.000 A 
ATOM     11  N   UNL     1      49.517 -37.848  44.543  0.00  0.00    +0.000 N 
ATOM     12  C   UNL     1      49.226 -37.765  46.907  0.00  0.00    +0.000 A 
ATOM     13  C   UNL     1      49.615 -36.523  45.003  0.00  0.00    +0.000 A 
ATOM     14  C   UNL     1      49.413 -36.448  46.433  0.00  0.00    +0.000 A 
ATOM     15  C   UNL     1      49.854 -35.363  44.247  0.00  0.00    +0.000 A 
ATOM     16  C   UNL     1      49.477 -35.178  47.041  0.00  0.00    +0.000 A 
ATOM     17  C   UNL     1      49.714 -34.038  46.274  0.00  0.00    +0.000 A 
ATOM     18  C   UNL     1      49.901 -34.133  44.902  0.00  0.00    +0.000 A 
ATOM     19  C   UNL     1      49.109 -38.169  48.252  0.00  0.00    +0.000 A 
ATOM     20  C   UNL     1      49.111 -39.586  48.405  0.00  0.00    +0.000 A 
ATOM     21  C   UNL     1      49.033 -37.522  49.541  0.00  0.00    +0.000 C 
ATOM     22  C   UNL     1      49.034 -39.857  49.867  0.00  0.00    +0.000 C 
ATOM     23  N   UNL     1      48.992 -38.620  50.409  0.00  0.00    +0.000 N 
ATOM     24  H   UNL     1      48.936 -38.472  51.407  0.00  0.00    +0.000 HD
ATOM     25  O   UNL     1      49.003 -36.355  49.903  0.00  0.00    +0.000 OA
ATOM     26  C   UNL     1      49.405 -41.694  47.092  0.00  0.00    +0.000 A 
ATOM     27  C   UNL     1      49.592 -41.995  45.690  0.00  0.00    +0.000 A 
ATOM     28  C   UNL     1      49.467 -42.752  48.021  0.00  0.00    +0.000 A 
ATOM     29  C   UNL     1      49.850 -43.317  45.288  0.00  0.00    +0.000 A 
ATOM     30  C   UNL     1      49.901 -44.330  46.246  0.00  0.00    +0.000 A 
ATOM     31  C   UNL     1      49.706 -44.056  47.590  0.00  0.00    +0.000 A 
ENDROOT
BRANCH   3  32
ATOM     32  O   UNL     1      52.103 -40.780  43.782  0.00  0.00    +0.000 OA
ATOM     33  H   UNL     1      52.217 -41.747  43.647  0.00  0.00    +0.000 HD
ENDBRANCH   3  32
BRANCH   3  34
ATOM     34  C   UNL     1      51.285 -40.855  41.492  0.00  0.00    +0.000 C 
ATOM     35  O   UNL     1      51.785 -41.966  41.300  0.00  0.00    +0.000 OA
BRANCH  34  36
ATOM     36  O   UNL     1      50.932 -39.923  40.556  0.00  0.00    +0.000 OA
ATOM     37  C   UNL     1      50.051 -40.319  39.540  0.00  0.00    +0.000 C 
ENDBRANCH  34  36
ENDBRANCH   3  34
TORSDOF 3
ENDMDL
MODEL 9
REMARK VINA RESULT:      -6.8     27.956     30.767
REMARK  Name = 3035817_K252a.pdbqt.pdb
REMARK  3 active torsions:
REMARK  status: ('A' for Active; 'I' for Inactive)
REMARK    1  A    between atoms: C_3  and  O_7
REMARK    2  A    between atoms: C_3  and  C_9
REMARK    3  A    between atoms: C_9  and  O_11
REMARK                            x       y       z     vdW  Elec       q    Type
REMARK                         _______ _______ _______ _____ _____    ______ ____
ROOT
ATOM      1  O   UNL     1      51.134 -52.603  75.981  0.00  0.00    +0.000 OA
ATOM      2  C   UNL     1      52.158 -52.687  74.927  0.00  0.00    +0.000 C 
ATOM      3  C   UNL     1      51.502 -51.934  73.691  0.00  0.00    +0.000 C 
ATOM      4  C   UNL     1      50.573 -51.325  75.817  0.00  0.00    +0.000 C 
ATOM      5  C   UNL     1      50.584 -51.066  74.424  0.00  0.00    +0.000 C 
ATOM      6  C   UNL     1      52.395 -54.217  74.706  0.00  0.00    +0.000 C 
ATOM      7  N   UNL     1      53.360 -52.008  75.453  0.00  0.00    +0.000 N 
ATOM      8  C   UNL     1      53.491 -50.980  76.352  0.00  0.00    +0.000 A 
ATOM      9  C   UNL     1      52.467 -50.220  76.918  0.00  0.00    +0.000 A 
ATOM     10  C   UNL     1      54.772 -50.549  76.713  0.00  0.00    +0.000 A 
ATOM     11  N   UNL     1      51.145 -50.363  76.632  0.00  0.00    +0.000 N 
ATOM     12  C   UNL     1      52.883 -49.165  77.737  0.00  0.00    +0.000 A 
ATOM     13  C   UNL     1      50.620 -49.243  77.301  0.00  0.00    +0.000 A 
ATOM     14  C   UNL     1      51.657 -48.517  78.001  0.00  0.00    +0.000 A 
ATOM     15  C   UNL     1      49.282 -48.818  77.353  0.00  0.00    +0.000 A 
ATOM     16  C   UNL     1      51.281 -47.367  78.724  0.00  0.00    +0.000 A 
ATOM     17  C   UNL     1      49.948 -46.962  78.766  0.00  0.00    +0.000 A 
ATOM     18  C   UNL     1      48.969 -47.676  78.090  0.00  0.00    +0.000 A 
ATOM     19  C   UNL     1      54.168 -48.731  78.124  0.00  0.00    +0.000 A 
ATOM     20  C   UNL     1      55.211 -49.512  77.548  0.00  0.00    +0.000 A 
ATOM     21  C   UNL     1      54.718 -47.664  78.925  0.00  0.00    +0.000 C 
ATOM     22  C   UNL     1      56.494 -48.909  78.002  0.00  0.00    +0.000 C 
ATOM     23  N   UNL     1      56.095 -47.876  78.776  0.00  0.00    +0.000 N 
ATOM     24  H   UNL     1      56.753 -47.263  79.237  0.00  0.00    +0.000 HD
ATOM     25  O   UNL     1      54.228 -46.766  79.594  0.00  0.00    +0.000 OA
ATOM     26  C   UNL     1      55.591 -51.364  75.911  0.00  0.00    +0.000 A 
ATOM     27  C   UNL     1      54.725 -52.220  75.132  0.00  0.00    +0.000 A 
ATOM     28  C   UNL     1      56.984 -51.460  75.715  0.00  0.00    +0.000 A 
ATOM     29  C   UNL     1      55.279 -53.106  74.192  0.00  0.00    +0.000 A 
ATOM     30  C   UNL     1      56.664 -53.165  74.036  0.00  0.00    +0.000 A 
ATOM     31  C   UNL     1      57.506 -52.361  74.788  0.00  0.00    +0.000 A 
ENDROOT
BRANCH   3  32
ATOM     32  O   UNL     1      52.408 -51.119  72.932  0.00  0.00    +0.000 OA
ATOM     33  H   UNL     1      51.933 -50.832  72.121  0.00  0.00    +0.000 HD
ENDBRANCH   3  32
BRANCH   3  34
ATOM     34  C   UNL     1      50.755 -52.898  72.772  0.00  0.00    +0.000 C 
ATOM     35  O   UNL     1      49.644 -53.330  73.089  0.00  0.00    +0.000 OA
BRANCH  34  36
ATOM     36  O   UNL     1      51.492 -53.214  71.664  0.00  0.00    +0.000 OA
ATOM     37  C   UNL     1      51.164 -54.392  70.978  0.00  0.00    +0.000 C 
ENDBRANCH  34  36
ENDBRANCH   3  34
TORSDOF 3
ENDMDL
