MODEL 1
REMARK VINA RESULT:      -5.6      0.000      0.000
REMARK  Name = 3136_Dimethoxy.pdbqt.pdb
REMARK  2 active torsions:
REMARK  status: ('A' for Active; 'I' for Inactive)
REMARK    1  A    between atoms: C_7  and  O_13
REMARK    2  A    between atoms: C_8  and  O_15
REMARK                            x       y       z     vdW  Elec       q    Type
REMARK                         _______ _______ _______ _____ _____    ______ ____
ROOT
ATOM      1  O   UNL     1      47.587 -40.971  51.307  0.00  0.00    +0.000 OA
ATOM      2  O   UNL     1      50.100 -38.963  47.059  0.00  0.00    +0.000 OA
ATOM      3  C   UNL     1      48.348 -39.065  50.187  0.00  0.00    +0.000 A 
ATOM      4  C   UNL     1      49.025 -38.544  49.093  0.00  0.00    +0.000 A 
ATOM      5  C   UNL     1      48.139 -40.511  50.317  0.00  0.00    +0.000 C 
ATOM      6  C   UNL     1      49.550 -39.428  48.047  0.00  0.00    +0.000 C 
ATOM      7  C   UNL     1      48.632 -41.389  49.227  0.00  0.00    +0.000 C 
ATOM      8  C   UNL     1      49.375 -40.891  48.218  0.00  0.00    +0.000 C 
ATOM      9  C   UNL     1      47.860 -38.213  51.177  0.00  0.00    +0.000 A 
ATOM     10  C   UNL     1      49.213 -37.166  48.978  0.00  0.00    +0.000 A 
ATOM     11  C   UNL     1      48.047 -36.837  51.065  0.00  0.00    +0.000 A 
ATOM     12  C   UNL     1      48.723 -36.313  49.966  0.00  0.00    +0.000 A 
ENDROOT
BRANCH   7  13
ATOM     13  O   UNL     1      48.361 -42.736  49.386  0.00  0.00    +0.000 OA
ATOM     14  C   UNL     1      49.486 -43.384  49.929  0.00  0.00    +0.000 C 
ENDBRANCH   7  13
BRANCH   8  15
ATOM     15  O   UNL     1      49.936 -41.673  47.223  0.00  0.00    +0.000 OA
ATOM     16  C   UNL     1      48.967 -41.957  46.242  0.00  0.00    +0.000 C 
ENDBRANCH   8  15
TORSDOF 2
ENDMDL
MODEL 2
REMARK VINA RESULT:      -5.4      1.890      4.149
REMARK  Name = 3136_Dimethoxy.pdbqt.pdb
REMARK  2 active torsions:
REMARK  status: ('A' for Active; 'I' for Inactive)
REMARK    1  A    between atoms: C_7  and  O_13
REMARK    2  A    between atoms: C_8  and  O_15
REMARK                            x       y       z     vdW  Elec       q    Type
REMARK                         _______ _______ _______ _____ _____    ______ ____
ROOT
ATOM      1  O   UNL     1      49.976 -43.122  47.936  0.00  0.00    +0.000 OA
ATOM      2  O   UNL     1      46.944 -41.807  52.117  0.00  0.00    +0.000 OA
ATOM      3  C   UNL     1      49.137 -41.421  49.305  0.00  0.00    +0.000 A 
ATOM      4  C   UNL     1      48.327 -41.077  50.378  0.00  0.00    +0.000 A 
ATOM      5  C   UNL     1      49.302 -42.825  48.914  0.00  0.00    +0.000 C 
ATOM      6  C   UNL     1      47.615 -42.109  51.140  0.00  0.00    +0.000 C 
ATOM      7  C   UNL     1      48.616 -43.862  49.724  0.00  0.00    +0.000 C 
ATOM      8  C   UNL     1      47.752 -43.519  50.701  0.00  0.00    +0.000 C 
ATOM      9  C   UNL     1      49.803 -40.430  48.585  0.00  0.00    +0.000 A 
ATOM     10  C   UNL     1      48.182 -39.738  50.743  0.00  0.00    +0.000 A 
ATOM     11  C   UNL     1      49.658 -39.092  48.948  0.00  0.00    +0.000 A 
ATOM     12  C   UNL     1      48.848 -38.746  50.027  0.00  0.00    +0.000 A 
ENDROOT
BRANCH   7  13
ATOM     13  O   UNL     1      48.851 -45.168  49.334  0.00  0.00    +0.000 OA
ATOM     14  C   UNL     1      47.823 -45.596  48.474  0.00  0.00    +0.000 C 
ENDBRANCH   7  13
BRANCH   8  15
ATOM     15  O   UNL     1      47.017 -44.438  51.429  0.00  0.00    +0.000 OA
ATOM     16  C   UNL     1      47.799 -44.938  52.488  0.00  0.00    +0.000 C 
ENDBRANCH   8  15
TORSDOF 2
ENDMDL
MODEL 3
REMARK VINA RESULT:      -5.2     15.001     17.642
REMARK  Name = 3136_Dimethoxy.pdbqt.pdb
REMARK  2 active torsions:
REMARK  status: ('A' for Active; 'I' for Inactive)
REMARK    1  A    between atoms: C_7  and  O_13
REMARK    2  A    between atoms: C_8  and  O_15
REMARK                            x       y       z     vdW  Elec       q    Type
REMARK                         _______ _______ _______ _____ _____    ______ ____
ROOT
ATOM      1  O   UNL     1      38.170 -27.769  57.232  0.00  0.00    +0.000 OA
ATOM      2  O   UNL     1      37.933 -27.327  51.927  0.00  0.00    +0.000 OA
ATOM      3  C   UNL     1      38.985 -28.477  55.157  0.00  0.00    +0.000 A 
ATOM      4  C   UNL     1      38.905 -28.379  53.775  0.00  0.00    +0.000 A 
ATOM      5  C   UNL     1      38.134 -27.644  56.015  0.00  0.00    +0.000 C 
ATOM      6  C   UNL     1      37.965 -27.448  53.143  0.00  0.00    +0.000 C 
ATOM      7  C   UNL     1      37.223 -26.672  55.363  0.00  0.00    +0.000 C 
ATOM      8  C   UNL     1      37.076 -26.650  54.023  0.00  0.00    +0.000 C 
ATOM      9  C   UNL     1      39.879 -29.370  55.745  0.00  0.00    +0.000 A 
ATOM     10  C   UNL     1      39.724 -29.172  52.970  0.00  0.00    +0.000 A 
ATOM     11  C   UNL     1      40.696 -30.164  54.943  0.00  0.00    +0.000 A 
ATOM     12  C   UNL     1      40.620 -30.065  53.555  0.00  0.00    +0.000 A 
ENDROOT
BRANCH   7  13
ATOM     13  O   UNL     1      36.484 -25.884  56.227  0.00  0.00    +0.000 OA
ATOM     14  C   UNL     1      37.109 -24.633  56.378  0.00  0.00    +0.000 C 
ENDBRANCH   7  13
BRANCH   8  15
ATOM     15  O   UNL     1      36.177 -25.828  53.365  0.00  0.00    +0.000 OA
ATOM     16  C   UNL     1      34.913 -26.446  53.324  0.00  0.00    +0.000 C 
ENDBRANCH   8  15
TORSDOF 2
ENDMDL
MODEL 4
REMARK VINA RESULT:      -5.1     11.842     15.021
REMARK  Name = 3136_Dimethoxy.pdbqt.pdb
REMARK  2 active torsions:
REMARK  status: ('A' for Active; 'I' for Inactive)
REMARK    1  A    between atoms: C_7  and  O_13
REMARK    2  A    between atoms: C_8  and  O_15
REMARK                            x       y       z     vdW  Elec       q    Type
REMARK                         _______ _______ _______ _____ _____    ______ ____
ROOT
ATOM      1  O   UNL     1      50.380 -54.048  52.882  0.00  0.00    +0.000 OA
ATOM      2  O   UNL     1      46.823 -52.174  56.379  0.00  0.00    +0.000 OA
ATOM      3  C   UNL     1      49.651 -53.972  55.103  0.00  0.00    +0.000 A 
ATOM      4  C   UNL     1      48.740 -53.464  56.017  0.00  0.00    +0.000 A 
ATOM      5  C   UNL     1      49.545 -53.640  53.678  0.00  0.00    +0.000 C 
ATOM      6  C   UNL     1      47.655 -52.578  55.579  0.00  0.00    +0.000 C 
ATOM      7  C   UNL     1      48.415 -52.784  53.242  0.00  0.00    +0.000 C 
ATOM      8  C   UNL     1      47.591 -52.211  54.144  0.00  0.00    +0.000 C 
ATOM      9  C   UNL     1      50.681 -54.808  55.534  0.00  0.00    +0.000 A 
ATOM     10  C   UNL     1      48.848 -53.792  57.369  0.00  0.00    +0.000 A 
ATOM     11  C   UNL     1      50.792 -55.135  56.883  0.00  0.00    +0.000 A 
ATOM     12  C   UNL     1      49.875 -54.628  57.801  0.00  0.00    +0.000 A 
ENDROOT
BRANCH   7  13
ATOM     13  O   UNL     1      48.343 -52.547  51.882  0.00  0.00    +0.000 OA
ATOM     14  C   UNL     1      47.455 -53.463  51.288  0.00  0.00    +0.000 C 
ENDBRANCH   7  13
BRANCH   8  15
ATOM     15  O   UNL     1      46.576 -51.334  53.803  0.00  0.00    +0.000 OA
ATOM     16  C   UNL     1      47.080 -50.020  53.764  0.00  0.00    +0.000 C 
ENDBRANCH   8  15
TORSDOF 2
ENDMDL
MODEL 5
REMARK VINA RESULT:      -4.9     23.702     25.866
REMARK  Name = 3136_Dimethoxy.pdbqt.pdb
REMARK  2 active torsions:
REMARK  status: ('A' for Active; 'I' for Inactive)
REMARK    1  A    between atoms: C_7  and  O_13
REMARK    2  A    between atoms: C_8  and  O_15
REMARK                            x       y       z     vdW  Elec       q    Type
REMARK                         _______ _______ _______ _____ _____    ______ ____
ROOT
ATOM      1  O   UNL     1      46.859 -57.130  68.891  0.00  0.00    +0.000 OA
ATOM      2  O   UNL     1      43.438 -53.187  69.962  0.00  0.00    +0.000 OA
ATOM      3  C   UNL     1      45.258 -55.634  68.074  0.00  0.00    +0.000 A 
ATOM      4  C   UNL     1      44.350 -54.624  68.358  0.00  0.00    +0.000 A 
ATOM      5  C   UNL     1      46.095 -56.205  69.134  0.00  0.00    +0.000 C 
ATOM      6  C   UNL     1      44.202 -54.112  69.724  0.00  0.00    +0.000 C 
ATOM      7  C   UNL     1      45.971 -55.644  70.502  0.00  0.00    +0.000 C 
ATOM      8  C   UNL     1      45.019 -54.735  70.795  0.00  0.00    +0.000 C 
ATOM      9  C   UNL     1      45.384 -56.115  66.771  0.00  0.00    +0.000 A 
ATOM     10  C   UNL     1      43.563 -54.084  67.339  0.00  0.00    +0.000 A 
ATOM     11  C   UNL     1      44.598 -55.579  65.753  0.00  0.00    +0.000 A 
ATOM     12  C   UNL     1      43.688 -54.563  66.037  0.00  0.00    +0.000 A 
ENDROOT
BRANCH   7  13
ATOM     13  O   UNL     1      46.821 -56.192  71.445  0.00  0.00    +0.000 OA
ATOM     14  C   UNL     1      47.975 -55.396  71.562  0.00  0.00    +0.000 C 
ENDBRANCH   7  13
BRANCH   8  15
ATOM     15  O   UNL     1      44.797 -54.242  72.068  0.00  0.00    +0.000 OA
ATOM     16  C   UNL     1      43.837 -55.037  72.723  0.00  0.00    +0.000 C 
ENDBRANCH   8  15
TORSDOF 2
ENDMDL
MODEL 6
REMARK VINA RESULT:      -4.7     16.152     17.981
REMARK  Name = 3136_Dimethoxy.pdbqt.pdb
REMARK  2 active torsions:
REMARK  status: ('A' for Active; 'I' for Inactive)
REMARK    1  A    between atoms: C_7  and  O_13
REMARK    2  A    between atoms: C_8  and  O_15
REMARK                            x       y       z     vdW  Elec       q    Type
REMARK                         _______ _______ _______ _____ _____    ______ ____
ROOT
ATOM      1  O   UNL     1      59.984 -47.985  62.987  0.00  0.00    +0.000 OA
ATOM      2  O   UNL     1      59.050 -49.569  57.985  0.00  0.00    +0.000 OA
ATOM      3  C   UNL     1      59.903 -47.413  60.721  0.00  0.00    +0.000 A 
ATOM      4  C   UNL     1      59.684 -47.832  59.416  0.00  0.00    +0.000 A 
ATOM      5  C   UNL     1      59.741 -48.344  61.842  0.00  0.00    +0.000 C 
ATOM      6  C   UNL     1      59.293 -49.216  59.131  0.00  0.00    +0.000 C 
ATOM      7  C   UNL     1      59.297 -49.728  61.543  0.00  0.00    +0.000 C 
ATOM      8  C   UNL     1      59.182 -50.159  60.270  0.00  0.00    +0.000 C 
ATOM      9  C   UNL     1      60.281 -46.095  60.978  0.00  0.00    +0.000 A 
ATOM     10  C   UNL     1      59.836 -46.934  58.359  0.00  0.00    +0.000 A 
ATOM     11  C   UNL     1      60.434 -45.198  59.923  0.00  0.00    +0.000 A 
ATOM     12  C   UNL     1      60.211 -45.617  58.613  0.00  0.00    +0.000 A 
ENDROOT
BRANCH   7  13
ATOM     13  O   UNL     1      59.117 -50.542  62.646  0.00  0.00    +0.000 OA
ATOM     14  C   UNL     1      57.750 -50.598  62.974  0.00  0.00    +0.000 C 
ENDBRANCH   7  13
BRANCH   8  15
ATOM     15  O   UNL     1      58.859 -51.461  59.930  0.00  0.00    +0.000 OA
ATOM     16  C   UNL     1      60.033 -52.233  59.843  0.00  0.00    +0.000 C 
ENDBRANCH   8  15
TORSDOF 2
ENDMDL
MODEL 7
REMARK VINA RESULT:      -4.7     17.339     18.951
REMARK  Name = 3136_Dimethoxy.pdbqt.pdb
REMARK  2 active torsions:
REMARK  status: ('A' for Active; 'I' for Inactive)
REMARK    1  A    between atoms: C_7  and  O_13
REMARK    2  A    between atoms: C_8  and  O_15
REMARK                            x       y       z     vdW  Elec       q    Type
REMARK                         _______ _______ _______ _____ _____    ______ ____
ROOT
ATOM      1  O   UNL     1      62.655 -49.297  61.526  0.00  0.00    +0.000 OA
ATOM      2  O   UNL     1      60.943 -44.536  59.853  0.00  0.00    +0.000 OA
ATOM      3  C   UNL     1      60.943 -47.704  61.534  0.00  0.00    +0.000 A 
ATOM      4  C   UNL     1      60.508 -46.454  61.118  0.00  0.00    +0.000 A 
ATOM      5  C   UNL     1      62.253 -48.216  61.116  0.00  0.00    +0.000 C 
ATOM      6  C   UNL     1      61.351 -45.615  60.260  0.00  0.00    +0.000 C 
ATOM      7  C   UNL     1      63.073 -47.379  60.208  0.00  0.00    +0.000 C 
ATOM      8  C   UNL     1      62.693 -46.125  59.888  0.00  0.00    +0.000 C 
ATOM      9  C   UNL     1      60.134 -48.489  62.355  0.00  0.00    +0.000 A 
ATOM     10  C   UNL     1      59.257 -45.980  61.517  0.00  0.00    +0.000 A 
ATOM     11  C   UNL     1      58.886 -48.017  62.756  0.00  0.00    +0.000 A 
ATOM     12  C   UNL     1      58.447 -46.763  62.336  0.00  0.00    +0.000 A 
ENDROOT
BRANCH   7  13
ATOM     13  O   UNL     1      64.275 -47.938  59.813  0.00  0.00    +0.000 OA
ATOM     14  C   UNL     1      64.126 -48.534  58.547  0.00  0.00    +0.000 C 
ENDBRANCH   7  13
BRANCH   8  15
ATOM     15  O   UNL     1      63.459 -45.267  59.118  0.00  0.00    +0.000 OA
ATOM     16  C   UNL     1      64.318 -44.525  59.950  0.00  0.00    +0.000 C 
ENDBRANCH   8  15
TORSDOF 2
ENDMDL
MODEL 8
REMARK VINA RESULT:      -4.6     15.042     16.729
REMARK  Name = 3136_Dimethoxy.pdbqt.pdb
REMARK  2 active torsions:
REMARK  status: ('A' for Active; 'I' for Inactive)
REMARK    1  A    between atoms: C_7  and  O_13
REMARK    2  A    between atoms: C_8  and  O_15
REMARK                            x       y       z     vdW  Elec       q    Type
REMARK                         _______ _______ _______ _____ _____    ______ ____
ROOT
ATOM      1  O   UNL     1      43.805 -55.209  58.624  0.00  0.00    +0.000 OA
ATOM      2  O   UNL     1      46.824 -52.683  55.032  0.00  0.00    +0.000 OA
ATOM      3  C   UNL     1      43.945 -54.237  56.502  0.00  0.00    +0.000 A 
ATOM      4  C   UNL     1      44.724 -53.557  55.577  0.00  0.00    +0.000 A 
ATOM      5  C   UNL     1      44.508 -54.655  57.790  0.00  0.00    +0.000 C 
ATOM      6  C   UNL     1      46.125 -53.236  55.870  0.00  0.00    +0.000 C 
ATOM      7  C   UNL     1      45.940 -54.369  58.053  0.00  0.00    +0.000 C 
ATOM      8  C   UNL     1      46.666 -53.621  57.196  0.00  0.00    +0.000 C 
ATOM      9  C   UNL     1      42.612 -54.529  56.213  0.00  0.00    +0.000 A 
ATOM     10  C   UNL     1      44.178 -53.169  54.353  0.00  0.00    +0.000 A 
ATOM     11  C   UNL     1      42.065 -54.142  54.992  0.00  0.00    +0.000 A 
ATOM     12  C   UNL     1      42.847 -53.462  54.061  0.00  0.00    +0.000 A 
ENDROOT
BRANCH   7  13
ATOM     13  O   UNL     1      46.422 -54.831  59.264  0.00  0.00    +0.000 OA
ATOM     14  C   UNL     1      46.870 -56.157  59.119  0.00  0.00    +0.000 C 
ENDBRANCH   7  13
BRANCH   8  15
ATOM     15  O   UNL     1      47.978 -53.247  57.430  0.00  0.00    +0.000 OA
ATOM     16  C   UNL     1      48.849 -54.213  56.892  0.00  0.00    +0.000 C 
ENDBRANCH   8  15
TORSDOF 2
ENDMDL
MODEL 9
REMARK VINA RESULT:      -4.6      7.213      8.227
REMARK  Name = 3136_Dimethoxy.pdbqt.pdb
REMARK  2 active torsions:
REMARK  status: ('A' for Active; 'I' for Inactive)
REMARK    1  A    between atoms: C_7  and  O_13
REMARK    2  A    between atoms: C_8  and  O_15
REMARK                            x       y       z     vdW  Elec       q    Type
REMARK                         _______ _______ _______ _____ _____    ______ ____
ROOT
ATOM      1  O   UNL     1      52.824 -34.550  42.974  0.00  0.00    +0.000 OA
ATOM      2  O   UNL     1      48.438 -33.967  45.944  0.00  0.00    +0.000 OA
ATOM      3  C   UNL     1      51.846 -33.616  44.881  0.00  0.00    +0.000 A 
ATOM      4  C   UNL     1      50.697 -33.444  45.641  0.00  0.00    +0.000 A 
ATOM      5  C   UNL     1      51.823 -34.442  43.669  0.00  0.00    +0.000 C 
ATOM      6  C   UNL     1      49.435 -34.078  45.244  0.00  0.00    +0.000 C 
ATOM      7  C   UNL     1      50.553 -35.117  43.307  0.00  0.00    +0.000 C 
ATOM      8  C   UNL     1      49.416 -34.868  43.989  0.00  0.00    +0.000 C 
ATOM      9  C   UNL     1      53.037 -33.003  45.267  0.00  0.00    +0.000 A 
ATOM     10  C   UNL     1      50.733 -32.661  46.796  0.00  0.00    +0.000 A 
ATOM     11  C   UNL     1      53.075 -32.219  46.418  0.00  0.00    +0.000 A 
ATOM     12  C   UNL     1      51.923 -32.049  47.183  0.00  0.00    +0.000 A 
ENDROOT
BRANCH   7  13
ATOM     13  O   UNL     1      50.609 -35.918  42.181  0.00  0.00    +0.000 OA
ATOM     14  C   UNL     1      50.748 -37.265  42.566  0.00  0.00    +0.000 C 
ENDBRANCH   7  13
BRANCH   8  15
ATOM     15  O   UNL     1      48.185 -35.398  43.644  0.00  0.00    +0.000 OA
ATOM     16  C   UNL     1      47.565 -34.572  42.688  0.00  0.00    +0.000 C 
ENDBRANCH   8  15
TORSDOF 2
ENDMDL
