MODEL 1
REMARK VINA RESULT:      -5.7      0.000      0.000
REMARK  Name = 326_Cuminaldehyde.pdb
REMARK  1 active torsions:
REMARK  status: ('A' for Active; 'I' for Inactive)
REMARK    1  A    between atoms: C_1  and  C_7
REMARK                            x       y       z     vdW  Elec       q    Type
REMARK                         _______ _______ _______ _____ _____    ______ ____
ROOT
ATOM      1  C   UNL     1      48.925 -36.812  50.632  0.00  0.00    +0.000 C 
ATOM      2  C   UNL     1      49.516 -38.047  50.909  0.00  0.00    +0.000 C 
ATOM      3  C   UNL     1      48.671 -36.453  49.306  0.00  0.00    +0.000 C 
ATOM      4  C   UNL     1      49.847 -38.916  49.871  0.00  0.00    +0.000 C 
ATOM      5  C   UNL     1      49.003 -37.322  48.267  0.00  0.00    +0.000 C 
ATOM      6  C   UNL     1      49.591 -38.553  48.552  0.00  0.00    +0.000 C 
ATOM      7  O   UNL     1      50.211 -40.174  46.613  0.00  0.00    +0.000 OA
ATOM      8  C   UNL     1      49.931 -39.441  47.489  0.00  0.00    +0.000 C 
ENDROOT
BRANCH   1   9
ATOM      9  C   UNL     1      48.578 -35.902  51.720  0.00  0.00    +0.000 C 
ATOM     10  C   UNL     1      49.622 -35.379  52.673  0.00  0.00    +0.000 C 
ATOM     11  C   UNL     1      47.158 -35.444  51.939  0.00  0.00    +0.000 C 
ENDBRANCH   1   9
TORSDOF 1
ENDMDL
MODEL 2
REMARK VINA RESULT:      -4.8      2.642      4.756
REMARK  Name = 326_Cuminaldehyde.pdb
REMARK  1 active torsions:
REMARK  status: ('A' for Active; 'I' for Inactive)
REMARK    1  A    between atoms: C_1  and  C_7
REMARK                            x       y       z     vdW  Elec       q    Type
REMARK                         _______ _______ _______ _____ _____    ______ ____
ROOT
ATOM      1  C   UNL     1      49.362 -37.826  48.427  0.00  0.00    +0.000 C 
ATOM      2  C   UNL     1      49.891 -38.631  49.438  0.00  0.00    +0.000 C 
ATOM      3  C   UNL     1      48.660 -36.667  48.767  0.00  0.00    +0.000 C 
ATOM      4  C   UNL     1      49.723 -38.279  50.777  0.00  0.00    +0.000 C 
ATOM      5  C   UNL     1      48.491 -36.315  50.105  0.00  0.00    +0.000 C 
ATOM      6  C   UNL     1      49.023 -37.122  51.108  0.00  0.00    +0.000 C 
ATOM      7  O   UNL     1      48.706 -36.466  53.606  0.00  0.00    +0.000 OA
ATOM      8  C   UNL     1      48.849 -36.762  52.477  0.00  0.00    +0.000 C 
ENDROOT
BRANCH   1   9
ATOM      9  C   UNL     1      49.539 -38.194  47.025  0.00  0.00    +0.000 C 
ATOM     10  C   UNL     1      49.933 -39.593  46.622  0.00  0.00    +0.000 C 
ATOM     11  C   UNL     1      49.336 -37.192  45.916  0.00  0.00    +0.000 C 
ENDBRANCH   1   9
TORSDOF 1
ENDMDL
MODEL 3
REMARK VINA RESULT:      -4.7     12.847     15.512
REMARK  Name = 326_Cuminaldehyde.pdb
REMARK  1 active torsions:
REMARK  status: ('A' for Active; 'I' for Inactive)
REMARK    1  A    between atoms: C_1  and  C_7
REMARK                            x       y       z     vdW  Elec       q    Type
REMARK                         _______ _______ _______ _____ _____    ______ ____
ROOT
ATOM      1  C   UNL     1      38.345 -26.913  56.367  0.00  0.00    +0.000 C 
ATOM      2  C   UNL     1      38.353 -28.302  56.516  0.00  0.00    +0.000 C 
ATOM      3  C   UNL     1      39.130 -26.324  55.373  0.00  0.00    +0.000 C 
ATOM      4  C   UNL     1      39.137 -29.094  55.678  0.00  0.00    +0.000 C 
ATOM      5  C   UNL     1      39.914 -27.115  54.535  0.00  0.00    +0.000 C 
ATOM      6  C   UNL     1      39.916 -28.500  54.689  0.00  0.00    +0.000 C 
ATOM      7  O   UNL     1      41.381 -29.977  53.126  0.00  0.00    +0.000 OA
ATOM      8  C   UNL     1      40.719 -29.309  53.832  0.00  0.00    +0.000 C 
ENDROOT
BRANCH   1   9
ATOM      9  C   UNL     1      37.523 -26.084  57.244  0.00  0.00    +0.000 C 
ATOM     10  C   UNL     1      36.016 -26.137  57.194  0.00  0.00    +0.000 C 
ATOM     11  C   UNL     1      38.143 -25.138  58.241  0.00  0.00    +0.000 C 
ENDBRANCH   1   9
TORSDOF 1
ENDMDL
MODEL 4
REMARK VINA RESULT:      -4.7     16.081     17.422
REMARK  Name = 326_Cuminaldehyde.pdb
REMARK  1 active torsions:
REMARK  status: ('A' for Active; 'I' for Inactive)
REMARK    1  A    between atoms: C_1  and  C_7
REMARK                            x       y       z     vdW  Elec       q    Type
REMARK                         _______ _______ _______ _____ _____    ______ ____
ROOT
ATOM      1  C   UNL     1      47.436 -52.648  55.722  0.00  0.00    +0.000 C 
ATOM      2  C   UNL     1      48.635 -53.128  55.189  0.00  0.00    +0.000 C 
ATOM      3  C   UNL     1      47.130 -52.899  57.061  0.00  0.00    +0.000 C 
ATOM      4  C   UNL     1      49.520 -53.851  55.988  0.00  0.00    +0.000 C 
ATOM      5  C   UNL     1      48.013 -53.623  57.861  0.00  0.00    +0.000 C 
ATOM      6  C   UNL     1      49.208 -54.097  57.323  0.00  0.00    +0.000 C 
ATOM      7  O   UNL     1      50.857 -55.448  58.815  0.00  0.00    +0.000 OA
ATOM      8  C   UNL     1      50.112 -54.838  58.140  0.00  0.00    +0.000 C 
ENDROOT
BRANCH   1   9
ATOM      9  C   UNL     1      46.511 -51.890  54.885  0.00  0.00    +0.000 C 
ATOM     10  C   UNL     1      46.882 -50.542  54.320  0.00  0.00    +0.000 C 
ATOM     11  C   UNL     1      45.140 -52.421  54.546  0.00  0.00    +0.000 C 
ENDBRANCH   1   9
TORSDOF 1
ENDMDL
MODEL 5
REMARK VINA RESULT:      -4.5      7.170      9.088
REMARK  Name = 326_Cuminaldehyde.pdb
REMARK  1 active torsions:
REMARK  status: ('A' for Active; 'I' for Inactive)
REMARK    1  A    between atoms: C_1  and  C_7
REMARK                            x       y       z     vdW  Elec       q    Type
REMARK                         _______ _______ _______ _____ _____    ______ ____
ROOT
ATOM      1  C   UNL     1      48.910 -46.235  51.360  0.00  0.00    +0.000 C 
ATOM      2  C   UNL     1      49.188 -45.443  50.244  0.00  0.00    +0.000 C 
ATOM      3  C   UNL     1      48.168 -45.700  52.415  0.00  0.00    +0.000 C 
ATOM      4  C   UNL     1      48.726 -44.129  50.182  0.00  0.00    +0.000 C 
ATOM      5  C   UNL     1      47.706 -44.386  52.354  0.00  0.00    +0.000 C 
ATOM      6  C   UNL     1      47.986 -43.602  51.237  0.00  0.00    +0.000 C 
ATOM      7  O   UNL     1      47.125 -41.150  51.123  0.00  0.00    +0.000 OA
ATOM      8  C   UNL     1      47.514 -42.258  51.174  0.00  0.00    +0.000 C 
ENDROOT
BRANCH   1   9
ATOM      9  C   UNL     1      49.394 -47.611  51.424  0.00  0.00    +0.000 C 
ATOM     10  C   UNL     1      50.865 -47.934  51.338  0.00  0.00    +0.000 C 
ATOM     11  C   UNL     1      48.445 -48.773  51.580  0.00  0.00    +0.000 C 
ENDBRANCH   1   9
TORSDOF 1
ENDMDL
MODEL 6
REMARK VINA RESULT:      -4.5      6.242      7.386
REMARK  Name = 326_Cuminaldehyde.pdb
REMARK  1 active torsions:
REMARK  status: ('A' for Active; 'I' for Inactive)
REMARK    1  A    between atoms: C_1  and  C_7
REMARK                            x       y       z     vdW  Elec       q    Type
REMARK                         _______ _______ _______ _____ _____    ______ ____
ROOT
ATOM      1  C   UNL     1      50.807 -33.589  46.222  0.00  0.00    +0.000 C 
ATOM      2  C   UNL     1      50.849 -32.407  46.966  0.00  0.00    +0.000 C 
ATOM      3  C   UNL     1      51.931 -33.982  45.492  0.00  0.00    +0.000 C 
ATOM      4  C   UNL     1      52.005 -31.628  46.982  0.00  0.00    +0.000 C 
ATOM      5  C   UNL     1      53.087 -33.203  45.507  0.00  0.00    +0.000 C 
ATOM      6  C   UNL     1      53.122 -32.026  46.252  0.00  0.00    +0.000 C 
ATOM      7  O   UNL     1      55.279 -30.571  46.280  0.00  0.00    +0.000 OA
ATOM      8  C   UNL     1      54.304 -31.229  46.267  0.00  0.00    +0.000 C 
ENDROOT
BRANCH   1   9
ATOM      9  C   UNL     1      49.596 -34.406  46.207  0.00  0.00    +0.000 C 
ATOM     10  C   UNL     1      49.433 -35.590  47.126  0.00  0.00    +0.000 C 
ATOM     11  C   UNL     1      48.454 -34.102  45.270  0.00  0.00    +0.000 C 
ENDBRANCH   1   9
TORSDOF 1
ENDMDL
MODEL 7
REMARK VINA RESULT:      -4.4     13.302     15.721
REMARK  Name = 326_Cuminaldehyde.pdb
REMARK  1 active torsions:
REMARK  status: ('A' for Active; 'I' for Inactive)
REMARK    1  A    between atoms: C_1  and  C_7
REMARK                            x       y       z     vdW  Elec       q    Type
REMARK                         _______ _______ _______ _____ _____    ______ ____
ROOT
ATOM      1  C   UNL     1      36.728 -28.255  54.934  0.00  0.00    +0.000 C 
ATOM      2  C   UNL     1      37.589 -28.674  55.952  0.00  0.00    +0.000 C 
ATOM      3  C   UNL     1      37.259 -27.865  53.702  0.00  0.00    +0.000 C 
ATOM      4  C   UNL     1      38.966 -28.705  55.739  0.00  0.00    +0.000 C 
ATOM      5  C   UNL     1      38.636 -27.894  53.489  0.00  0.00    +0.000 C 
ATOM      6  C   UNL     1      39.488 -28.314  54.509  0.00  0.00    +0.000 C 
ATOM      7  O   UNL     1      42.059 -28.369  54.111  0.00  0.00    +0.000 OA
ATOM      8  C   UNL     1      40.897 -28.344  54.291  0.00  0.00    +0.000 C 
ENDROOT
BRANCH   1   9
ATOM      9  C   UNL     1      35.285 -28.225  55.157  0.00  0.00    +0.000 C 
ATOM     10  C   UNL     1      34.348 -27.584  54.164  0.00  0.00    +0.000 C 
ATOM     11  C   UNL     1      34.666 -28.833  56.390  0.00  0.00    +0.000 C 
ENDBRANCH   1   9
TORSDOF 1
ENDMDL
MODEL 8
REMARK VINA RESULT:      -4.4     17.682     18.156
REMARK  Name = 326_Cuminaldehyde.pdb
REMARK  1 active torsions:
REMARK  status: ('A' for Active; 'I' for Inactive)
REMARK    1  A    between atoms: C_1  and  C_7
REMARK                            x       y       z     vdW  Elec       q    Type
REMARK                         _______ _______ _______ _____ _____    ______ ____
ROOT
ATOM      1  C   UNL     1      59.047 -47.999  60.561  0.00  0.00    +0.000 C 
ATOM      2  C   UNL     1      59.673 -48.107  59.316  0.00  0.00    +0.000 C 
ATOM      3  C   UNL     1      58.227 -49.036  61.011  0.00  0.00    +0.000 C 
ATOM      4  C   UNL     1      59.481 -49.243  58.530  0.00  0.00    +0.000 C 
ATOM      5  C   UNL     1      58.034 -50.171  60.225  0.00  0.00    +0.000 C 
ATOM      6  C   UNL     1      58.662 -50.272  58.985  0.00  0.00    +0.000 C 
ATOM      7  O   UNL     1      58.302 -52.391  57.518  0.00  0.00    +0.000 OA
ATOM      8  C   UNL     1      58.465 -51.434  58.181  0.00  0.00    +0.000 C 
ENDROOT
BRANCH   1   9
ATOM      9  C   UNL     1      59.249 -46.810  61.384  0.00  0.00    +0.000 C 
ATOM     10  C   UNL     1      60.576 -46.094  61.422  0.00  0.00    +0.000 C 
ATOM     11  C   UNL     1      58.140 -46.243  62.234  0.00  0.00    +0.000 C 
ENDBRANCH   1   9
TORSDOF 1
ENDMDL
MODEL 9
REMARK VINA RESULT:      -4.3     12.322     13.878
REMARK  Name = 326_Cuminaldehyde.pdb
REMARK  1 active torsions:
REMARK  status: ('A' for Active; 'I' for Inactive)
REMARK    1  A    between atoms: C_1  and  C_7
REMARK                            x       y       z     vdW  Elec       q    Type
REMARK                         _______ _______ _______ _____ _____    ______ ____
ROOT
ATOM      1  C   UNL     1      48.610 -49.813  52.060  0.00  0.00    +0.000 C 
ATOM      2  C   UNL     1      48.790 -51.198  52.094  0.00  0.00    +0.000 C 
ATOM      3  C   UNL     1      47.735 -49.212  52.968  0.00  0.00    +0.000 C 
ATOM      4  C   UNL     1      48.104 -51.974  53.027  0.00  0.00    +0.000 C 
ATOM      5  C   UNL     1      47.048 -49.987  53.901  0.00  0.00    +0.000 C 
ATOM      6  C   UNL     1      47.234 -51.367  53.929  0.00  0.00    +0.000 C 
ATOM      7  O   UNL     1      45.951 -52.814  55.670  0.00  0.00    +0.000 OA
ATOM      8  C   UNL     1      46.531 -52.160  54.883  0.00  0.00    +0.000 C 
ENDROOT
BRANCH   1   9
ATOM      9  C   UNL     1      49.330 -49.001  51.083  0.00  0.00    +0.000 C 
ATOM     10  C   UNL     1      50.530 -48.177  51.476  0.00  0.00    +0.000 C 
ATOM     11  C   UNL     1      48.906 -48.951  49.637  0.00  0.00    +0.000 C 
ENDBRANCH   1   9
TORSDOF 1
ENDMDL
