MODEL 1
REMARK VINA RESULT:      -5.3      0.000      0.000
REMARK  Name = 3363_5FluorouracilDeoxyriboside.pdbqt.pdb
REMARK  4 active torsions:
REMARK  status: ('A' for Active; 'I' for Inactive)
REMARK    1  A    between atoms: N_4  and  C1*_13
REMARK    2  A    between atoms: C3*_12  and  O3*_16
REMARK    3  A    between atoms: C4*_15  and  C5*_18
REMARK    4  A    between atoms: C5*_18  and  O5*_19
REMARK                            x       y       z     vdW  Elec       q    Type
REMARK                         _______ _______ _______ _____ _____    ______ ____
ROOT
ATOM      1  F   UNL     1      50.197 -40.014  46.479  0.00  0.00    +0.000 F 
ATOM      2  O   UNL     1      47.842 -39.039  51.277  0.00  0.00    +0.000 OA
ATOM      3  O   UNL     1      49.439 -37.412  47.293  0.00  0.00    +0.000 OA
ATOM      4  N   UNL     1      48.545 -40.605  49.642  0.00  0.00    +0.000 N 
ATOM      5  N   UNL     1      48.572 -38.289  49.238  0.00  0.00    +0.000 N 
ATOM      6  C   UNL     1      48.274 -39.318  50.165  0.00  0.00    +0.000 C 
ATOM      7  C   UNL     1      49.027 -40.668  48.384  0.00  0.00    +0.000 C 
ATOM      8  C   UNL     1      49.323 -39.800  47.477  0.00  0.00    +0.000 C 
ATOM      9  C   UNL     1      49.127 -38.394  47.956  0.00  0.00    +0.000 C 
ATOM     10  H   UNL     1      48.432 -37.349  49.582  0.00  0.00    +0.000 HD
ENDROOT
BRANCH   4  13
ATOM     11  O4* UNL     1      48.619 -43.020  49.767  0.00  0.00    +0.000 OA
ATOM     12  C3* UNL     1      47.878 -43.311  51.943  0.00  0.00    +0.000 A 
ATOM     13  C1* UNL     1      48.356 -41.767  50.335  0.00  0.00    +0.000 A 
ATOM     14  C2* UNL     1      47.913 -41.934  51.661  0.00  0.00    +0.000 A 
ATOM     15  C4* UNL     1      48.329 -43.978  50.745  0.00  0.00    +0.000 A 
BRANCH  12  16
ATOM     16  O3* UNL     1      48.095 -43.833  53.187  0.00  0.00    +0.000 OA
ATOM     17  H3* UNL     1      48.962 -43.573  53.548  0.00  0.00    +0.000 HD
ENDBRANCH  12  16
BRANCH  15  18
ATOM     18  C5* UNL     1      48.661 -45.339  50.594  0.00  0.00    +0.000 C 
BRANCH  18  19
ATOM     19  O5* UNL     1      48.969 -46.621  50.430  0.00  0.00    +0.000 OA
ATOM     20  H5* UNL     1      49.619 -46.905  51.096  0.00  0.00    +0.000 HD
ENDBRANCH  18  19
ENDBRANCH  15  18
ENDBRANCH   4  13
TORSDOF 4
ENDMDL
MODEL 2
REMARK VINA RESULT:      -5.3      3.520      5.151
REMARK  Name = 3363_5FluorouracilDeoxyriboside.pdbqt.pdb
REMARK  4 active torsions:
REMARK  status: ('A' for Active; 'I' for Inactive)
REMARK    1  A    between atoms: N_4  and  C1*_13
REMARK    2  A    between atoms: C3*_12  and  O3*_16
REMARK    3  A    between atoms: C4*_15  and  C5*_18
REMARK    4  A    between atoms: C5*_18  and  O5*_19
REMARK                            x       y       z     vdW  Elec       q    Type
REMARK                         _______ _______ _______ _____ _____    ______ ____
ROOT
ATOM      1  F   UNL     1      50.835 -40.003  44.682  0.00  0.00    +0.000 F 
ATOM      2  O   UNL     1      48.572 -35.765  47.218  0.00  0.00    +0.000 OA
ATOM      3  O   UNL     1      49.906 -37.723  43.287  0.00  0.00    +0.000 OA
ATOM      4  N   UNL     1      49.339 -38.007  47.300  0.00  0.00    +0.000 N 
ATOM      5  N   UNL     1      49.174 -36.822  45.276  0.00  0.00    +0.000 N 
ATOM      6  C   UNL     1      48.987 -36.784  46.679  0.00  0.00    +0.000 C 
ATOM      7  C   UNL     1      49.783 -38.997  46.500  0.00  0.00    +0.000 C 
ATOM      8  C   UNL     1      49.982 -39.123  45.232  0.00  0.00    +0.000 C 
ATOM      9  C   UNL     1      49.693 -37.857  44.486  0.00  0.00    +0.000 C 
ATOM     10  H   UNL     1      48.973 -35.958  44.794  0.00  0.00    +0.000 HD
ENDROOT
BRANCH   4  13
ATOM     11  O4* UNL     1      49.601 -37.243  49.581  0.00  0.00    +0.000 OA
ATOM     12  C3* UNL     1      48.930 -39.157  50.702  0.00  0.00    +0.000 A 
ATOM     13  C1* UNL     1      49.263 -38.230  48.646  0.00  0.00    +0.000 A 
ATOM     14  C2* UNL     1      48.846 -39.394  49.319  0.00  0.00    +0.000 A 
ATOM     15  C4* UNL     1      49.400 -37.801  50.849  0.00  0.00    +0.000 A 
BRANCH  12  16
ATOM     16  O3* UNL     1      48.101 -39.740  51.619  0.00  0.00    +0.000 OA
ATOM     17  H3* UNL     1      48.509 -40.518  52.041  0.00  0.00    +0.000 HD
ENDBRANCH  12  16
BRANCH  15  18
ATOM     18  C5* UNL     1      49.452 -37.034  52.030  0.00  0.00    +0.000 C 
BRANCH  18  19
ATOM     19  O5* UNL     1      49.502 -36.292  53.131  0.00  0.00    +0.000 OA
ATOM     20  H5* UNL     1      50.279 -36.528  53.668  0.00  0.00    +0.000 HD
ENDBRANCH  18  19
ENDBRANCH  15  18
ENDBRANCH   4  13
TORSDOF 4
ENDMDL
MODEL 3
REMARK VINA RESULT:      -5.3     15.853     16.823
REMARK  Name = 3363_5FluorouracilDeoxyriboside.pdbqt.pdb
REMARK  4 active torsions:
REMARK  status: ('A' for Active; 'I' for Inactive)
REMARK    1  A    between atoms: N_4  and  C1*_13
REMARK    2  A    between atoms: C3*_12  and  O3*_16
REMARK    3  A    between atoms: C4*_15  and  C5*_18
REMARK    4  A    between atoms: C5*_18  and  O5*_19
REMARK                            x       y       z     vdW  Elec       q    Type
REMARK                         _______ _______ _______ _____ _____    ______ ____
ROOT
ATOM      1  F   UNL     1      61.116 -47.283  57.966  0.00  0.00    +0.000 F 
ATOM      2  O   UNL     1      58.009 -46.701  62.383  0.00  0.00    +0.000 OA
ATOM      3  O   UNL     1      60.538 -44.751  59.087  0.00  0.00    +0.000 OA
ATOM      4  N   UNL     1      58.820 -48.089  60.641  0.00  0.00    +0.000 N 
ATOM      5  N   UNL     1      59.208 -45.770  60.667  0.00  0.00    +0.000 N 
ATOM      6  C   UNL     1      58.612 -46.871  61.330  0.00  0.00    +0.000 C 
ATOM      7  C   UNL     1      59.527 -48.033  59.493  0.00  0.00    +0.000 C 
ATOM      8  C   UNL     1      60.098 -47.093  58.821  0.00  0.00    +0.000 C 
ATOM      9  C   UNL     1      59.985 -45.763  59.501  0.00  0.00    +0.000 C 
ATOM     10  H   UNL     1      59.120 -44.884  61.144  0.00  0.00    +0.000 HD
ENDROOT
BRANCH   4  13
ATOM     11  O4* UNL     1      58.518 -49.724  62.399  0.00  0.00    +0.000 OA
ATOM     12  C3* UNL     1      57.391 -51.360  61.207  0.00  0.00    +0.000 A 
ATOM     13  C1* UNL     1      58.359 -49.300  61.073  0.00  0.00    +0.000 A 
ATOM     14  C2* UNL     1      57.667 -50.286  60.343  0.00  0.00    +0.000 A 
ATOM     15  C4* UNL     1      57.927 -50.989  62.494  0.00  0.00    +0.000 A 
BRANCH  12  16
ATOM     16  O3* UNL     1      56.292 -52.164  61.085  0.00  0.00    +0.000 OA
ATOM     17  H3* UNL     1      55.642 -52.007  61.793  0.00  0.00    +0.000 HD
ENDBRANCH  12  16
BRANCH  15  18
ATOM     18  C5* UNL     1      57.726 -51.639  63.728  0.00  0.00    +0.000 C 
BRANCH  18  19
ATOM     19  O5* UNL     1      57.552 -52.264  64.887  0.00  0.00    +0.000 OA
ATOM     20  H5* UNL     1      56.875 -52.959  64.805  0.00  0.00    +0.000 HD
ENDBRANCH  18  19
ENDBRANCH  15  18
ENDBRANCH   4  13
TORSDOF 4
ENDMDL
MODEL 4
REMARK VINA RESULT:      -5.1      1.965      2.678
REMARK  Name = 3363_5FluorouracilDeoxyriboside.pdbqt.pdb
REMARK  4 active torsions:
REMARK  status: ('A' for Active; 'I' for Inactive)
REMARK    1  A    between atoms: N_4  and  C1*_13
REMARK    2  A    between atoms: C3*_12  and  O3*_16
REMARK    3  A    between atoms: C4*_15  and  C5*_18
REMARK    4  A    between atoms: C5*_18  and  O5*_19
REMARK                            x       y       z     vdW  Elec       q    Type
REMARK                         _______ _______ _______ _____ _____    ______ ____
ROOT
ATOM      1  F   UNL     1      49.730 -41.782  47.403  0.00  0.00    +0.000 F 
ATOM      2  O   UNL     1      47.066 -41.870  52.136  0.00  0.00    +0.000 OA
ATOM      3  O   UNL     1      48.676 -39.441  48.591  0.00  0.00    +0.000 OA
ATOM      4  N   UNL     1      48.000 -43.059  50.310  0.00  0.00    +0.000 N 
ATOM      5  N   UNL     1      47.811 -40.716  50.303  0.00  0.00    +0.000 N 
ATOM      6  C   UNL     1      47.576 -41.912  51.023  0.00  0.00    +0.000 C 
ATOM      7  C   UNL     1      48.545 -42.860  49.093  0.00  0.00    +0.000 C 
ATOM      8  C   UNL     1      48.794 -41.824  48.365  0.00  0.00    +0.000 C 
ATOM      9  C   UNL     1      48.433 -40.546  49.059  0.00  0.00    +0.000 C 
ATOM     10  H   UNL     1      47.561 -39.867  50.789  0.00  0.00    +0.000 HD
ENDROOT
BRANCH   4  13
ATOM     11  O4* UNL     1      48.913 -45.282  50.596  0.00  0.00    +0.000 OA
ATOM     12  C3* UNL     1      47.184 -46.252  51.795  0.00  0.00    +0.000 A 
ATOM     13  C1* UNL     1      47.897 -44.336  50.785  0.00  0.00    +0.000 A 
ATOM     14  C2* UNL     1      46.846 -44.915  51.521  0.00  0.00    +0.000 A 
ATOM     15  C4* UNL     1      48.486 -46.464  51.212  0.00  0.00    +0.000 A 
BRANCH  12  16
ATOM     16  O3* UNL     1      46.774 -46.920  52.915  0.00  0.00    +0.000 OA
ATOM     17  H3* UNL     1      46.725 -47.882  52.770  0.00  0.00    +0.000 HD
ENDBRANCH  12  16
BRANCH  15  18
ATOM     18  C5* UNL     1      49.337 -47.573  51.390  0.00  0.00    +0.000 C 
BRANCH  18  19
ATOM     19  O5* UNL     1      50.136 -48.617  51.580  0.00  0.00    +0.000 OA
ATOM     20  H5* UNL     1      50.953 -48.346  52.034  0.00  0.00    +0.000 HD
ENDBRANCH  18  19
ENDBRANCH  15  18
ENDBRANCH   4  13
TORSDOF 4
ENDMDL
MODEL 5
REMARK VINA RESULT:      -5.1     24.069     25.813
REMARK  Name = 3363_5FluorouracilDeoxyriboside.pdbqt.pdb
REMARK  4 active torsions:
REMARK  status: ('A' for Active; 'I' for Inactive)
REMARK    1  A    between atoms: N_4  and  C1*_13
REMARK    2  A    between atoms: C3*_12  and  O3*_16
REMARK    3  A    between atoms: C4*_15  and  C5*_18
REMARK    4  A    between atoms: C5*_18  and  O5*_19
REMARK                            x       y       z     vdW  Elec       q    Type
REMARK                         _______ _______ _______ _____ _____    ______ ____
ROOT
ATOM      1  F   UNL     1      45.147 -38.447  77.181  0.00  0.00    +0.000 F 
ATOM      2  O   UNL     1      47.464 -38.284  72.270  0.00  0.00    +0.000 OA
ATOM      3  O   UNL     1      43.723 -39.057  74.813  0.00  0.00    +0.000 OA
ATOM      4  N   UNL     1      47.570 -37.773  74.582  0.00  0.00    +0.000 N 
ATOM      5  N   UNL     1      45.602 -38.572  73.574  0.00  0.00    +0.000 N 
ATOM      6  C   UNL     1      46.956 -38.203  73.382  0.00  0.00    +0.000 C 
ATOM      7  C   UNL     1      46.810 -37.774  75.696  0.00  0.00    +0.000 C 
ATOM      8  C   UNL     1      45.588 -38.085  75.964  0.00  0.00    +0.000 C 
ATOM      9  C   UNL     1      44.862 -38.611  74.764  0.00  0.00    +0.000 C 
ATOM     10  H   UNL     1      45.133 -38.924  72.752  0.00  0.00    +0.000 HD
ENDROOT
BRANCH   4  13
ATOM     11  O4* UNL     1      49.781 -37.996  75.540  0.00  0.00    +0.000 OA
ATOM     12  C3* UNL     1      50.868 -36.307  74.385  0.00  0.00    +0.000 A 
ATOM     13  C1* UNL     1      48.873 -37.374  74.673  0.00  0.00    +0.000 A 
ATOM     14  C2* UNL     1      49.528 -36.351  73.961  0.00  0.00    +0.000 A 
ATOM     15  C4* UNL     1      51.011 -37.350  75.372  0.00  0.00    +0.000 A 
BRANCH  12  16
ATOM     16  O3* UNL     1      51.903 -35.927  73.577  0.00  0.00    +0.000 OA
ATOM     17  H3* UNL     1      52.234 -35.038  73.799  0.00  0.00    +0.000 HD
ENDBRANCH  12  16
BRANCH  15  18
ATOM     18  C5* UNL     1      52.205 -37.836  75.940  0.00  0.00    +0.000 C 
BRANCH  18  19
ATOM     19  O5* UNL     1      53.339 -38.276  76.474  0.00  0.00    +0.000 OA
ATOM     20  H5* UNL     1      53.319 -39.244  76.575  0.00  0.00    +0.000 HD
ENDBRANCH  18  19
ENDBRANCH  15  18
ENDBRANCH   4  13
TORSDOF 4
ENDMDL
MODEL 6
REMARK VINA RESULT:      -5.0     13.889     16.691
REMARK  Name = 3363_5FluorouracilDeoxyriboside.pdbqt.pdb
REMARK  4 active torsions:
REMARK  status: ('A' for Active; 'I' for Inactive)
REMARK    1  A    between atoms: N_4  and  C1*_13
REMARK    2  A    between atoms: C3*_12  and  O3*_16
REMARK    3  A    between atoms: C4*_15  and  C5*_18
REMARK    4  A    between atoms: C5*_18  and  O5*_19
REMARK                            x       y       z     vdW  Elec       q    Type
REMARK                         _______ _______ _______ _____ _____    ______ ____
ROOT
ATOM      1  F   UNL     1      45.512 -56.729  60.325  0.00  0.00    +0.000 F 
ATOM      2  O   UNL     1      50.454 -55.136  58.729  0.00  0.00    +0.000 OA
ATOM      3  O   UNL     1      47.880 -57.741  61.496  0.00  0.00    +0.000 OA
ATOM      4  N   UNL     1      48.115 -55.188  58.344  0.00  0.00    +0.000 N 
ATOM      5  N   UNL     1      49.128 -56.481  60.026  0.00  0.00    +0.000 N 
ATOM      6  C   UNL     1      49.327 -55.546  58.982  0.00  0.00    +0.000 C 
ATOM      7  C   UNL     1      46.986 -55.767  58.800  0.00  0.00    +0.000 C 
ATOM      8  C   UNL     1      46.711 -56.618  59.730  0.00  0.00    +0.000 C 
ATOM      9  C   UNL     1      47.927 -57.018  60.508  0.00  0.00    +0.000 C 
ATOM     10  H   UNL     1      49.961 -56.737  60.537  0.00  0.00    +0.000 HD
ENDROOT
BRANCH   4  13
ATOM     11  O4* UNL     1      48.683 -54.506  56.093  0.00  0.00    +0.000 OA
ATOM     12  C3* UNL     1      47.514 -52.508  55.994  0.00  0.00    +0.000 A 
ATOM     13  C1* UNL     1      48.029 -54.295  57.314  0.00  0.00    +0.000 A 
ATOM     14  C2* UNL     1      47.308 -53.086  57.259  0.00  0.00    +0.000 A 
ATOM     15  C4* UNL     1      48.374 -53.414  55.273  0.00  0.00    +0.000 A 
BRANCH  12  16
ATOM     16  O3* UNL     1      46.585 -51.732  55.359  0.00  0.00    +0.000 OA
ATOM     17  H3* UNL     1      45.824 -52.253  55.045  0.00  0.00    +0.000 HD
ENDBRANCH  12  16
BRANCH  15  18
ATOM     18  C5* UNL     1      48.700 -53.381  53.903  0.00  0.00    +0.000 C 
BRANCH  18  19
ATOM     19  O5* UNL     1      49.021 -53.335  52.615  0.00  0.00    +0.000 OA
ATOM     20  H5* UNL     1      48.537 -52.620  52.165  0.00  0.00    +0.000 HD
ENDBRANCH  18  19
ENDBRANCH  15  18
ENDBRANCH   4  13
TORSDOF 4
ENDMDL
MODEL 7
REMARK VINA RESULT:      -5.0      6.480      8.771
REMARK  Name = 3363_5FluorouracilDeoxyriboside.pdbqt.pdb
REMARK  4 active torsions:
REMARK  status: ('A' for Active; 'I' for Inactive)
REMARK    1  A    between atoms: N_4  and  C1*_13
REMARK    2  A    between atoms: C3*_12  and  O3*_16
REMARK    3  A    between atoms: C4*_15  and  C5*_18
REMARK    4  A    between atoms: C5*_18  and  O5*_19
REMARK                            x       y       z     vdW  Elec       q    Type
REMARK                         _______ _______ _______ _____ _____    ______ ____
ROOT
ATOM      1  F   UNL     1      43.017 -50.539  50.176  0.00  0.00    +0.000 F 
ATOM      2  O   UNL     1      42.232 -45.352  51.589  0.00  0.00    +0.000 OA
ATOM      3  O   UNL     1      40.434 -49.431  50.494  0.00  0.00    +0.000 OA
ATOM      4  N   UNL     1      43.713 -47.187  51.344  0.00  0.00    +0.000 N 
ATOM      5  N   UNL     1      41.384 -47.430  51.124  0.00  0.00    +0.000 N 
ATOM      6  C   UNL     1      42.455 -46.539  51.379  0.00  0.00    +0.000 C 
ATOM      7  C   UNL     1      43.715 -48.511  51.084  0.00  0.00    +0.000 C 
ATOM      8  C   UNL     1      42.805 -49.393  50.845  0.00  0.00    +0.000 C 
ATOM      9  C   UNL     1      41.433 -48.793  50.802  0.00  0.00    +0.000 C 
ATOM     10  H   UNL     1      40.469 -47.004  51.099  0.00  0.00    +0.000 HD
ENDROOT
BRANCH   4  13
ATOM     11  O4* UNL     1      45.471 -45.711  50.579  0.00  0.00    +0.000 OA
ATOM     12  C3* UNL     1      46.857 -45.778  52.434  0.00  0.00    +0.000 A 
ATOM     13  C1* UNL     1      44.905 -46.553  51.546  0.00  0.00    +0.000 A 
ATOM     14  C2* UNL     1      45.738 -46.593  52.681  0.00  0.00    +0.000 A 
ATOM     15  C4* UNL     1      46.671 -45.229  51.113  0.00  0.00    +0.000 A 
BRANCH  12  16
ATOM     16  O3* UNL     1      47.527 -45.099  53.413  0.00  0.00    +0.000 OA
ATOM     17  H3* UNL     1      48.184 -44.481  53.047  0.00  0.00    +0.000 HD
ENDBRANCH  12  16
BRANCH  15  18
ATOM     18  C5* UNL     1      47.414 -44.201  50.499  0.00  0.00    +0.000 C 
BRANCH  18  19
ATOM     19  O5* UNL     1      48.128 -43.247  49.912  0.00  0.00    +0.000 OA
ATOM     20  H5* UNL     1      47.545 -42.558  49.546  0.00  0.00    +0.000 HD
ENDBRANCH  18  19
ENDBRANCH  15  18
ENDBRANCH   4  13
TORSDOF 4
ENDMDL
MODEL 8
REMARK VINA RESULT:      -5.0     15.747     17.788
REMARK  Name = 3363_5FluorouracilDeoxyriboside.pdbqt.pdb
REMARK  4 active torsions:
REMARK  status: ('A' for Active; 'I' for Inactive)
REMARK    1  A    between atoms: N_4  and  C1*_13
REMARK    2  A    between atoms: C3*_12  and  O3*_16
REMARK    3  A    between atoms: C4*_15  and  C5*_18
REMARK    4  A    between atoms: C5*_18  and  O5*_19
REMARK                            x       y       z     vdW  Elec       q    Type
REMARK                         _______ _______ _______ _____ _____    ______ ____
ROOT
ATOM      1  F   UNL     1      61.433 -52.489  59.995  0.00  0.00    +0.000 F 
ATOM      2  O   UNL     1      57.169 -49.172  60.563  0.00  0.00    +0.000 OA
ATOM      3  O   UNL     1      58.827 -53.451  60.530  0.00  0.00    +0.000 OA
ATOM      4  N   UNL     1      59.519 -49.450  60.410  0.00  0.00    +0.000 N 
ATOM      5  N   UNL     1      58.061 -51.282  60.624  0.00  0.00    +0.000 N 
ATOM      6  C   UNL     1      58.174 -49.873  60.535  0.00  0.00    +0.000 C 
ATOM      7  C   UNL     1      60.466 -50.409  60.396  0.00  0.00    +0.000 C 
ATOM      8  C   UNL     1      60.459 -51.697  60.472  0.00  0.00    +0.000 C 
ATOM      9  C   UNL     1      59.070 -52.251  60.549  0.00  0.00    +0.000 C 
ATOM     10  H   UNL     1      57.115 -51.633  60.674  0.00  0.00    +0.000 HD
ENDROOT
BRANCH   4  13
ATOM     11  O4* UNL     1      59.503 -47.346  59.215  0.00  0.00    +0.000 OA
ATOM     12  C3* UNL     1      60.816 -46.085  60.648  0.00  0.00    +0.000 A 
ATOM     13  C1* UNL     1      59.901 -48.143  60.296  0.00  0.00    +0.000 A 
ATOM     14  C2* UNL     1      60.693 -47.382  61.177  0.00  0.00    +0.000 A 
ATOM     15  C4* UNL     1      60.059 -46.078  59.420  0.00  0.00    +0.000 A 
BRANCH  12  16
ATOM     16  O3* UNL     1      60.954 -44.965  61.419  0.00  0.00    +0.000 OA
ATOM     17  H3* UNL     1      61.448 -45.143  62.240  0.00  0.00    +0.000 HD
ENDBRANCH  12  16
BRANCH  15  18
ATOM     18  C5* UNL     1      59.710 -44.963  58.632  0.00  0.00    +0.000 C 
BRANCH  18  19
ATOM     19  O5* UNL     1      59.373 -43.902  57.907  0.00  0.00    +0.000 OA
ATOM     20  H5* UNL     1      58.721 -44.144  57.226  0.00  0.00    +0.000 HD
ENDBRANCH  18  19
ENDBRANCH  15  18
ENDBRANCH   4  13
TORSDOF 4
ENDMDL
MODEL 9
REMARK VINA RESULT:      -5.0     15.972     16.337
REMARK  Name = 3363_5FluorouracilDeoxyriboside.pdbqt.pdb
REMARK  4 active torsions:
REMARK  status: ('A' for Active; 'I' for Inactive)
REMARK    1  A    between atoms: N_4  and  C1*_13
REMARK    2  A    between atoms: C3*_12  and  O3*_16
REMARK    3  A    between atoms: C4*_15  and  C5*_18
REMARK    4  A    between atoms: C5*_18  and  O5*_19
REMARK                            x       y       z     vdW  Elec       q    Type
REMARK                         _______ _______ _______ _____ _____    ______ ____
ROOT
ATOM      1  F   UNL     1      61.895 -46.481  57.818  0.00  0.00    +0.000 F 
ATOM      2  O   UNL     1      58.079 -47.855  61.432  0.00  0.00    +0.000 OA
ATOM      3  O   UNL     1      60.870 -44.644  59.709  0.00  0.00    +0.000 OA
ATOM      4  N   UNL     1      59.306 -48.386  59.475  0.00  0.00    +0.000 N 
ATOM      5  N   UNL     1      59.426 -46.264  60.480  0.00  0.00    +0.000 N 
ATOM      6  C   UNL     1      58.857 -47.560  60.533  0.00  0.00    +0.000 C 
ATOM      7  C   UNL     1      60.175 -47.845  58.598  0.00  0.00    +0.000 C 
ATOM      8  C   UNL     1      60.739 -46.692  58.469  0.00  0.00    +0.000 C 
ATOM      9  C   UNL     1      60.373 -45.756  59.581  0.00  0.00    +0.000 C 
ATOM     10  H   UNL     1      59.165 -45.651  61.239  0.00  0.00    +0.000 HD
ENDROOT
BRANCH   4  13
ATOM     11  O4* UNL     1      58.247 -50.398  60.304  0.00  0.00    +0.000 OA
ATOM     12  C3* UNL     1      58.520 -51.763  58.452  0.00  0.00    +0.000 A 
ATOM     13  C1* UNL     1      58.918 -49.685  59.302  0.00  0.00    +0.000 A 
ATOM     14  C2* UNL     1      59.081 -50.505  58.169  0.00  0.00    +0.000 A 
ATOM     15  C4* UNL     1      57.996 -51.677  59.793  0.00  0.00    +0.000 A 
BRANCH  12  16
ATOM     16  O3* UNL     1      57.952 -52.566  57.503  0.00  0.00    +0.000 OA
ATOM     17  H3* UNL     1      58.300 -52.384  56.611  0.00  0.00    +0.000 HD
ENDBRANCH  12  16
BRANCH  15  18
ATOM     18  C5* UNL     1      57.165 -52.605  60.452  0.00  0.00    +0.000 C 
BRANCH  18  19
ATOM     19  O5* UNL     1      56.384 -53.493  61.056  0.00  0.00    +0.000 OA
ATOM     20  H5* UNL     1      55.707 -53.829  60.443  0.00  0.00    +0.000 HD
ENDBRANCH  18  19
ENDBRANCH  15  18
ENDBRANCH   4  13
TORSDOF 4
ENDMDL
