MODEL 1
REMARK VINA RESULT:      -5.4      0.000      0.000
REMARK  Name = 3385_5Fluorouracil.pdbqt.pdb
REMARK  0 active torsions:
REMARK  status: ('A' for Active; 'I' for Inactive)
REMARK                            x       y       z     vdW  Elec       q    Type
REMARK                         _______ _______ _______ _____ _____    ______ ____
ROOT
ATOM      1  F   UNL     1      47.874 -34.916  53.326  0.00  0.00    +0.000 F 
ATOM      2  O   UNL     1      45.719 -35.646  51.638  0.00  0.00    +0.000 OA
ATOM      3  O   UNL     1      47.995 -39.437  50.325  0.00  0.00    +0.000 OA
ATOM      4  N   UNL     1      46.890 -37.499  50.936  0.00  0.00    +0.000 N 
ATOM      5  N   UNL     1      49.049 -37.905  51.684  0.00  0.00    +0.000 N 
ATOM      6  C   UNL     1      46.763 -36.287  51.630  0.00  0.00    +0.000 C 
ATOM      7  C   UNL     1      47.985 -38.374  50.928  0.00  0.00    +0.000 C 
ATOM      8  C   UNL     1      47.996 -35.851  52.370  0.00  0.00    +0.000 C 
ATOM      9  C   UNL     1      48.943 -36.726  52.313  0.00  0.00    +0.000 C 
ATOM     10  H   UNL     1      46.073 -37.810  50.430  0.00  0.00    +0.000 HD
ATOM     11  H   UNL     1      49.888 -38.468  51.748  0.00  0.00    +0.000 HD
ENDROOT
TORSDOF 0
ENDMDL
MODEL 2
REMARK VINA RESULT:      -5.1      1.758      2.433
REMARK  Name = 3385_5Fluorouracil.pdbqt.pdb
REMARK  0 active torsions:
REMARK  status: ('A' for Active; 'I' for Inactive)
REMARK                            x       y       z     vdW  Elec       q    Type
REMARK                         _______ _______ _______ _____ _____    ______ ____
ROOT
ATOM      1  F   UNL     1      48.918 -34.314  53.256  0.00  0.00    +0.000 F 
ATOM      2  O   UNL     1      50.519 -36.649  53.160  0.00  0.00    +0.000 OA
ATOM      3  O   UNL     1      47.282 -38.800  50.674  0.00  0.00    +0.000 OA
ATOM      4  N   UNL     1      48.870 -37.738  51.979  0.00  0.00    +0.000 N 
ATOM      5  N   UNL     1      46.848 -36.698  51.509  0.00  0.00    +0.000 N 
ATOM      6  C   UNL     1      49.378 -36.656  52.712  0.00  0.00    +0.000 C 
ATOM      7  C   UNL     1      47.630 -37.830  51.331  0.00  0.00    +0.000 C 
ATOM      8  C   UNL     1      48.425 -35.508  52.887  0.00  0.00    +0.000 C 
ATOM      9  C   UNL     1      47.319 -35.681  52.246  0.00  0.00    +0.000 C 
ATOM     10  H   UNL     1      49.494 -38.521  51.851  0.00  0.00    +0.000 HD
ATOM     11  H   UNL     1      45.935 -36.662  51.076  0.00  0.00    +0.000 HD
ENDROOT
TORSDOF 0
ENDMDL
MODEL 3
REMARK VINA RESULT:      -4.5      2.795      3.950
REMARK  Name = 3385_5Fluorouracil.pdbqt.pdb
REMARK  0 active torsions:
REMARK  status: ('A' for Active; 'I' for Inactive)
REMARK                            x       y       z     vdW  Elec       q    Type
REMARK                         _______ _______ _______ _____ _____    ______ ____
ROOT
ATOM      1  F   UNL     1      48.911 -37.847  48.233  0.00  0.00    +0.000 F 
ATOM      2  O   UNL     1      50.614 -38.979  50.193  0.00  0.00    +0.000 OA
ATOM      3  O   UNL     1      48.497 -36.536  53.484  0.00  0.00    +0.000 OA
ATOM      4  N   UNL     1      49.598 -37.705  51.819  0.00  0.00    +0.000 N 
ATOM      5  N   UNL     1      47.935 -36.178  51.279  0.00  0.00    +0.000 N 
ATOM      6  C   UNL     1      49.828 -38.087  50.490  0.00  0.00    +0.000 C 
ATOM      7  C   UNL     1      48.661 -36.779  52.297  0.00  0.00    +0.000 C 
ATOM      8  C   UNL     1      49.026 -37.332  49.468  0.00  0.00    +0.000 C 
ATOM      9  C   UNL     1      48.185 -36.513  50.005  0.00  0.00    +0.000 C 
ATOM     10  H   UNL     1      50.128 -38.198  52.522  0.00  0.00    +0.000 HD
ATOM     11  H   UNL     1      47.227 -35.497  51.520  0.00  0.00    +0.000 HD
ENDROOT
TORSDOF 0
ENDMDL
MODEL 4
REMARK VINA RESULT:      -4.4      4.422      5.191
REMARK  Name = 3385_5Fluorouracil.pdbqt.pdb
REMARK  0 active torsions:
REMARK  status: ('A' for Active; 'I' for Inactive)
REMARK                            x       y       z     vdW  Elec       q    Type
REMARK                         _______ _______ _______ _____ _____    ______ ____
ROOT
ATOM      1  F   UNL     1      47.523 -42.725  49.263  0.00  0.00    +0.000 F 
ATOM      2  O   UNL     1      47.012 -41.648  51.833  0.00  0.00    +0.000 OA
ATOM      3  O   UNL     1      50.157 -38.352  51.109  0.00  0.00    +0.000 OA
ATOM      4  N   UNL     1      48.631 -40.048  51.491  0.00  0.00    +0.000 N 
ATOM      5  N   UNL     1      49.899 -40.025  49.547  0.00  0.00    +0.000 N 
ATOM      6  C   UNL     1      47.921 -41.205  51.141  0.00  0.00    +0.000 C 
ATOM      7  C   UNL     1      49.616 -39.386  50.745  0.00  0.00    +0.000 C 
ATOM      8  C   UNL     1      48.350 -41.844  49.850  0.00  0.00    +0.000 C 
ATOM      9  C   UNL     1      49.250 -41.155  49.232  0.00  0.00    +0.000 C 
ATOM     10  H   UNL     1      48.360 -39.605  52.356  0.00  0.00    +0.000 HD
ATOM     11  H   UNL     1      50.594 -39.623  48.931  0.00  0.00    +0.000 HD
ENDROOT
TORSDOF 0
ENDMDL
MODEL 5
REMARK VINA RESULT:      -4.4      3.644      4.018
REMARK  Name = 3385_5Fluorouracil.pdbqt.pdb
REMARK  0 active torsions:
REMARK  status: ('A' for Active; 'I' for Inactive)
REMARK                            x       y       z     vdW  Elec       q    Type
REMARK                         _______ _______ _______ _____ _____    ______ ____
ROOT
ATOM      1  F   UNL     1      50.477 -37.429  48.750  0.00  0.00    +0.000 F 
ATOM      2  O   UNL     1      48.726 -39.067  47.241  0.00  0.00    +0.000 OA
ATOM      3  O   UNL     1      47.087 -40.943  51.123  0.00  0.00    +0.000 OA
ATOM      4  N   UNL     1      47.963 -40.048  49.179  0.00  0.00    +0.000 N 
ATOM      5  N   UNL     1      48.858 -39.475  51.242  0.00  0.00    +0.000 N 
ATOM      6  C   UNL     1      48.823 -39.210  48.454  0.00  0.00    +0.000 C 
ATOM      7  C   UNL     1      47.902 -40.220  50.568  0.00  0.00    +0.000 C 
ATOM      8  C   UNL     1      49.853 -38.494  49.281  0.00  0.00    +0.000 C 
ATOM      9  C   UNL     1      49.708 -38.707  50.545  0.00  0.00    +0.000 C 
ATOM     10  H   UNL     1      47.264 -40.539  48.642  0.00  0.00    +0.000 HD
ATOM     11  H   UNL     1      48.894 -39.525  52.253  0.00  0.00    +0.000 HD
ENDROOT
TORSDOF 0
ENDMDL
MODEL 6
REMARK VINA RESULT:      -4.2      2.961      3.476
REMARK  Name = 3385_5Fluorouracil.pdbqt.pdb
REMARK  0 active torsions:
REMARK  status: ('A' for Active; 'I' for Inactive)
REMARK                            x       y       z     vdW  Elec       q    Type
REMARK                         _______ _______ _______ _____ _____    ______ ____
ROOT
ATOM      1  F   UNL     1      50.498 -37.288  48.566  0.00  0.00    +0.000 F 
ATOM      2  O   UNL     1      48.431 -36.339  50.255  0.00  0.00    +0.000 OA
ATOM      3  O   UNL     1      46.946 -40.657  50.911  0.00  0.00    +0.000 OA
ATOM      4  N   UNL     1      47.654 -38.489  50.522  0.00  0.00    +0.000 N 
ATOM      5  N   UNL     1      48.643 -40.267  49.403  0.00  0.00    +0.000 N 
ATOM      6  C   UNL     1      48.485 -37.522  49.938  0.00  0.00    +0.000 C 
ATOM      7  C   UNL     1      47.683 -39.877  50.325  0.00  0.00    +0.000 C 
ATOM      8  C   UNL     1      49.449 -38.050  48.914  0.00  0.00    +0.000 C 
ATOM      9  C   UNL     1      49.408 -39.337  48.814  0.00  0.00    +0.000 C 
ATOM     10  H   UNL     1      46.998 -38.155  51.211  0.00  0.00    +0.000 HD
ATOM     11  H   UNL     1      48.749 -41.251  49.194  0.00  0.00    +0.000 HD
ENDROOT
TORSDOF 0
ENDMDL
MODEL 7
REMARK VINA RESULT:      -3.9     24.612     24.901
REMARK  Name = 3385_5Fluorouracil.pdbqt.pdb
REMARK  0 active torsions:
REMARK  status: ('A' for Active; 'I' for Inactive)
REMARK                            x       y       z     vdW  Elec       q    Type
REMARK                         _______ _______ _______ _____ _____    ______ ____
ROOT
ATOM      1  F   UNL     1      45.208 -55.004  67.046  0.00  0.00    +0.000 F 
ATOM      2  O   UNL     1      43.223 -54.001  68.800  0.00  0.00    +0.000 OA
ATOM      3  O   UNL     1      46.474 -52.810  71.848  0.00  0.00    +0.000 OA
ATOM      4  N   UNL     1      44.845 -53.473  70.345  0.00  0.00    +0.000 N 
ATOM      5  N   UNL     1      47.076 -53.984  69.960  0.00  0.00    +0.000 N 
ATOM      6  C   UNL     1      44.395 -54.056  69.151  0.00  0.00    +0.000 C 
ATOM      7  C   UNL     1      46.164 -53.377  70.810  0.00  0.00    +0.000 C 
ATOM      8  C   UNL     1      45.461 -54.732  68.337  0.00  0.00    +0.000 C 
ATOM      9  C   UNL     1      46.640 -54.578  68.840  0.00  0.00    +0.000 C 
ATOM     10  H   UNL     1      44.144 -53.014  70.908  0.00  0.00    +0.000 HD
ATOM     11  H   UNL     1      48.058 -53.965  70.203  0.00  0.00    +0.000 HD
ENDROOT
TORSDOF 0
ENDMDL
MODEL 8
REMARK VINA RESULT:      -3.8     22.052     22.523
REMARK  Name = 3385_5Fluorouracil.pdbqt.pdb
REMARK  0 active torsions:
REMARK  status: ('A' for Active; 'I' for Inactive)
REMARK                            x       y       z     vdW  Elec       q    Type
REMARK                         _______ _______ _______ _____ _____    ______ ____
ROOT
ATOM      1  F   UNL     1      51.229 -37.276  76.137  0.00  0.00    +0.000 F 
ATOM      2  O   UNL     1      50.942 -35.365  74.066  0.00  0.00    +0.000 OA
ATOM      3  O   UNL     1      47.680 -37.957  72.088  0.00  0.00    +0.000 OA
ATOM      4  N   UNL     1      49.365 -36.697  73.048  0.00  0.00    +0.000 N 
ATOM      5  N   UNL     1      48.809 -38.775  73.921  0.00  0.00    +0.000 N 
ATOM      6  C   UNL     1      50.344 -36.433  74.017  0.00  0.00    +0.000 C 
ATOM      7  C   UNL     1      48.543 -37.827  72.944  0.00  0.00    +0.000 C 
ATOM      8  C   UNL     1      50.587 -37.551  74.991  0.00  0.00    +0.000 C 
ATOM      9  C   UNL     1      49.775 -38.540  74.821  0.00  0.00    +0.000 C 
ATOM     10  H   UNL     1      49.187 -35.959  72.383  0.00  0.00    +0.000 HD
ATOM     11  H   UNL     1      48.265 -39.628  73.936  0.00  0.00    +0.000 HD
ENDROOT
TORSDOF 0
ENDMDL
MODEL 9
REMARK VINA RESULT:      -3.8     12.097     13.429
REMARK  Name = 3385_5Fluorouracil.pdbqt.pdb
REMARK  0 active torsions:
REMARK  status: ('A' for Active; 'I' for Inactive)
REMARK                            x       y       z     vdW  Elec       q    Type
REMARK                         _______ _______ _______ _____ _____    ______ ____
ROOT
ATOM      1  F   UNL     1      38.593 -28.605  51.955  0.00  0.00    +0.000 F 
ATOM      2  O   UNL     1      40.731 -28.975  53.776  0.00  0.00    +0.000 OA
ATOM      3  O   UNL     1      38.005 -27.715  57.277  0.00  0.00    +0.000 OA
ATOM      4  N   UNL     1      39.384 -28.279  55.508  0.00  0.00    +0.000 N 
ATOM      5  N   UNL     1      37.208 -27.569  55.121  0.00  0.00    +0.000 N 
ATOM      6  C   UNL     1      39.667 -28.498  54.152  0.00  0.00    +0.000 C 
ATOM      7  C   UNL     1      38.180 -27.839  56.074  0.00  0.00    +0.000 C 
ATOM      8  C   UNL     1      38.562 -28.120  53.207  0.00  0.00    +0.000 C 
ATOM      9  C   UNL     1      37.493 -27.739  53.822  0.00  0.00    +0.000 C 
ATOM     10  H   UNL     1      40.114 -28.525  56.160  0.00  0.00    +0.000 HD
ATOM     11  H   UNL     1      36.298 -27.250  55.428  0.00  0.00    +0.000 HD
ENDROOT
TORSDOF 0
ENDMDL
