MODEL 1
REMARK VINA RESULT:      -7.2      0.000      0.000
REMARK  Name = 342374_SipholenolA.pdbqt.pdb
REMARK  5 active torsions:
REMARK  status: ('A' for Active; 'I' for Inactive)
REMARK    1  A    between atoms: C_3  and  C_20
REMARK    2  A    between atoms: C_4  and  O_16
REMARK    3  A    between atoms: C_13  and  O_18
REMARK    4  A    between atoms: C_21  and  C_25
REMARK    5  A    between atoms: C_26  and  O_36
REMARK                            x       y       z     vdW  Elec       q    Type
REMARK                         _______ _______ _______ _____ _____    ______ ____
ROOT
ATOM      1  O   UNL     1      47.302 -53.480  55.447  0.00  0.00    +0.000 OA
ATOM      2  C   UNL     1      49.452 -54.454  56.566  0.00  0.00    +0.000 C 
ATOM      3  C   UNL     1      50.081 -55.732  57.129  0.00  0.00    +0.000 C 
ATOM      4  C   UNL     1      49.251 -56.664  57.995  0.00  0.00    +0.000 C 
ATOM      5  C   UNL     1      47.915 -54.520  56.156  0.00  0.00    +0.000 C 
ATOM      6  C   UNL     1      50.078 -54.099  55.283  0.00  0.00    +0.000 C 
ATOM      7  C   UNL     1      47.846 -56.398  57.758  0.00  0.00    +0.000 C 
ATOM      8  C   UNL     1      47.123 -55.417  56.899  0.00  0.00    +0.000 C 
ATOM      9  C   UNL     1      49.621 -53.299  57.591  0.00  0.00    +0.000 C 
ATOM     10  C   UNL     1      49.735 -53.590  53.905  0.00  0.00    +0.000 C 
ATOM     11  C   UNL     1      47.187 -53.583  53.990  0.00  0.00    +0.000 C 
ATOM     12  C   UNL     1      49.600 -58.133  57.713  0.00  0.00    +0.000 C 
ATOM     13  C   UNL     1      48.524 -53.259  53.259  0.00  0.00    +0.000 C 
ATOM     14  C   UNL     1      46.711 -54.997  53.541  0.00  0.00    +0.000 C 
ATOM     15  C   UNL     1      46.146 -52.517  53.537  0.00  0.00    +0.000 C 
ENDROOT
BRANCH   4  16
ATOM     16  O   UNL     1      49.557 -56.453  59.351  0.00  0.00    +0.000 OA
ATOM     17  H   UNL     1      48.783 -55.938  59.642  0.00  0.00    +0.000 HD
ENDBRANCH   4  16
BRANCH  13  18
ATOM     18  O   UNL     1      48.571 -52.649  52.010  0.00  0.00    +0.000 OA
ATOM     19  H   UNL     1      49.425 -52.190  51.868  0.00  0.00    +0.000 HD
ENDBRANCH  13  18
BRANCH   3  20
ATOM     20  C   UNL     1      51.505 -55.926  57.035  0.00  0.00    +0.000 C 
ATOM     21  C   UNL     1      53.022 -56.118  56.945  0.00  0.00    +0.000 C 
BRANCH  21  25
ATOM     22  C   UNL     1      56.024 -55.678  58.872  0.00  0.00    +0.000 C 
ATOM     23  C   UNL     1      55.289 -56.782  58.063  0.00  0.00    +0.000 C 
ATOM     24  C   UNL     1      57.032 -54.718  58.311  0.00  0.00    +0.000 C 
ATOM     25  C   UNL     1      54.444 -56.290  56.864  0.00  0.00    +0.000 C 
ATOM     26  C   UNL     1      57.870 -54.038  59.388  0.00  0.00    +0.000 C 
ATOM     27  C   UNL     1      56.189 -55.626  60.288  0.00  0.00    +0.000 C 
ATOM     28  C   UNL     1      57.297 -54.651  60.581  0.00  0.00    +0.000 C 
ATOM     29  C   UNL     1      57.046 -54.543  56.915  0.00  0.00    +0.000 C 
ATOM     30  C   UNL     1      55.116 -55.831  55.647  0.00  0.00    +0.000 C 
ATOM     31  C   UNL     1      54.339 -57.550  59.057  0.00  0.00    +0.000 C 
ATOM     32  C   UNL     1      56.355 -57.822  57.576  0.00  0.00    +0.000 C 
ATOM     33  C   UNL     1      56.164 -55.090  55.825  0.00  0.00    +0.000 C 
ATOM     34  C   UNL     1      57.778 -52.520  59.325  0.00  0.00    +0.000 C 
ATOM     35  C   UNL     1      54.456 -55.772  54.295  0.00  0.00    +0.000 C 
BRANCH  26  36
ATOM     36  O   UNL     1      59.223 -54.381  59.242  0.00  0.00    +0.000 OA
ATOM     37  H   UNL     1      59.188 -55.341  59.400  0.00  0.00    +0.000 HD
ENDBRANCH  26  36
ENDBRANCH  21  25
ENDBRANCH   3  20
TORSDOF 5
ENDMDL
MODEL 2
REMARK VINA RESULT:      -7.1     25.299     28.648
REMARK  Name = 342374_SipholenolA.pdbqt.pdb
REMARK  5 active torsions:
REMARK  status: ('A' for Active; 'I' for Inactive)
REMARK    1  A    between atoms: C_3  and  C_20
REMARK    2  A    between atoms: C_4  and  O_16
REMARK    3  A    between atoms: C_13  and  O_18
REMARK    4  A    between atoms: C_21  and  C_25
REMARK    5  A    between atoms: C_26  and  O_36
REMARK                            x       y       z     vdW  Elec       q    Type
REMARK                         _______ _______ _______ _____ _____    ______ ____
ROOT
ATOM      1  O   UNL     1      51.162 -34.060  44.996  0.00  0.00    +0.000 OA
ATOM      2  C   UNL     1      51.608 -31.710  46.045  0.00  0.00    +0.000 C 
ATOM      3  C   UNL     1      52.385 -30.403  45.863  0.00  0.00    +0.000 C 
ATOM      4  C   UNL     1      53.839 -30.444  45.426  0.00  0.00    +0.000 C 
ATOM      5  C   UNL     1      51.950 -32.904  45.050  0.00  0.00    +0.000 C 
ATOM      6  C   UNL     1      50.180 -31.499  45.762  0.00  0.00    +0.000 C 
ATOM      7  C   UNL     1      54.108 -31.728  44.810  0.00  0.00    +0.000 C 
ATOM      8  C   UNL     1      53.276 -32.943  44.576  0.00  0.00    +0.000 C 
ATOM      9  C   UNL     1      51.803 -32.231  47.496  0.00  0.00    +0.000 C 
ATOM     10  C   UNL     1      49.004 -32.151  45.077  0.00  0.00    +0.000 C 
ATOM     11  C   UNL     1      50.117 -34.163  43.975  0.00  0.00    +0.000 C 
ATOM     12  C   UNL     1      54.160 -29.285  44.470  0.00  0.00    +0.000 C 
ATOM     13  C   UNL     1      48.843 -33.343  44.338  0.00  0.00    +0.000 C 
ATOM     14  C   UNL     1      50.620 -33.698  42.576  0.00  0.00    +0.000 C 
ATOM     15  C   UNL     1      49.694 -35.660  43.903  0.00  0.00    +0.000 C 
ENDROOT
BRANCH   4  16
ATOM     16  O   UNL     1      54.677 -30.262  46.540  0.00  0.00    +0.000 OA
ATOM     17  H   UNL     1      54.589 -31.123  46.987  0.00  0.00    +0.000 HD
ENDBRANCH   4  16
BRANCH  13  18
ATOM     18  O   UNL     1      47.561 -33.743  43.975  0.00  0.00    +0.000 OA
ATOM     19  H   UNL     1      47.044 -34.036  44.755  0.00  0.00    +0.000 HD
ENDBRANCH  13  18
BRANCH   3  20
ATOM     20  C   UNL     1      51.816 -29.165  46.329  0.00  0.00    +0.000 C 
ATOM     21  C   UNL     1      51.208 -27.855  46.839  0.00  0.00    +0.000 C 
BRANCH  21  25
ATOM     22  C   UNL     1      51.832 -25.185  49.163  0.00  0.00    +0.000 C 
ATOM     23  C   UNL     1      51.496 -25.391  47.661  0.00  0.00    +0.000 C 
ATOM     24  C   UNL     1      50.824 -25.019  50.262  0.00  0.00    +0.000 C 
ATOM     25  C   UNL     1      50.636 -26.632  47.325  0.00  0.00    +0.000 C 
ATOM     26  C   UNL     1      51.423 -24.437  51.537  0.00  0.00    +0.000 C 
ATOM     27  C   UNL     1      53.071 -24.730  49.705  0.00  0.00    +0.000 C 
ATOM     28  C   UNL     1      52.811 -24.280  51.117  0.00  0.00    +0.000 C 
ATOM     29  C   UNL     1      49.509 -25.444  49.998  0.00  0.00    +0.000 C 
ATOM     30  C   UNL     1      49.210 -26.633  47.655  0.00  0.00    +0.000 C 
ATOM     31  C   UNL     1      52.858 -25.506  46.878  0.00  0.00    +0.000 C 
ATOM     32  C   UNL     1      50.792 -24.093  47.135  0.00  0.00    +0.000 C 
ATOM     33  C   UNL     1      48.896 -26.135  48.810  0.00  0.00    +0.000 C 
ATOM     34  C   UNL     1      51.205 -25.336  52.746  0.00  0.00    +0.000 C 
ATOM     35  C   UNL     1      48.196 -27.531  46.998  0.00  0.00    +0.000 C 
BRANCH  26  36
ATOM     36  O   UNL     1      50.839 -23.195  51.829  0.00  0.00    +0.000 OA
ATOM     37  H   UNL     1      49.996 -23.476  52.227  0.00  0.00    +0.000 HD
ENDBRANCH  26  36
ENDBRANCH  21  25
ENDBRANCH   3  20
TORSDOF 5
ENDMDL
MODEL 3
REMARK VINA RESULT:      -6.9      7.258     11.429
REMARK  Name = 342374_SipholenolA.pdbqt.pdb
REMARK  5 active torsions:
REMARK  status: ('A' for Active; 'I' for Inactive)
REMARK    1  A    between atoms: C_3  and  C_20
REMARK    2  A    between atoms: C_4  and  O_16
REMARK    3  A    between atoms: C_13  and  O_18
REMARK    4  A    between atoms: C_21  and  C_25
REMARK    5  A    between atoms: C_26  and  O_36
REMARK                            x       y       z     vdW  Elec       q    Type
REMARK                         _______ _______ _______ _____ _____    ______ ____
ROOT
ATOM      1  O   UNL     1      50.384 -45.811  49.386  0.00  0.00    +0.000 OA
ATOM      2  C   UNL     1      48.775 -47.101  50.987  0.00  0.00    +0.000 C 
ATOM      3  C   UNL     1      47.356 -47.116  51.563  0.00  0.00    +0.000 C 
ATOM      4  C   UNL     1      46.713 -45.819  52.022  0.00  0.00    +0.000 C 
ATOM      5  C   UNL     1      49.195 -45.832  50.124  0.00  0.00    +0.000 C 
ATOM      6  C   UNL     1      48.938 -48.185  50.005  0.00  0.00    +0.000 C 
ATOM      7  C   UNL     1      47.406 -44.707  51.401  0.00  0.00    +0.000 C 
ATOM      8  C   UNL     1      48.576 -44.618  50.481  0.00  0.00    +0.000 C 
ATOM      9  C   UNL     1      49.804 -47.253  52.141  0.00  0.00    +0.000 C 
ATOM     10  C   UNL     1      49.550 -48.471  48.656  0.00  0.00    +0.000 C 
ATOM     11  C   UNL     1      50.345 -46.151  47.961  0.00  0.00    +0.000 C 
ATOM     12  C   UNL     1      45.213 -45.800  51.693  0.00  0.00    +0.000 C 
ATOM     13  C   UNL     1      50.250 -47.686  47.715  0.00  0.00    +0.000 C 
ATOM     14  C   UNL     1      49.157 -45.460  47.229  0.00  0.00    +0.000 C 
ATOM     15  C   UNL     1      51.689 -45.669  47.339  0.00  0.00    +0.000 C 
ENDROOT
BRANCH   4  16
ATOM     16  O   UNL     1      46.797 -45.713  53.421  0.00  0.00    +0.000 OA
ATOM     17  H   UNL     1      46.956 -46.640  53.673  0.00  0.00    +0.000 HD
ENDBRANCH   4  16
BRANCH  13  18
ATOM     18  O   UNL     1      50.836 -48.311  46.619  0.00  0.00    +0.000 OA
ATOM     19  H   UNL     1      51.180 -49.198  46.854  0.00  0.00    +0.000 HD
ENDBRANCH  13  18
BRANCH   3  20
ATOM     20  C   UNL     1      46.731 -48.373  51.887  0.00  0.00    +0.000 C 
ATOM     21  C   UNL     1      46.054 -49.705  52.221  0.00  0.00    +0.000 C 
BRANCH  21  25
ATOM     22  C   UNL     1      46.792 -53.095  53.159  0.00  0.00    +0.000 C 
ATOM     23  C   UNL     1      45.929 -51.897  53.639  0.00  0.00    +0.000 C 
ATOM     24  C   UNL     1      46.344 -54.158  52.198  0.00  0.00    +0.000 C 
ATOM     25  C   UNL     1      45.411 -50.951  52.529  0.00  0.00    +0.000 C 
ATOM     26  C   UNL     1      47.228 -55.399  52.228  0.00  0.00    +0.000 C 
ATOM     27  C   UNL     1      47.952 -53.623  53.802  0.00  0.00    +0.000 C 
ATOM     28  C   UNL     1      48.195 -54.999  53.244  0.00  0.00    +0.000 C 
ATOM     29  C   UNL     1      45.229 -53.866  51.392  0.00  0.00    +0.000 C 
ATOM     30  C   UNL     1      44.328 -51.393  51.651  0.00  0.00    +0.000 C 
ATOM     31  C   UNL     1      46.800 -51.053  54.644  0.00  0.00    +0.000 C 
ATOM     32  C   UNL     1      44.723 -52.463  54.465  0.00  0.00    +0.000 C 
ATOM     33  C   UNL     1      44.402 -52.618  51.234  0.00  0.00    +0.000 C 
ATOM     34  C   UNL     1      47.815 -55.729  50.863  0.00  0.00    +0.000 C 
ATOM     35  C   UNL     1      43.443 -50.457  50.872  0.00  0.00    +0.000 C 
BRANCH  26  36
ATOM     36  O   UNL     1      46.488 -56.516  52.646  0.00  0.00    +0.000 OA
ATOM     37  H   UNL     1      46.891 -56.690  53.515  0.00  0.00    +0.000 HD
ENDBRANCH  26  36
ENDBRANCH  21  25
ENDBRANCH   3  20
TORSDOF 5
ENDMDL
MODEL 4
REMARK VINA RESULT:      -6.9     11.522     15.880
REMARK  Name = 342374_SipholenolA.pdbqt.pdb
REMARK  5 active torsions:
REMARK  status: ('A' for Active; 'I' for Inactive)
REMARK    1  A    between atoms: C_3  and  C_20
REMARK    2  A    between atoms: C_4  and  O_16
REMARK    3  A    between atoms: C_13  and  O_18
REMARK    4  A    between atoms: C_21  and  C_25
REMARK    5  A    between atoms: C_26  and  O_36
REMARK                            x       y       z     vdW  Elec       q    Type
REMARK                         _______ _______ _______ _____ _____    ______ ____
ROOT
ATOM      1  O   UNL     1      48.165 -38.587  48.377  0.00  0.00    +0.000 OA
ATOM      2  C   UNL     1      48.431 -41.092  47.690  0.00  0.00    +0.000 C 
ATOM      3  C   UNL     1      49.028 -42.027  46.634  0.00  0.00    +0.000 C 
ATOM      4  C   UNL     1      48.914 -41.673  45.161  0.00  0.00    +0.000 C 
ATOM      5  C   UNL     1      48.491 -39.529  47.395  0.00  0.00    +0.000 C 
ATOM      6  C   UNL     1      49.200 -41.180  48.941  0.00  0.00    +0.000 C 
ATOM      7  C   UNL     1      48.647 -40.253  45.039  0.00  0.00    +0.000 C 
ATOM      8  C   UNL     1      48.447 -39.162  46.036  0.00  0.00    +0.000 C 
ATOM      9  C   UNL     1      46.945 -41.472  47.937  0.00  0.00    +0.000 C 
ATOM     10  C   UNL     1      49.757 -40.316  50.046  0.00  0.00    +0.000 C 
ATOM     11  C   UNL     1      49.239 -37.979  49.166  0.00  0.00    +0.000 C 
ATOM     12  C   UNL     1      50.186 -42.073  44.398  0.00  0.00    +0.000 C 
ATOM     13  C   UNL     1      49.767 -38.925  50.286  0.00  0.00    +0.000 C 
ATOM     14  C   UNL     1      50.444 -37.548  48.278  0.00  0.00    +0.000 C 
ATOM     15  C   UNL     1      48.638 -36.726  49.869  0.00  0.00    +0.000 C 
ENDROOT
BRANCH   4  16
ATOM     16  O   UNL     1      47.870 -42.408  44.573  0.00  0.00    +0.000 OA
ATOM     17  H   UNL     1      47.365 -41.702  44.132  0.00  0.00    +0.000 HD
ENDBRANCH   4  16
BRANCH  13  18
ATOM     18  O   UNL     1      50.233 -38.456  51.510  0.00  0.00    +0.000 OA
ATOM     19  H   UNL     1      50.394 -39.191  52.138  0.00  0.00    +0.000 HD
ENDBRANCH  13  18
BRANCH   3  20
ATOM     20  C   UNL     1      49.480 -43.339  47.017  0.00  0.00    +0.000 C 
ATOM     21  C   UNL     1      49.952 -44.734  47.440  0.00  0.00    +0.000 C 
BRANCH  21  25
ATOM     22  C   UNL     1      48.722 -47.809  48.835  0.00  0.00    +0.000 C 
ATOM     23  C   UNL     1      49.538 -47.308  47.612  0.00  0.00    +0.000 C 
ATOM     24  C   UNL     1      49.304 -48.211  50.160  0.00  0.00    +0.000 C 
ATOM     25  C   UNL     1      50.391 -46.039  47.844  0.00  0.00    +0.000 C 
ATOM     26  C   UNL     1      48.339 -49.029  51.010  0.00  0.00    +0.000 C 
ATOM     27  C   UNL     1      47.400 -48.345  48.818  0.00  0.00    +0.000 C 
ATOM     28  C   UNL     1      47.188 -49.075  50.115  0.00  0.00    +0.000 C 
ATOM     29  C   UNL     1      50.604 -47.762  50.453  0.00  0.00    +0.000 C 
ATOM     30  C   UNL     1      51.617 -46.129  48.637  0.00  0.00    +0.000 C 
ATOM     31  C   UNL     1      48.519 -47.015  46.447  0.00  0.00    +0.000 C 
ATOM     32  C   UNL     1      50.449 -48.483  47.118  0.00  0.00    +0.000 C 
ATOM     33  C   UNL     1      51.547 -46.855  49.708  0.00  0.00    +0.000 C 
ATOM     34  C   UNL     1      48.084 -48.397  52.371  0.00  0.00    +0.000 C 
ATOM     35  C   UNL     1      52.743 -45.132  48.558  0.00  0.00    +0.000 C 
BRANCH  26  36
ATOM     36  O   UNL     1      48.856 -50.314  51.236  0.00  0.00    +0.000 OA
ATOM     37  H   UNL     1      49.311 -50.183  52.086  0.00  0.00    +0.000 HD
ENDBRANCH  26  36
ENDBRANCH  21  25
ENDBRANCH   3  20
TORSDOF 5
ENDMDL
MODEL 5
REMARK VINA RESULT:      -6.8     12.851     16.646
REMARK  Name = 342374_SipholenolA.pdbqt.pdb
REMARK  5 active torsions:
REMARK  status: ('A' for Active; 'I' for Inactive)
REMARK    1  A    between atoms: C_3  and  C_20
REMARK    2  A    between atoms: C_4  and  O_16
REMARK    3  A    between atoms: C_13  and  O_18
REMARK    4  A    between atoms: C_21  and  C_25
REMARK    5  A    between atoms: C_26  and  O_36
REMARK                            x       y       z     vdW  Elec       q    Type
REMARK                         _______ _______ _______ _____ _____    ______ ____
ROOT
ATOM      1  O   UNL     1      55.156 -49.160  44.682  0.00  0.00    +0.000 OA
ATOM      2  C   UNL     1      53.972 -47.100  45.767  0.00  0.00    +0.000 C 
ATOM      3  C   UNL     1      53.560 -45.645  45.528  0.00  0.00    +0.000 C 
ATOM      4  C   UNL     1      54.527 -44.687  44.852  0.00  0.00    +0.000 C 
ATOM      5  C   UNL     1      54.895 -47.785  44.666  0.00  0.00    +0.000 C 
ATOM      6  C   UNL     1      52.790 -47.976  45.739  0.00  0.00    +0.000 C 
ATOM      7  C   UNL     1      55.522 -45.457  44.132  0.00  0.00    +0.000 C 
ATOM      8  C   UNL     1      55.766 -46.920  43.975  0.00  0.00    +0.000 C 
ATOM      9  C   UNL     1      54.700 -47.214  47.135  0.00  0.00    +0.000 C 
ATOM     10  C   UNL     1      52.330 -49.318  45.226  0.00  0.00    +0.000 C 
ATOM     11  C   UNL     1      54.345 -50.049  43.846  0.00  0.00    +0.000 C 
ATOM     12  C   UNL     1      53.783 -43.720  43.920  0.00  0.00    +0.000 C 
ATOM     13  C   UNL     1      52.942 -50.334  44.461  0.00  0.00    +0.000 C 
ATOM     14  C   UNL     1      54.147 -49.480  42.411  0.00  0.00    +0.000 C 
ATOM     15  C   UNL     1      55.096 -51.411  43.766  0.00  0.00    +0.000 C 
ENDROOT
BRANCH   4  16
ATOM     16  O   UNL     1      55.153 -43.881  45.818  0.00  0.00    +0.000 OA
ATOM     17  H   UNL     1      55.552 -43.190  45.260  0.00  0.00    +0.000 HD
ENDBRANCH   4  16
BRANCH  13  18
ATOM     18  O   UNL     1      52.281 -51.547  44.298  0.00  0.00    +0.000 OA
ATOM     19  H   UNL     1      51.610 -51.495  43.584  0.00  0.00    +0.000 HD
ENDBRANCH  13  18
BRANCH   3  20
ATOM     20  C   UNL     1      52.367 -45.131  46.149  0.00  0.00    +0.000 C 
ATOM     21  C   UNL     1      51.107 -44.572  46.816  0.00  0.00    +0.000 C 
BRANCH  21  25
ATOM     22  C   UNL     1      49.342 -41.485  47.338  0.00  0.00    +0.000 C 
ATOM     23  C   UNL     1      49.081 -42.920  46.805  0.00  0.00    +0.000 C 
ATOM     24  C   UNL     1      49.186 -41.048  48.766  0.00  0.00    +0.000 C 
ATOM     25  C   UNL     1      49.931 -44.042  47.447  0.00  0.00    +0.000 C 
ATOM     26  C   UNL     1      49.110 -39.533  48.920  0.00  0.00    +0.000 C 
ATOM     27  C   UNL     1      49.376 -40.282  46.570  0.00  0.00    +0.000 C 
ATOM     28  C   UNL     1      49.230 -39.129  47.524  0.00  0.00    +0.000 C 
ATOM     29  C   UNL     1      49.171 -42.055  49.748  0.00  0.00    +0.000 C 
ATOM     30  C   UNL     1      49.634 -44.483  48.810  0.00  0.00    +0.000 C 
ATOM     31  C   UNL     1      49.360 -42.912  45.255  0.00  0.00    +0.000 C 
ATOM     32  C   UNL     1      47.557 -43.237  46.979  0.00  0.00    +0.000 C 
ATOM     33  C   UNL     1      49.366 -43.545  49.663  0.00  0.00    +0.000 C 
ATOM     34  C   UNL     1      50.184 -38.989  49.852  0.00  0.00    +0.000 C 
ATOM     35  C   UNL     1      50.045 -45.819  49.369  0.00  0.00    +0.000 C 
BRANCH  26  36
ATOM     36  O   UNL     1      47.867 -39.158  49.452  0.00  0.00    +0.000 OA
ATOM     37  H   UNL     1      48.145 -38.686  50.256  0.00  0.00    +0.000 HD
ENDBRANCH  26  36
ENDBRANCH  21  25
ENDBRANCH   3  20
TORSDOF 5
ENDMDL
MODEL 6
REMARK VINA RESULT:      -6.6     12.429     16.389
REMARK  Name = 342374_SipholenolA.pdbqt.pdb
REMARK  5 active torsions:
REMARK  status: ('A' for Active; 'I' for Inactive)
REMARK    1  A    between atoms: C_3  and  C_20
REMARK    2  A    between atoms: C_4  and  O_16
REMARK    3  A    between atoms: C_13  and  O_18
REMARK    4  A    between atoms: C_21  and  C_25
REMARK    5  A    between atoms: C_26  and  O_36
REMARK                            x       y       z     vdW  Elec       q    Type
REMARK                         _______ _______ _______ _____ _____    ______ ____
ROOT
ATOM      1  O   UNL     1      48.209 -38.423  48.205  0.00  0.00    +0.000 OA
ATOM      2  C   UNL     1      48.343 -40.884  47.340  0.00  0.00    +0.000 C 
ATOM      3  C   UNL     1      48.909 -41.774  46.230  0.00  0.00    +0.000 C 
ATOM      4  C   UNL     1      48.853 -41.307  44.786  0.00  0.00    +0.000 C 
ATOM      5  C   UNL     1      48.503 -39.310  47.163  0.00  0.00    +0.000 C 
ATOM      6  C   UNL     1      49.074 -41.109  48.597  0.00  0.00    +0.000 C 
ATOM      7  C   UNL     1      48.674 -39.869  44.764  0.00  0.00    +0.000 C 
ATOM      8  C   UNL     1      48.514 -38.843  45.834  0.00  0.00    +0.000 C 
ATOM      9  C   UNL     1      46.831 -41.189  47.529  0.00  0.00    +0.000 C 
ATOM     10  C   UNL     1      49.654 -40.363  49.774  0.00  0.00    +0.000 C 
ATOM     11  C   UNL     1      49.298 -37.941  49.059  0.00  0.00    +0.000 C 
ATOM     12  C   UNL     1      50.117 -41.727  44.021  0.00  0.00    +0.000 C 
ATOM     13  C   UNL     1      49.741 -38.996  50.116  0.00  0.00    +0.000 C 
ATOM     14  C   UNL     1      50.547 -37.521  48.230  0.00  0.00    +0.000 C 
ATOM     15  C   UNL     1      48.755 -36.709  49.841  0.00  0.00    +0.000 C 
ENDROOT
BRANCH   4  16
ATOM     16  O   UNL     1      47.782 -41.933  44.124  0.00  0.00    +0.000 OA
ATOM     17  H   UNL     1      48.072 -42.862  44.129  0.00  0.00    +0.000 HD
ENDBRANCH   4  16
BRANCH  13  18
ATOM     18  O   UNL     1      50.203 -38.647  51.381  0.00  0.00    +0.000 OA
ATOM     19  H   UNL     1      50.305 -39.435  51.955  0.00  0.00    +0.000 HD
ENDBRANCH  13  18
BRANCH   3  20
ATOM     20  C   UNL     1      49.273 -43.136  46.525  0.00  0.00    +0.000 C 
ATOM     21  C   UNL     1      49.652 -44.583  46.852  0.00  0.00    +0.000 C 
BRANCH  21  25
ATOM     22  C   UNL     1      52.508 -46.719  47.295  0.00  0.00    +0.000 C 
ATOM     23  C   UNL     1      51.221 -46.293  48.053  0.00  0.00    +0.000 C 
ATOM     24  C   UNL     1      52.615 -47.881  46.351  0.00  0.00    +0.000 C 
ATOM     25  C   UNL     1      50.003 -45.938  47.168  0.00  0.00    +0.000 C 
ATOM     26  C   UNL     1      54.056 -48.299  46.081  0.00  0.00    +0.000 C 
ATOM     27  C   UNL     1      53.851 -46.374  47.633  0.00  0.00    +0.000 C 
ATOM     28  C   UNL     1      54.762 -47.328  46.910  0.00  0.00    +0.000 C 
ATOM     29  C   UNL     1      51.415 -48.391  45.822  0.00  0.00    +0.000 C 
ATOM     30  C   UNL     1      49.265 -47.007  46.493  0.00  0.00    +0.000 C 
ATOM     31  C   UNL     1      51.579 -45.037  48.933  0.00  0.00    +0.000 C 
ATOM     32  C   UNL     1      50.841 -47.439  49.052  0.00  0.00    +0.000 C 
ATOM     33  C   UNL     1      49.986 -47.940  45.956  0.00  0.00    +0.000 C 
ATOM     34  C   UNL     1      54.403 -48.268  44.600  0.00  0.00    +0.000 C 
ATOM     35  C   UNL     1      47.848 -46.869  46.005  0.00  0.00    +0.000 C 
BRANCH  26  36
ATOM     36  O   UNL     1      54.278 -49.608  46.536  0.00  0.00    +0.000 OA
ATOM     37  H   UNL     1      53.379 -49.864  46.808  0.00  0.00    +0.000 HD
ENDBRANCH  26  36
ENDBRANCH  21  25
ENDBRANCH   3  20
TORSDOF 5
ENDMDL
MODEL 7
REMARK VINA RESULT:      -6.6      5.465     10.139
REMARK  Name = 342374_SipholenolA.pdbqt.pdb
REMARK  5 active torsions:
REMARK  status: ('A' for Active; 'I' for Inactive)
REMARK    1  A    between atoms: C_3  and  C_20
REMARK    2  A    between atoms: C_4  and  O_16
REMARK    3  A    between atoms: C_13  and  O_18
REMARK    4  A    between atoms: C_21  and  C_25
REMARK    5  A    between atoms: C_26  and  O_36
REMARK                            x       y       z     vdW  Elec       q    Type
REMARK                         _______ _______ _______ _____ _____    ______ ____
ROOT
ATOM      1  O   UNL     1      55.935 -55.273  59.795  0.00  0.00    +0.000 OA
ATOM      2  C   UNL     1      57.636 -53.628  60.899  0.00  0.00    +0.000 C 
ATOM      3  C   UNL     1      58.950 -53.552  61.682  0.00  0.00    +0.000 C 
ATOM      4  C   UNL     1      59.212 -54.526  62.817  0.00  0.00    +0.000 C 
ATOM      5  C   UNL     1      57.013 -55.074  60.665  0.00  0.00    +0.000 C 
ATOM      6  C   UNL     1      57.840 -53.174  59.515  0.00  0.00    +0.000 C 
ATOM      7  C   UNL     1      58.339 -55.673  62.660  0.00  0.00    +0.000 C 
ATOM      8  C   UNL     1      57.282 -56.025  61.669  0.00  0.00    +0.000 C 
ATOM      9  C   UNL     1      56.562 -52.756  61.605  0.00  0.00    +0.000 C 
ATOM     10  C   UNL     1      57.456 -53.510  58.095  0.00  0.00    +0.000 C 
ATOM     11  C   UNL     1      56.200 -55.706  58.420  0.00  0.00    +0.000 C 
ATOM     12  C   UNL     1      60.689 -54.946  62.854  0.00  0.00    +0.000 C 
ATOM     13  C   UNL     1      56.687 -54.539  57.509  0.00  0.00    +0.000 C 
ATOM     14  C   UNL     1      57.256 -56.849  58.361  0.00  0.00    +0.000 C 
ATOM     15  C   UNL     1      54.851 -56.214  57.832  0.00  0.00    +0.000 C 
ENDROOT
BRANCH   4  16
ATOM     16  O   UNL     1      58.962 -53.900  64.051  0.00  0.00    +0.000 OA
ATOM     17  H   UNL     1      59.306 -53.004  63.883  0.00  0.00    +0.000 HD
ENDBRANCH   4  16
BRANCH  13  18
ATOM     18  O   UNL     1      56.384 -54.466  56.153  0.00  0.00    +0.000 OA
ATOM     19  H   UNL     1      56.367 -55.355  55.742  0.00  0.00    +0.000 HD
ENDBRANCH  13  18
BRANCH   3  20
ATOM     20  C   UNL     1      59.823 -52.420  61.500  0.00  0.00    +0.000 C 
ATOM     21  C   UNL     1      60.764 -51.227  61.306  0.00  0.00    +0.000 C 
BRANCH  21  25
ATOM     22  C   UNL     1      60.798 -47.634  61.243  0.00  0.00    +0.000 C 
ATOM     23  C   UNL     1      61.526 -48.811  61.947  0.00  0.00    +0.000 C 
ATOM     24  C   UNL     1      61.221 -47.001  59.948  0.00  0.00    +0.000 C 
ATOM     25  C   UNL     1      61.652 -50.115  61.124  0.00  0.00    +0.000 C 
ATOM     26  C   UNL     1      60.580 -45.639  59.714  0.00  0.00    +0.000 C 
ATOM     27  C   UNL     1      59.891 -46.710  61.843  0.00  0.00    +0.000 C 
ATOM     28  C   UNL     1      59.777 -45.524  60.926  0.00  0.00    +0.000 C 
ATOM     29  C   UNL     1      62.093 -47.740  59.128  0.00  0.00    +0.000 C 
ATOM     30  C   UNL     1      62.602 -50.179  60.013  0.00  0.00    +0.000 C 
ATOM     31  C   UNL     1      60.740 -49.135  63.272  0.00  0.00    +0.000 C 
ATOM     32  C   UNL     1      62.947 -48.315  62.385  0.00  0.00    +0.000 C 
ATOM     33  C   UNL     1      62.654 -49.131  59.251  0.00  0.00    +0.000 C 
ATOM     34  C   UNL     1      59.802 -45.579  58.407  0.00  0.00    +0.000 C 
ATOM     35  C   UNL     1      63.150 -51.463  59.448  0.00  0.00    +0.000 C 
BRANCH  26  36
ATOM     36  O   UNL     1      61.563 -44.638  59.661  0.00  0.00    +0.000 OA
ATOM     37  H   UNL     1      62.241 -45.015  60.250  0.00  0.00    +0.000 HD
ENDBRANCH  26  36
ENDBRANCH  21  25
ENDBRANCH   3  20
TORSDOF 5
ENDMDL
MODEL 8
REMARK VINA RESULT:      -6.4     28.680     31.444
REMARK  Name = 342374_SipholenolA.pdbqt.pdb
REMARK  5 active torsions:
REMARK  status: ('A' for Active; 'I' for Inactive)
REMARK    1  A    between atoms: C_3  and  C_20
REMARK    2  A    between atoms: C_4  and  O_16
REMARK    3  A    between atoms: C_13  and  O_18
REMARK    4  A    between atoms: C_21  and  C_25
REMARK    5  A    between atoms: C_26  and  O_36
REMARK                            x       y       z     vdW  Elec       q    Type
REMARK                         _______ _______ _______ _____ _____    ______ ____
ROOT
ATOM      1  O   UNL     1      43.701 -30.377  70.097  0.00  0.00    +0.000 OA
ATOM      2  C   UNL     1      43.639 -28.940  67.916  0.00  0.00    +0.000 C 
ATOM      3  C   UNL     1      42.750 -28.037  67.057  0.00  0.00    +0.000 C 
ATOM      4  C   UNL     1      41.304 -28.425  66.799  0.00  0.00    +0.000 C 
ATOM      5  C   UNL     1      42.946 -29.697  69.134  0.00  0.00    +0.000 C 
ATOM      6  C   UNL     1      44.656 -28.139  68.616  0.00  0.00    +0.000 C 
ATOM      7  C   UNL     1      40.887 -29.378  67.808  0.00  0.00    +0.000 C 
ATOM      8  C   UNL     1      41.587 -30.024  68.956  0.00  0.00    +0.000 C 
ATOM      9  C   UNL     1      44.315 -30.010  67.015  0.00  0.00    +0.000 C 
ATOM     10  C   UNL     1      45.339 -28.010  69.955  0.00  0.00    +0.000 C 
ATOM     11  C   UNL     1      44.034 -29.698  71.351  0.00  0.00    +0.000 C 
ATOM     12  C   UNL     1      40.395 -27.187  66.786  0.00  0.00    +0.000 C 
ATOM     13  C   UNL     1      45.204 -28.682  71.189  0.00  0.00    +0.000 C 
ATOM     14  C   UNL     1      42.809 -28.945  71.950  0.00  0.00    +0.000 C 
ATOM     15  C   UNL     1      44.511 -30.792  72.351  0.00  0.00    +0.000 C 
ENDROOT
BRANCH   4  16
ATOM     16  O   UNL     1      41.185 -28.999  65.521  0.00  0.00    +0.000 OA
ATOM     17  H   UNL     1      41.370 -29.936  65.715  0.00  0.00    +0.000 HD
ENDBRANCH   4  16
BRANCH  13  18
ATOM     18  O   UNL     1      46.123 -28.424  72.201  0.00  0.00    +0.000 OA
ATOM     19  H   UNL     1      47.027 -28.306  71.842  0.00  0.00    +0.000 HD
ENDBRANCH  13  18
BRANCH   3  20
ATOM     20  C   UNL     1      43.342 -26.958  66.309  0.00  0.00    +0.000 C 
ATOM     21  C   UNL     1      43.956 -25.807  65.507  0.00  0.00    +0.000 C 
BRANCH  21  25
ATOM     22  C   UNL     1      45.735 -25.137  62.456  0.00  0.00    +0.000 C 
ATOM     23  C   UNL     1      44.457 -24.672  63.206  0.00  0.00    +0.000 C 
ATOM     24  C   UNL     1      47.099 -24.530  62.609  0.00  0.00    +0.000 C 
ATOM     25  C   UNL     1      44.523 -24.727  64.751  0.00  0.00    +0.000 C 
ATOM     26  C   UNL     1      48.048 -24.906  61.477  0.00  0.00    +0.000 C 
ATOM     27  C   UNL     1      45.787 -25.902  61.253  0.00  0.00    +0.000 C 
ATOM     28  C   UNL     1      47.168 -25.749  60.677  0.00  0.00    +0.000 C 
ATOM     29  C   UNL     1      47.332 -23.752  63.758  0.00  0.00    +0.000 C 
ATOM     30  C   UNL     1      45.321 -23.736  65.475  0.00  0.00    +0.000 C 
ATOM     31  C   UNL     1      43.265 -25.584  62.728  0.00  0.00    +0.000 C 
ATOM     32  C   UNL     1      44.116 -23.216  62.737  0.00  0.00    +0.000 C 
ATOM     33  C   UNL     1      46.476 -23.454  64.960  0.00  0.00    +0.000 C 
ATOM     34  C   UNL     1      49.317 -25.578  61.980  0.00  0.00    +0.000 C 
ATOM     35  C   UNL     1      45.114 -23.390  66.925  0.00  0.00    +0.000 C 
BRANCH  26  36
ATOM     36  O   UNL     1      48.437 -23.760  60.764  0.00  0.00    +0.000 OA
ATOM     37  H   UNL     1      49.311 -23.587  61.156  0.00  0.00    +0.000 HD
ENDBRANCH  26  36
ENDBRANCH  21  25
ENDBRANCH   3  20
TORSDOF 5
ENDMDL
MODEL 9
REMARK VINA RESULT:      -6.4      9.133     14.941
REMARK  Name = 342374_SipholenolA.pdbqt.pdb
REMARK  5 active torsions:
REMARK  status: ('A' for Active; 'I' for Inactive)
REMARK    1  A    between atoms: C_3  and  C_20
REMARK    2  A    between atoms: C_4  and  O_16
REMARK    3  A    between atoms: C_13  and  O_18
REMARK    4  A    between atoms: C_21  and  C_25
REMARK    5  A    between atoms: C_26  and  O_36
REMARK                            x       y       z     vdW  Elec       q    Type
REMARK                         _______ _______ _______ _____ _____    ______ ____
ROOT
ATOM      1  O   UNL     1      49.770 -48.368  48.912  0.00  0.00    +0.000 OA
ATOM      2  C   UNL     1      47.389 -48.974  49.797  0.00  0.00    +0.000 C 
ATOM      3  C   UNL     1      46.561 -49.184  51.068  0.00  0.00    +0.000 C 
ATOM      4  C   UNL     1      47.152 -49.954  52.236  0.00  0.00    +0.000 C 
ATOM      5  C   UNL     1      48.958 -48.770  49.978  0.00  0.00    +0.000 C 
ATOM      6  C   UNL     1      47.008 -47.712  49.143  0.00  0.00    +0.000 C 
ATOM      7  C   UNL     1      48.595 -49.966  52.108  0.00  0.00    +0.000 C 
ATOM      8  C   UNL     1      49.535 -49.422  51.085  0.00  0.00    +0.000 C 
ATOM      9  C   UNL     1      47.174 -50.173  48.834  0.00  0.00    +0.000 C 
ATOM     10  C   UNL     1      47.609 -46.520  48.440  0.00  0.00    +0.000 C 
ATOM     11  C   UNL     1      50.102 -46.948  48.764  0.00  0.00    +0.000 C 
ATOM     12  C   UNL     1      46.713 -49.345  53.577  0.00  0.00    +0.000 C 
ATOM     13  C   UNL     1      48.932 -46.122  48.151  0.00  0.00    +0.000 C 
ATOM     14  C   UNL     1      50.504 -46.299  50.121  0.00  0.00    +0.000 C 
ATOM     15  C   UNL     1      51.297 -46.859  47.770  0.00  0.00    +0.000 C 
ENDROOT
BRANCH   4  16
ATOM     16  O   UNL     1      46.660 -51.271  52.237  0.00  0.00    +0.000 OA
ATOM     17  H   UNL     1      47.481 -51.781  52.357  0.00  0.00    +0.000 HD
ENDBRANCH   4  16
BRANCH  13  18
ATOM     18  O   UNL     1      49.140 -45.022  47.324  0.00  0.00    +0.000 OA
ATOM     19  H   UNL     1      48.400 -44.382  47.388  0.00  0.00    +0.000 HD
ENDBRANCH  13  18
BRANCH   3  20
ATOM     20  C   UNL     1      45.157 -48.863  51.065  0.00  0.00    +0.000 C 
ATOM     21  C   UNL     1      43.661 -48.536  51.053  0.00  0.00    +0.000 C 
BRANCH  21  25
ATOM     22  C   UNL     1      40.603 -49.470  49.411  0.00  0.00    +0.000 C 
ATOM     23  C   UNL     1      41.179 -49.330  50.846  0.00  0.00    +0.000 C 
ATOM     24  C   UNL     1      39.907 -48.382  48.646  0.00  0.00    +0.000 C 
ATOM     25  C   UNL     1      42.257 -48.237  51.037  0.00  0.00    +0.000 C 
ATOM     26  C   UNL     1      39.104 -48.906  47.461  0.00  0.00    +0.000 C 
ATOM     27  C   UNL     1      40.272 -50.684  48.738  0.00  0.00    +0.000 C 
ATOM     28  C   UNL     1      39.374 -50.334  47.584  0.00  0.00    +0.000 C 
ATOM     29  C   UNL     1      40.110 -47.060  49.082  0.00  0.00    +0.000 C 
ATOM     30  C   UNL     1      41.862 -46.828  51.048  0.00  0.00    +0.000 C 
ATOM     31  C   UNL     1      41.805 -50.719  51.246  0.00  0.00    +0.000 C 
ATOM     32  C   UNL     1      39.985 -49.084  51.830  0.00  0.00    +0.000 C 
ATOM     33  C   UNL     1      40.985 -46.479  50.160  0.00  0.00    +0.000 C 
ATOM     34  C   UNL     1      39.530 -48.273  46.144  0.00  0.00    +0.000 C 
ATOM     35  C   UNL     1      42.686 -45.730  51.665  0.00  0.00    +0.000 C 
BRANCH  26  36
ATOM     36  O   UNL     1      37.739 -48.632  47.635  0.00  0.00    +0.000 OA
ATOM     37  H   UNL     1      37.362 -49.527  47.576  0.00  0.00    +0.000 HD
ENDBRANCH  26  36
ENDBRANCH  21  25
ENDBRANCH   3  20
TORSDOF 5
ENDMDL
