MODEL 1
REMARK VINA RESULT:      -5.5      0.000      0.000
REMARK  Name = 43806_Diaminocyclohexane.pdbqt.pdb
REMARK  2 active torsions:
REMARK  status: ('A' for Active; 'I' for Inactive)
REMARK    1  A    between atoms: C_1  and  N_7
REMARK    2  A    between atoms: C_2  and  N_10
REMARK                            x       y       z     vdW  Elec       q    Type
REMARK                         _______ _______ _______ _____ _____    ______ ____
ROOT
ATOM      1  C   UNL     1      47.778 -37.490  51.177  0.00  0.00    +0.000 A 
ATOM      2  C   UNL     1      46.876 -36.354  51.468  0.00  0.00    +0.000 A 
ATOM      3  C   UNL     1      49.098 -37.376  51.723  0.00  0.00    +0.000 A 
ATOM      4  C   UNL     1      47.442 -35.319  52.282  0.00  0.00    +0.000 A 
ATOM      5  C   UNL     1      49.774 -36.299  52.588  0.00  0.00    +0.000 A 
ATOM      6  C   UNL     1      48.834 -35.135  52.907  0.00  0.00    +0.000 A 
ENDROOT
BRANCH   1   7
ATOM      7  N   UNL     1      47.353 -38.645  50.479  0.00  0.00    +0.000 N 
ATOM      8  H   UNL     1      46.920 -38.440  49.584  0.00  0.00    +0.000 HD
ATOM      9  H   UNL     1      46.805 -39.295  51.034  0.00  0.00    +0.000 HD
ENDBRANCH   1   7
BRANCH   2  10
ATOM     10  N   UNL     1      45.575 -36.252  50.921  0.00  0.00    +0.000 N 
ATOM     11  H   UNL     1      44.975 -35.604  51.422  0.00  0.00    +0.000 HD
ATOM     12  H   UNL     1      45.121 -37.142  50.745  0.00  0.00    +0.000 HD
ENDBRANCH   2  10
TORSDOF 2
ENDMDL
MODEL 2
REMARK VINA RESULT:      -5.5      0.001      2.286
REMARK  Name = 43806_Diaminocyclohexane.pdbqt.pdb
REMARK  2 active torsions:
REMARK  status: ('A' for Active; 'I' for Inactive)
REMARK    1  A    between atoms: C_1  and  N_7
REMARK    2  A    between atoms: C_2  and  N_10
REMARK                            x       y       z     vdW  Elec       q    Type
REMARK                         _______ _______ _______ _____ _____    ______ ____
ROOT
ATOM      1  C   UNL     1      46.876 -36.355  51.467  0.00  0.00    +0.000 A 
ATOM      2  C   UNL     1      47.778 -37.491  51.176  0.00  0.00    +0.000 A 
ATOM      3  C   UNL     1      47.441 -35.320  52.281  0.00  0.00    +0.000 A 
ATOM      4  C   UNL     1      49.098 -37.376  51.722  0.00  0.00    +0.000 A 
ATOM      5  C   UNL     1      48.834 -35.136  52.906  0.00  0.00    +0.000 A 
ATOM      6  C   UNL     1      49.773 -36.301  52.587  0.00  0.00    +0.000 A 
ENDROOT
BRANCH   1   7
ATOM      7  N   UNL     1      45.575 -36.252  50.920  0.00  0.00    +0.000 N 
ATOM      8  H   UNL     1      45.565 -36.192  49.907  0.00  0.00    +0.000 HD
ATOM      9  H   UNL     1      44.990 -35.545  51.355  0.00  0.00    +0.000 HD
ENDBRANCH   1   7
BRANCH   2  10
ATOM     10  N   UNL     1      47.352 -38.645  50.478  0.00  0.00    +0.000 N 
ATOM     11  H   UNL     1      46.343 -38.753  50.450  0.00  0.00    +0.000 HD
ATOM     12  H   UNL     1      47.824 -39.501  50.751  0.00  0.00    +0.000 HD
ENDBRANCH   2  10
TORSDOF 2
ENDMDL
MODEL 3
REMARK VINA RESULT:      -5.3      1.223      2.560
REMARK  Name = 43806_Diaminocyclohexane.pdbqt.pdb
REMARK  2 active torsions:
REMARK  status: ('A' for Active; 'I' for Inactive)
REMARK    1  A    between atoms: C_1  and  N_7
REMARK    2  A    between atoms: C_2  and  N_10
REMARK                            x       y       z     vdW  Elec       q    Type
REMARK                         _______ _______ _______ _____ _____    ______ ____
ROOT
ATOM      1  C   UNL     1      47.709 -37.771  51.058  0.00  0.00    +0.000 A 
ATOM      2  C   UNL     1      49.060 -37.589  51.633  0.00  0.00    +0.000 A 
ATOM      3  C   UNL     1      46.795 -36.693  51.293  0.00  0.00    +0.000 A 
ATOM      4  C   UNL     1      49.270 -36.344  52.313  0.00  0.00    +0.000 A 
ATOM      5  C   UNL     1      46.945 -35.344  52.016  0.00  0.00    +0.000 A 
ATOM      6  C   UNL     1      48.349 -35.146  52.592  0.00  0.00    +0.000 A 
ENDROOT
BRANCH   1   7
ATOM      7  N   UNL     1      47.360 -38.890  50.266  0.00  0.00    +0.000 N 
ATOM      8  H   UNL     1      47.524 -38.751  49.274  0.00  0.00    +0.000 HD
ATOM      9  H   UNL     1      46.438 -39.270  50.456  0.00  0.00    +0.000 HD
ENDBRANCH   1   7
BRANCH   2  10
ATOM     10  N   UNL     1      50.052 -38.596  51.588  0.00  0.00    +0.000 N 
ATOM     11  H   UNL     1      49.751 -39.441  51.113  0.00  0.00    +0.000 HD
ATOM     12  H   UNL     1      50.494 -38.792  52.480  0.00  0.00    +0.000 HD
ENDBRANCH   2  10
TORSDOF 2
ENDMDL
MODEL 4
REMARK VINA RESULT:      -5.3      1.196      2.096
REMARK  Name = 43806_Diaminocyclohexane.pdbqt.pdb
REMARK  2 active torsions:
REMARK  status: ('A' for Active; 'I' for Inactive)
REMARK    1  A    between atoms: C_1  and  N_7
REMARK    2  A    between atoms: C_2  and  N_10
REMARK                            x       y       z     vdW  Elec       q    Type
REMARK                         _______ _______ _______ _____ _____    ______ ____
ROOT
ATOM      1  C   UNL     1      49.068 -37.604  51.628  0.00  0.00    +0.000 A 
ATOM      2  C   UNL     1      47.705 -37.758  51.074  0.00  0.00    +0.000 A 
ATOM      3  C   UNL     1      49.313 -36.368  52.311  0.00  0.00    +0.000 A 
ATOM      4  C   UNL     1      46.816 -36.663  51.330  0.00  0.00    +0.000 A 
ATOM      5  C   UNL     1      48.419 -35.154  52.612  0.00  0.00    +0.000 A 
ATOM      6  C   UNL     1      47.003 -35.323  52.058  0.00  0.00    +0.000 A 
ENDROOT
BRANCH   1   7
ATOM      7  N   UNL     1      50.041 -38.629  51.561  0.00  0.00    +0.000 N 
ATOM      8  H   UNL     1      50.987 -38.282  51.440  0.00  0.00    +0.000 HD
ATOM      9  H   UNL     1      49.818 -39.379  50.915  0.00  0.00    +0.000 HD
ENDBRANCH   1   7
BRANCH   2  10
ATOM     10  N   UNL     1      47.323 -38.866  50.281  0.00  0.00    +0.000 N 
ATOM     11  H   UNL     1      47.283 -38.659  49.288  0.00  0.00    +0.000 HD
ATOM     12  H   UNL     1      46.494 -39.352  50.608  0.00  0.00    +0.000 HD
ENDBRANCH   2  10
TORSDOF 2
ENDMDL
MODEL 5
REMARK VINA RESULT:      -4.1      2.627      3.719
REMARK  Name = 43806_Diaminocyclohexane.pdbqt.pdb
REMARK  2 active torsions:
REMARK  status: ('A' for Active; 'I' for Inactive)
REMARK    1  A    between atoms: C_1  and  N_7
REMARK    2  A    between atoms: C_2  and  N_10
REMARK                            x       y       z     vdW  Elec       q    Type
REMARK                         _______ _______ _______ _____ _____    ______ ____
ROOT
ATOM      1  C   UNL     1      48.643 -39.073  50.907  0.00  0.00    +0.000 A 
ATOM      2  C   UNL     1      49.487 -38.988  49.695  0.00  0.00    +0.000 A 
ATOM      3  C   UNL     1      47.918 -37.881  51.230  0.00  0.00    +0.000 A 
ATOM      4  C   UNL     1      49.432 -37.735  49.001  0.00  0.00    +0.000 A 
ATOM      5  C   UNL     1      47.818 -36.508  50.544  0.00  0.00    +0.000 A 
ATOM      6  C   UNL     1      48.675 -36.427  49.279  0.00  0.00    +0.000 A 
ENDROOT
BRANCH   1   7
ATOM      7  N   UNL     1      48.496 -40.266  51.653  0.00  0.00    +0.000 N 
ATOM      8  H   UNL     1      49.379 -40.709  51.888  0.00  0.00    +0.000 HD
ATOM      9  H   UNL     1      47.824 -40.923  51.268  0.00  0.00    +0.000 HD
ENDBRANCH   1   7
BRANCH   2  10
ATOM     10  N   UNL     1      50.350 -40.033  49.289  0.00  0.00    +0.000 N 
ATOM     11  H   UNL     1      50.335 -40.205  48.289  0.00  0.00    +0.000 HD
ATOM     12  H   UNL     1      50.260 -40.887  49.829  0.00  0.00    +0.000 HD
ENDBRANCH   2  10
TORSDOF 2
ENDMDL
MODEL 6
REMARK VINA RESULT:      -4.0      2.641      3.409
REMARK  Name = 43806_Diaminocyclohexane.pdbqt.pdb
REMARK  2 active torsions:
REMARK  status: ('A' for Active; 'I' for Inactive)
REMARK    1  A    between atoms: C_1  and  N_7
REMARK    2  A    between atoms: C_2  and  N_10
REMARK                            x       y       z     vdW  Elec       q    Type
REMARK                         _______ _______ _______ _____ _____    ______ ____
ROOT
ATOM      1  C   UNL     1      49.373 -39.099  49.653  0.00  0.00    +0.000 A 
ATOM      2  C   UNL     1      48.590 -39.185  50.905  0.00  0.00    +0.000 A 
ATOM      3  C   UNL     1      49.320 -37.833  48.985  0.00  0.00    +0.000 A 
ATOM      4  C   UNL     1      47.918 -37.978  51.287  0.00  0.00    +0.000 A 
ATOM      5  C   UNL     1      48.617 -36.509  49.327  0.00  0.00    +0.000 A 
ATOM      6  C   UNL     1      47.825 -36.591  50.633  0.00  0.00    +0.000 A 
ENDROOT
BRANCH   1   7
ATOM      7  N   UNL     1      50.182 -40.161  49.183  0.00  0.00    +0.000 N 
ATOM      8  H   UNL     1      50.523 -40.022  48.237  0.00  0.00    +0.000 HD
ATOM      9  H   UNL     1      49.785 -41.085  49.319  0.00  0.00    +0.000 HD
ENDBRANCH   1   7
BRANCH   2  10
ATOM     10  N   UNL     1      48.446 -40.388  51.636  0.00  0.00    +0.000 N 
ATOM     11  H   UNL     1      47.560 -40.857  51.474  0.00  0.00    +0.000 HD
ATOM     12  H   UNL     1      48.667 -40.311  52.623  0.00  0.00    +0.000 HD
ENDBRANCH   2  10
TORSDOF 2
ENDMDL
MODEL 7
REMARK VINA RESULT:      -4.0      2.913      3.800
REMARK  Name = 43806_Diaminocyclohexane.pdbqt.pdb
REMARK  2 active torsions:
REMARK  status: ('A' for Active; 'I' for Inactive)
REMARK    1  A    between atoms: C_1  and  N_7
REMARK    2  A    between atoms: C_2  and  N_10
REMARK                            x       y       z     vdW  Elec       q    Type
REMARK                         _______ _______ _______ _____ _____    ______ ____
ROOT
ATOM      1  C   UNL     1      49.540 -37.541  48.970  0.00  0.00    +0.000 A 
ATOM      2  C   UNL     1      49.541 -38.703  49.886  0.00  0.00    +0.000 A 
ATOM      3  C   UNL     1      48.652 -36.478  49.334  0.00  0.00    +0.000 A 
ATOM      4  C   UNL     1      48.678 -38.582  51.024  0.00  0.00    +0.000 A 
ATOM      5  C   UNL     1      47.697 -36.285  50.524  0.00  0.00    +0.000 A 
ATOM      6  C   UNL     1      47.714 -37.477  51.482  0.00  0.00    +0.000 A 
ENDROOT
BRANCH   1   7
ATOM      7  N   UNL     1      50.408 -37.446  47.856  0.00  0.00    +0.000 N 
ATOM      8  H   UNL     1      50.874 -38.318  47.630  0.00  0.00    +0.000 HD
ATOM      9  H   UNL     1      51.051 -36.661  47.890  0.00  0.00    +0.000 HD
ENDBRANCH   1   7
BRANCH   2  10
ATOM     10  N   UNL     1      50.277 -39.883  49.624  0.00  0.00    +0.000 N 
ATOM     11  H   UNL     1      50.198 -40.205  48.665  0.00  0.00    +0.000 HD
ATOM     12  H   UNL     1      50.128 -40.629  50.295  0.00  0.00    +0.000 HD
ENDBRANCH   2  10
TORSDOF 2
ENDMDL
MODEL 8
REMARK VINA RESULT:      -3.8     10.912     12.329
REMARK  Name = 43806_Diaminocyclohexane.pdbqt.pdb
REMARK  2 active torsions:
REMARK  status: ('A' for Active; 'I' for Inactive)
REMARK    1  A    between atoms: C_1  and  N_7
REMARK    2  A    between atoms: C_2  and  N_10
REMARK                            x       y       z     vdW  Elec       q    Type
REMARK                         _______ _______ _______ _____ _____    ______ ____
ROOT
ATOM      1  C   UNL     1      38.916 -29.401  55.773  0.00  0.00    +0.000 A 
ATOM      2  C   UNL     1      39.985 -29.413  54.751  0.00  0.00    +0.000 A 
ATOM      3  C   UNL     1      38.500 -28.101  56.205  0.00  0.00    +0.000 A 
ATOM      4  C   UNL     1      40.427 -28.121  54.317  0.00  0.00    +0.000 A 
ATOM      5  C   UNL     1      38.932 -26.683  55.796  0.00  0.00    +0.000 A 
ATOM      6  C   UNL     1      40.024 -26.695  54.724  0.00  0.00    +0.000 A 
ENDROOT
BRANCH   1   7
ATOM      7  N   UNL     1      38.288 -30.582  56.236  0.00  0.00    +0.000 N 
ATOM      8  H   UNL     1      38.943 -31.315  56.491  0.00  0.00    +0.000 HD
ATOM      9  H   UNL     1      37.539 -30.923  55.642  0.00  0.00    +0.000 HD
ENDBRANCH   1   7
BRANCH   2  10
ATOM     10  N   UNL     1      40.588 -30.607  54.288  0.00  0.00    +0.000 N 
ATOM     11  H   UNL     1      41.375 -30.449  53.667  0.00  0.00    +0.000 HD
ATOM     12  H   UNL     1      39.937 -31.293  53.921  0.00  0.00    +0.000 HD
ENDBRANCH   2  10
TORSDOF 2
ENDMDL
MODEL 9
REMARK VINA RESULT:      -3.6     25.459     25.717
REMARK  Name = 43806_Diaminocyclohexane.pdbqt.pdb
REMARK  2 active torsions:
REMARK  status: ('A' for Active; 'I' for Inactive)
REMARK    1  A    between atoms: C_1  and  N_7
REMARK    2  A    between atoms: C_2  and  N_10
REMARK                            x       y       z     vdW  Elec       q    Type
REMARK                         _______ _______ _______ _____ _____    ______ ____
ROOT
ATOM      1  C   UNL     1      36.921 -49.511  70.633  0.00  0.00    +0.000 A 
ATOM      2  C   UNL     1      35.812 -48.544  70.480  0.00  0.00    +0.000 A 
ATOM      3  C   UNL     1      36.641 -50.839  70.177  0.00  0.00    +0.000 A 
ATOM      4  C   UNL     1      34.627 -49.069  69.867  0.00  0.00    +0.000 A 
ATOM      5  C   UNL     1      35.401 -51.472  69.525  0.00  0.00    +0.000 A 
ATOM      6  C   UNL     1      34.261 -50.468  69.347  0.00  0.00    +0.000 A 
ENDROOT
BRANCH   1   7
ATOM      7  N   UNL     1      38.197 -49.139  71.121  0.00  0.00    +0.000 N 
ATOM      8  H   UNL     1      38.419 -48.160  70.969  0.00  0.00    +0.000 HD
ATOM      9  H   UNL     1      38.952 -49.755  70.837  0.00  0.00    +0.000 HD
ENDBRANCH   1   7
BRANCH   2  10
ATOM     10  N   UNL     1      35.878 -47.219  70.972  0.00  0.00    +0.000 N 
ATOM     11  H   UNL     1      35.394 -46.545  70.388  0.00  0.00    +0.000 HD
ATOM     12  H   UNL     1      36.810 -46.911  71.226  0.00  0.00    +0.000 HD
ENDBRANCH   2  10
TORSDOF 2
ENDMDL
