MODEL 1
REMARK VINA RESULT:      -7.3      0.000      0.000
REMARK  Name = 44234954_SipholenolL.pdbqt.pdb
REMARK  5 active torsions:
REMARK  status: ('A' for Active; 'I' for Inactive)
REMARK    1  A    between atoms: C_3  and  C_20
REMARK    2  A    between atoms: C_4  and  O_16
REMARK    3  A    between atoms: C_13  and  O_18
REMARK    4  A    between atoms: C_21  and  C_25
REMARK    5  A    between atoms: C_26  and  O_36
REMARK                            x       y       z     vdW  Elec       q    Type
REMARK                         _______ _______ _______ _____ _____    ______ ____
ROOT
ATOM      1  O   UNL     1      51.063 -55.555  56.486  0.00  0.00    +0.000 OA
ATOM      2  C   UNL     1      48.812 -54.259  56.270  0.00  0.00    +0.000 C 
ATOM      3  C   UNL     1      47.297 -54.449  56.172  0.00  0.00    +0.000 C 
ATOM      4  C   UNL     1      46.597 -55.395  57.129  0.00  0.00    +0.000 C 
ATOM      5  C   UNL     1      49.668 -55.566  56.578  0.00  0.00    +0.000 C 
ATOM      6  C   UNL     1      49.379 -53.853  54.975  0.00  0.00    +0.000 C 
ATOM      7  C   UNL     1      47.557 -56.383  57.586  0.00  0.00    +0.000 C 
ATOM      8  C   UNL     1      49.025 -56.544  57.363  0.00  0.00    +0.000 C 
ATOM      9  C   UNL     1      49.139 -53.195  57.350  0.00  0.00    +0.000 C 
ATOM     10  C   UNL     1      50.548 -54.137  54.066  0.00  0.00    +0.000 C 
ATOM     11  C   UNL     1      51.718 -56.065  55.269  0.00  0.00    +0.000 C 
ATOM     12  C   UNL     1      45.883 -54.650  58.253  0.00  0.00    +0.000 C 
ATOM     13  C   UNL     1      51.634 -55.041  54.087  0.00  0.00    +0.000 C 
ATOM     14  C   UNL     1      53.208 -56.271  55.652  0.00  0.00    +0.000 C 
ATOM     15  C   UNL     1      51.077 -57.412  54.810  0.00  0.00    +0.000 C 
ENDROOT
BRANCH   4  16
ATOM     16  O   UNL     1      45.571 -56.071  56.432  0.00  0.00    +0.000 OA
ATOM     17  H   UNL     1      46.054 -56.855  56.112  0.00  0.00    +0.000 HD
ENDBRANCH   4  16
BRANCH  13  18
ATOM     18  O   UNL     1      52.450 -55.143  52.967  0.00  0.00    +0.000 OA
ATOM     19  H   UNL     1      53.380 -54.933  53.164  0.00  0.00    +0.000 HD
ENDBRANCH  13  18
BRANCH   3  20
ATOM     20  C   UNL     1      46.520 -53.694  55.226  0.00  0.00    +0.000 C 
ATOM     21  C   UNL     1      45.693 -52.919  54.196  0.00  0.00    +0.000 C 
BRANCH  21  25
ATOM     22  C   UNL     1      45.453 -50.976  52.512  0.00  0.00    +0.000 A 
ATOM     23  C   UNL     1      44.577 -50.263  51.411  0.00  0.00    +0.000 A 
ATOM     24  C   UNL     1      46.874 -50.417  52.938  0.00  0.00    +0.000 C 
ATOM     25  C   UNL     1      44.907 -52.239  53.213  0.00  0.00    +0.000 A 
ATOM     26  C   UNL     1      44.931 -49.014  50.571  0.00  0.00    +0.000 C 
ATOM     27  C   UNL     1      47.069 -49.216  52.120  0.00  0.00    +0.000 C 
ATOM     28  C   UNL     1      46.220 -48.564  51.062  0.00  0.00    +0.000 C 
ATOM     29  C   UNL     1      43.313 -50.910  51.281  0.00  0.00    +0.000 A 
ATOM     30  C   UNL     1      43.559 -52.803  52.928  0.00  0.00    +0.000 A 
ATOM     31  C   UNL     1      47.968 -51.456  52.591  0.00  0.00    +0.000 C 
ATOM     32  C   UNL     1      46.859 -50.018  54.429  0.00  0.00    +0.000 C 
ATOM     33  C   UNL     1      42.894 -52.132  52.043  0.00  0.00    +0.000 A 
ATOM     34  C   UNL     1      44.926 -49.327  49.082  0.00  0.00    +0.000 C 
ATOM     35  C   UNL     1      43.007 -54.093  53.460  0.00  0.00    +0.000 C 
BRANCH  26  36
ATOM     36  O   UNL     1      43.969 -48.014  50.787  0.00  0.00    +0.000 OA
ATOM     37  H   UNL     1      43.211 -48.377  50.293  0.00  0.00    +0.000 HD
ENDBRANCH  26  36
ENDBRANCH  21  25
ENDBRANCH   3  20
TORSDOF 5
ENDMDL
MODEL 2
REMARK VINA RESULT:      -7.3      2.414      8.884
REMARK  Name = 44234954_SipholenolL.pdbqt.pdb
REMARK  5 active torsions:
REMARK  status: ('A' for Active; 'I' for Inactive)
REMARK    1  A    between atoms: C_3  and  C_20
REMARK    2  A    between atoms: C_4  and  O_16
REMARK    3  A    between atoms: C_13  and  O_18
REMARK    4  A    between atoms: C_21  and  C_25
REMARK    5  A    between atoms: C_26  and  O_36
REMARK                            x       y       z     vdW  Elec       q    Type
REMARK                         _______ _______ _______ _____ _____    ______ ____
ROOT
ATOM      1  O   UNL     1      43.989 -52.957  54.629  0.00  0.00    +0.000 OA
ATOM      2  C   UNL     1      46.593 -52.921  54.522  0.00  0.00    +0.000 C 
ATOM      3  C   UNL     1      47.782 -53.161  53.588  0.00  0.00    +0.000 C 
ATOM      4  C   UNL     1      47.770 -52.565  52.193  0.00  0.00    +0.000 C 
ATOM      5  C   UNL     1      45.150 -52.956  53.850  0.00  0.00    +0.000 C 
ATOM      6  C   UNL     1      46.468 -54.005  55.508  0.00  0.00    +0.000 C 
ATOM      7  C   UNL     1      46.391 -52.359  51.790  0.00  0.00    +0.000 C 
ATOM      8  C   UNL     1      45.093 -52.530  52.507  0.00  0.00    +0.000 C 
ATOM      9  C   UNL     1      46.761 -51.561  55.247  0.00  0.00    +0.000 C 
ATOM     10  C   UNL     1      45.430 -54.885  56.158  0.00  0.00    +0.000 C 
ATOM     11  C   UNL     1      43.299 -54.228  54.909  0.00  0.00    +0.000 C 
ATOM     12  C   UNL     1      48.644 -51.317  52.096  0.00  0.00    +0.000 C 
ATOM     13  C   UNL     1      44.035 -55.063  56.009  0.00  0.00    +0.000 C 
ATOM     14  C   UNL     1      41.892 -53.832  55.434  0.00  0.00    +0.000 C 
ATOM     15  C   UNL     1      43.180 -55.097  53.618  0.00  0.00    +0.000 C 
ENDROOT
BRANCH   4  16
ATOM     16  O   UNL     1      48.355 -53.489  51.299  0.00  0.00    +0.000 OA
ATOM     17  H   UNL     1      48.945 -53.978  51.902  0.00  0.00    +0.000 HD
ENDBRANCH   4  16
BRANCH  13  18
ATOM     18  O   UNL     1      43.414 -56.113  56.675  0.00  0.00    +0.000 OA
ATOM     19  H   UNL     1      42.574 -55.846  57.088  0.00  0.00    +0.000 HD
ENDBRANCH  13  18
BRANCH   3  20
ATOM     20  C   UNL     1      48.935 -53.892  54.038  0.00  0.00    +0.000 C 
ATOM     21  C   UNL     1      50.181 -54.639  54.526  0.00  0.00    +0.000 C 
BRANCH  21  25
ATOM     22  C   UNL     1      51.459 -55.731  56.485  0.00  0.00    +0.000 A 
ATOM     23  C   UNL     1      52.756 -56.480  56.983  0.00  0.00    +0.000 A 
ATOM     24  C   UNL     1      50.263 -55.393  57.469  0.00  0.00    +0.000 C 
ATOM     25  C   UNL     1      51.356 -55.295  55.007  0.00  0.00    +0.000 A 
ATOM     26  C   UNL     1      53.060 -57.024  58.397  0.00  0.00    +0.000 C 
ATOM     27  C   UNL     1      50.690 -55.906  58.774  0.00  0.00    +0.000 C 
ATOM     28  C   UNL     1      51.931 -56.631  59.219  0.00  0.00    +0.000 C 
ATOM     29  C   UNL     1      53.711 -56.580  55.928  0.00  0.00    +0.000 A 
ATOM     30  C   UNL     1      52.452 -55.511  54.023  0.00  0.00    +0.000 A 
ATOM     31  C   UNL     1      48.987 -56.144  57.016  0.00  0.00    +0.000 C 
ATOM     32  C   UNL     1      50.073 -53.864  57.562  0.00  0.00    +0.000 C 
ATOM     33  C   UNL     1      53.493 -56.094  54.526  0.00  0.00    +0.000 A 
ATOM     34  C   UNL     1      53.298 -58.527  58.374  0.00  0.00    +0.000 C 
ATOM     35  C   UNL     1      52.384 -55.243  52.548  0.00  0.00    +0.000 C 
BRANCH  26  36
ATOM     36  O   UNL     1      54.232 -56.428  58.889  0.00  0.00    +0.000 OA
ATOM     37  H   UNL     1      54.711 -56.248  58.059  0.00  0.00    +0.000 HD
ENDBRANCH  26  36
ENDBRANCH  21  25
ENDBRANCH   3  20
TORSDOF 5
ENDMDL
MODEL 3
REMARK VINA RESULT:      -7.2      2.121      3.441
REMARK  Name = 44234954_SipholenolL.pdbqt.pdb
REMARK  5 active torsions:
REMARK  status: ('A' for Active; 'I' for Inactive)
REMARK    1  A    between atoms: C_3  and  C_20
REMARK    2  A    between atoms: C_4  and  O_16
REMARK    3  A    between atoms: C_13  and  O_18
REMARK    4  A    between atoms: C_21  and  C_25
REMARK    5  A    between atoms: C_26  and  O_36
REMARK                            x       y       z     vdW  Elec       q    Type
REMARK                         _______ _______ _______ _____ _____    ______ ____
ROOT
ATOM      1  O   UNL     1      46.825 -55.663  57.599  0.00  0.00    +0.000 OA
ATOM      2  C   UNL     1      45.335 -54.440  55.845  0.00  0.00    +0.000 C 
ATOM      3  C   UNL     1      44.849 -54.505  54.395  0.00  0.00    +0.000 C 
ATOM      4  C   UNL     1      44.335 -55.818  53.836  0.00  0.00    +0.000 C 
ATOM      5  C   UNL     1      46.160 -55.697  56.370  0.00  0.00    +0.000 C 
ATOM      6  C   UNL     1      46.322 -53.364  56.025  0.00  0.00    +0.000 C 
ATOM      7  C   UNL     1      44.930 -56.906  54.591  0.00  0.00    +0.000 C 
ATOM      8  C   UNL     1      45.813 -56.936  55.794  0.00  0.00    +0.000 C 
ATOM      9  C   UNL     1      44.128 -54.217  56.793  0.00  0.00    +0.000 C 
ATOM     10  C   UNL     1      47.645 -53.085  56.693  0.00  0.00    +0.000 C 
ATOM     11  C   UNL     1      48.270 -55.377  57.638  0.00  0.00    +0.000 C 
ATOM     12  C   UNL     1      42.811 -55.858  53.776  0.00  0.00    +0.000 C 
ATOM     13  C   UNL     1      48.570 -53.854  57.436  0.00  0.00    +0.000 C 
ATOM     14  C   UNL     1      48.741 -55.799  59.056  0.00  0.00    +0.000 C 
ATOM     15  C   UNL     1      49.031 -56.186  56.542  0.00  0.00    +0.000 C 
ENDROOT
BRANCH   4  16
ATOM     16  O   UNL     1      44.756 -55.936  52.492  0.00  0.00    +0.000 OA
ATOM     17  H   UNL     1      44.135 -56.614  52.166  0.00  0.00    +0.000 HD
ENDBRANCH   4  16
BRANCH  13  18
ATOM     18  O   UNL     1      49.800 -53.297  57.763  0.00  0.00    +0.000 OA
ATOM     19  H   UNL     1      50.548 -53.838  57.452  0.00  0.00    +0.000 HD
ENDBRANCH  13  18
BRANCH   3  20
ATOM     20  C   UNL     1      44.816 -53.323  53.576  0.00  0.00    +0.000 C 
ATOM     21  C   UNL     1      44.763 -52.048  52.729  0.00  0.00    +0.000 C 
BRANCH  21  25
ATOM     22  C   UNL     1      45.906 -49.863  51.964  0.00  0.00    +0.000 A 
ATOM     23  C   UNL     1      45.823 -48.541  51.107  0.00  0.00    +0.000 A 
ATOM     24  C   UNL     1      47.185 -50.216  52.831  0.00  0.00    +0.000 C 
ATOM     25  C   UNL     1      44.703 -50.831  51.981  0.00  0.00    +0.000 A 
ATOM     26  C   UNL     1      46.907 -47.453  50.925  0.00  0.00    +0.000 C 
ATOM     27  C   UNL     1      48.106 -49.095  52.620  0.00  0.00    +0.000 C 
ATOM     28  C   UNL     1      48.007 -47.849  51.782  0.00  0.00    +0.000 C 
ATOM     29  C   UNL     1      44.540 -48.420  50.497  0.00  0.00    +0.000 A 
ATOM     30  C   UNL     1      43.434 -50.557  51.251  0.00  0.00    +0.000 A 
ATOM     31  C   UNL     1      47.833 -51.517  52.299  0.00  0.00    +0.000 C 
ATOM     32  C   UNL     1      46.806 -50.286  54.326  0.00  0.00    +0.000 C 
ATOM     33  C   UNL     1      43.439 -49.433  50.608  0.00  0.00    +0.000 A 
ATOM     34  C   UNL     1      47.301 -47.301  49.463  0.00  0.00    +0.000 C 
ATOM     35  C   UNL     1      42.275 -51.498  51.104  0.00  0.00    +0.000 C 
BRANCH  26  36
ATOM     36  O   UNL     1      46.402 -46.212  51.347  0.00  0.00    +0.000 OA
ATOM     37  H   UNL     1      47.018 -45.998  52.072  0.00  0.00    +0.000 HD
ENDBRANCH  26  36
ENDBRANCH  21  25
ENDBRANCH   3  20
TORSDOF 5
ENDMDL
MODEL 4
REMARK VINA RESULT:      -7.0      4.895      8.308
REMARK  Name = 44234954_SipholenolL.pdbqt.pdb
REMARK  5 active torsions:
REMARK  status: ('A' for Active; 'I' for Inactive)
REMARK    1  A    between atoms: C_3  and  C_20
REMARK    2  A    between atoms: C_4  and  O_16
REMARK    3  A    between atoms: C_13  and  O_18
REMARK    4  A    between atoms: C_21  and  C_25
REMARK    5  A    between atoms: C_26  and  O_36
REMARK                            x       y       z     vdW  Elec       q    Type
REMARK                         _______ _______ _______ _____ _____    ______ ____
ROOT
ATOM      1  O   UNL     1      43.028 -58.092  64.149  0.00  0.00    +0.000 OA
ATOM      2  C   UNL     1      43.815 -57.918  61.671  0.00  0.00    +0.000 C 
ATOM      3  C   UNL     1      45.007 -57.534  60.791  0.00  0.00    +0.000 C 
ATOM      4  C   UNL     1      46.391 -58.052  61.137  0.00  0.00    +0.000 C 
ATOM      5  C   UNL     1      44.082 -57.959  63.240  0.00  0.00    +0.000 C 
ATOM      6  C   UNL     1      42.753 -56.903  61.595  0.00  0.00    +0.000 C 
ATOM      7  C   UNL     1      46.432 -58.343  62.558  0.00  0.00    +0.000 C 
ATOM      8  C   UNL     1      45.390 -58.314  63.627  0.00  0.00    +0.000 C 
ATOM      9  C   UNL     1      43.262 -59.299  61.233  0.00  0.00    +0.000 C 
ATOM     10  C   UNL     1      41.791 -56.144  62.474  0.00  0.00    +0.000 C 
ATOM     11  C   UNL     1      42.484 -56.897  64.816  0.00  0.00    +0.000 C 
ATOM     12  C   UNL     1      46.805 -59.220  60.246  0.00  0.00    +0.000 C 
ATOM     13  C   UNL     1      41.556 -56.069  63.866  0.00  0.00    +0.000 C 
ATOM     14  C   UNL     1      41.640 -57.430  66.005  0.00  0.00    +0.000 C 
ATOM     15  C   UNL     1      43.631 -55.970  65.328  0.00  0.00    +0.000 C 
ENDROOT
BRANCH   4  16
ATOM     16  O   UNL     1      47.336 -57.037  60.869  0.00  0.00    +0.000 OA
ATOM     17  H   UNL     1      46.750 -56.262  60.778  0.00  0.00    +0.000 HD
ENDBRANCH   4  16
BRANCH  13  18
ATOM     18  O   UNL     1      40.676 -55.109  64.350  0.00  0.00    +0.000 OA
ATOM     19  H   UNL     1      39.801 -55.479  64.561  0.00  0.00    +0.000 HD
ENDBRANCH  13  18
BRANCH   3  20
ATOM     20  C   UNL     1      44.822 -56.742  59.605  0.00  0.00    +0.000 C 
ATOM     21  C   UNL     1      44.612 -55.871  58.363  0.00  0.00    +0.000 C 
BRANCH  21  25
ATOM     22  C   UNL     1      45.609 -54.274  56.596  0.00  0.00    +0.000 A 
ATOM     23  C   UNL     1      45.367 -53.361  55.332  0.00  0.00    +0.000 A 
ATOM     24  C   UNL     1      47.046 -54.433  57.247  0.00  0.00    +0.000 C 
ATOM     25  C   UNL     1      44.415 -55.017  57.233  0.00  0.00    +0.000 A 
ATOM     26  C   UNL     1      46.410 -52.553  54.525  0.00  0.00    +0.000 C 
ATOM     27  C   UNL     1      47.925 -53.586  56.434  0.00  0.00    +0.000 C 
ATOM     28  C   UNL     1      47.669 -52.734  55.220  0.00  0.00    +0.000 C 
ATOM     29  C   UNL     1      43.981 -53.320  55.002  0.00  0.00    +0.000 A 
ATOM     30  C   UNL     1      43.019 -54.881  56.733  0.00  0.00    +0.000 A 
ATOM     31  C   UNL     1      47.508 -55.906  57.136  0.00  0.00    +0.000 C 
ATOM     32  C   UNL     1      47.029 -53.903  58.697  0.00  0.00    +0.000 C 
ATOM     33  C   UNL     1      42.906 -54.082  55.721  0.00  0.00    +0.000 A 
ATOM     34  C   UNL     1      46.452 -52.999  53.070  0.00  0.00    +0.000 C 
ATOM     35  C   UNL     1      41.829 -55.665  57.204  0.00  0.00    +0.000 C 
BRANCH  26  36
ATOM     36  O   UNL     1      46.058 -51.194  54.531  0.00  0.00    +0.000 OA
ATOM     37  H   UNL     1      45.121 -51.246  54.794  0.00  0.00    +0.000 HD
ENDBRANCH  26  36
ENDBRANCH  21  25
ENDBRANCH   3  20
TORSDOF 5
ENDMDL
MODEL 5
REMARK VINA RESULT:      -6.8      8.011     11.531
REMARK  Name = 44234954_SipholenolL.pdbqt.pdb
REMARK  5 active torsions:
REMARK  status: ('A' for Active; 'I' for Inactive)
REMARK    1  A    between atoms: C_3  and  C_20
REMARK    2  A    between atoms: C_4  and  O_16
REMARK    3  A    between atoms: C_13  and  O_18
REMARK    4  A    between atoms: C_21  and  C_25
REMARK    5  A    between atoms: C_26  and  O_36
REMARK                            x       y       z     vdW  Elec       q    Type
REMARK                         _______ _______ _______ _____ _____    ______ ____
ROOT
ATOM      1  O   UNL     1      55.187 -47.090  44.111  0.00  0.00    +0.000 OA
ATOM      2  C   UNL     1      53.451 -48.267  45.658  0.00  0.00    +0.000 C 
ATOM      3  C   UNL     1      52.068 -48.923  45.668  0.00  0.00    +0.000 C 
ATOM      4  C   UNL     1      51.712 -49.933  44.592  0.00  0.00    +0.000 C 
ATOM      5  C   UNL     1      54.036 -47.876  44.230  0.00  0.00    +0.000 C 
ATOM      6  C   UNL     1      53.416 -46.951  46.315  0.00  0.00    +0.000 C 
ATOM      7  C   UNL     1      52.527 -49.667  43.422  0.00  0.00    +0.000 C 
ATOM      8  C   UNL     1      53.639 -48.705  43.162  0.00  0.00    +0.000 C 
ATOM      9  C   UNL     1      54.475 -49.188  46.371  0.00  0.00    +0.000 C 
ATOM     10  C   UNL     1      53.923 -45.541  46.145  0.00  0.00    +0.000 C 
ATOM     11  C   UNL     1      55.060 -45.645  43.858  0.00  0.00    +0.000 C 
ATOM     12  C   UNL     1      51.797 -51.368  45.102  0.00  0.00    +0.000 C 
ATOM     13  C   UNL     1      54.660 -44.858  45.150  0.00  0.00    +0.000 C 
ATOM     14  C   UNL     1      56.467 -45.177  43.398  0.00  0.00    +0.000 C 
ATOM     15  C   UNL     1      53.998 -45.361  42.750  0.00  0.00    +0.000 C 
ENDROOT
BRANCH   4  16
ATOM     16  O   UNL     1      50.357 -49.754  44.233  0.00  0.00    +0.000 OA
ATOM     17  H   UNL     1      50.450 -49.478  43.302  0.00  0.00    +0.000 HD
ENDBRANCH   4  16
BRANCH  13  18
ATOM     18  O   UNL     1      54.806 -43.479  45.247  0.00  0.00    +0.000 OA
ATOM     19  H   UNL     1      55.083 -43.197  46.137  0.00  0.00    +0.000 HD
ENDBRANCH  13  18
BRANCH   3  20
ATOM     20  C   UNL     1      51.127 -48.644  46.718  0.00  0.00    +0.000 C 
ATOM     21  C   UNL     1      50.150 -48.352  47.862  0.00  0.00    +0.000 C 
BRANCH  21  25
ATOM     22  C   UNL     1      49.188 -46.646  49.544  0.00  0.00    +0.000 A 
ATOM     23  C   UNL     1      48.196 -46.360  50.737  0.00  0.00    +0.000 A 
ATOM     24  C   UNL     1      50.117 -45.512  48.942  0.00  0.00    +0.000 C 
ATOM     25  C   UNL     1      49.278 -48.072  48.959  0.00  0.00    +0.000 A 
ATOM     26  C   UNL     1      47.927 -45.016  51.452  0.00  0.00    +0.000 C 
ATOM     27  C   UNL     1      49.811 -44.314  49.731  0.00  0.00    +0.000 C 
ATOM     28  C   UNL     1      48.846 -44.064  50.857  0.00  0.00    +0.000 C 
ATOM     29  C   UNL     1      47.547 -47.561  51.147  0.00  0.00    +0.000 A 
ATOM     30  C   UNL     1      48.494 -49.218  49.499  0.00  0.00    +0.000 A 
ATOM     31  C   UNL     1      49.739 -45.260  47.462  0.00  0.00    +0.000 C 
ATOM     32  C   UNL     1      51.602 -45.885  49.140  0.00  0.00    +0.000 C 
ATOM     33  C   UNL     1      47.737 -48.902  50.501  0.00  0.00    +0.000 A 
ATOM     34  C   UNL     1      46.466 -44.604  51.330  0.00  0.00    +0.000 C 
ATOM     35  C   UNL     1      48.419 -50.596  48.910  0.00  0.00    +0.000 C 
BRANCH  26  36
ATOM     36  O   UNL     1      48.205 -45.148  52.822  0.00  0.00    +0.000 OA
ATOM     37  H   UNL     1      47.409 -45.621  53.128  0.00  0.00    +0.000 HD
ENDBRANCH  26  36
ENDBRANCH  21  25
ENDBRANCH   3  20
TORSDOF 5
ENDMDL
MODEL 6
REMARK VINA RESULT:      -6.6      2.107      8.307
REMARK  Name = 44234954_SipholenolL.pdbqt.pdb
REMARK  5 active torsions:
REMARK  status: ('A' for Active; 'I' for Inactive)
REMARK    1  A    between atoms: C_3  and  C_20
REMARK    2  A    between atoms: C_4  and  O_16
REMARK    3  A    between atoms: C_13  and  O_18
REMARK    4  A    between atoms: C_21  and  C_25
REMARK    5  A    between atoms: C_26  and  O_36
REMARK                            x       y       z     vdW  Elec       q    Type
REMARK                         _______ _______ _______ _____ _____    ______ ____
ROOT
ATOM      1  O   UNL     1      45.898 -51.489  52.204  0.00  0.00    +0.000 OA
ATOM      2  C   UNL     1      46.818 -53.528  53.540  0.00  0.00    +0.000 C 
ATOM      3  C   UNL     1      46.868 -54.155  54.935  0.00  0.00    +0.000 C 
ATOM      4  C   UNL     1      45.594 -54.263  55.753  0.00  0.00    +0.000 C 
ATOM      5  C   UNL     1      45.868 -52.263  53.368  0.00  0.00    +0.000 C 
ATOM      6  C   UNL     1      48.120 -52.951  53.172  0.00  0.00    +0.000 C 
ATOM      7  C   UNL     1      44.670 -53.238  55.305  0.00  0.00    +0.000 C 
ATOM      8  C   UNL     1      44.725 -52.243  54.193  0.00  0.00    +0.000 C 
ATOM      9  C   UNL     1      46.400 -54.599  52.499  0.00  0.00    +0.000 C 
ATOM     10  C   UNL     1      48.721 -51.724  52.534  0.00  0.00    +0.000 C 
ATOM     11  C   UNL     1      46.673 -50.236  52.182  0.00  0.00    +0.000 C 
ATOM     12  C   UNL     1      45.019 -55.676  55.734  0.00  0.00    +0.000 C 
ATOM     13  C   UNL     1      48.209 -50.501  52.043  0.00  0.00    +0.000 C 
ATOM     14  C   UNL     1      46.180 -49.462  50.929  0.00  0.00    +0.000 C 
ATOM     15  C   UNL     1      46.424 -49.401  53.476  0.00  0.00    +0.000 C 
ENDROOT
BRANCH   4  16
ATOM     16  O   UNL     1      45.902 -54.013  57.109  0.00  0.00    +0.000 OA
ATOM     17  H   UNL     1      46.875 -54.075  57.089  0.00  0.00    +0.000 HD
ENDBRANCH   4  16
BRANCH  13  18
ATOM     18  O   UNL     1      49.098 -49.501  51.666  0.00  0.00    +0.000 OA
ATOM     19  H   UNL     1      49.913 -49.509  52.198  0.00  0.00    +0.000 HD
ENDBRANCH  13  18
BRANCH   3  20
ATOM     20  C   UNL     1      48.093 -54.697  55.456  0.00  0.00    +0.000 C 
ATOM     21  C   UNL     1      49.408 -55.243  56.021  0.00  0.00    +0.000 C 
BRANCH  21  25
ATOM     22  C   UNL     1      51.896 -55.851  55.691  0.00  0.00    +0.000 A 
ATOM     23  C   UNL     1      53.248 -56.343  56.338  0.00  0.00    +0.000 A 
ATOM     24  C   UNL     1      51.784 -55.519  54.146  0.00  0.00    +0.000 C 
ATOM     25  C   UNL     1      50.639 -55.711  56.578  0.00  0.00    +0.000 A 
ATOM     26  C   UNL     1      54.621 -56.529  55.652  0.00  0.00    +0.000 C 
ATOM     27  C   UNL     1      53.120 -55.784  53.604  0.00  0.00    +0.000 C 
ATOM     28  C   UNL     1      54.401 -56.240  54.249  0.00  0.00    +0.000 C 
ATOM     29  C   UNL     1      53.059 -56.658  57.716  0.00  0.00    +0.000 A 
ATOM     30  C   UNL     1      50.628 -56.060  58.025  0.00  0.00    +0.000 A 
ATOM     31  C   UNL     1      51.444 -54.020  53.958  0.00  0.00    +0.000 C 
ATOM     32  C   UNL     1      50.767 -56.466  53.474  0.00  0.00    +0.000 C 
ATOM     33  C   UNL     1      51.768 -56.492  58.463  0.00  0.00    +0.000 A 
ATOM     34  C   UNL     1      55.686 -55.650  56.293  0.00  0.00    +0.000 C 
ATOM     35  C   UNL     1      49.498 -55.828  58.985  0.00  0.00    +0.000 C 
BRANCH  26  36
ATOM     36  O   UNL     1      55.043 -57.861  55.799  0.00  0.00    +0.000 OA
ATOM     37  H   UNL     1      54.439 -58.316  55.184  0.00  0.00    +0.000 HD
ENDBRANCH  26  36
ENDBRANCH  21  25
ENDBRANCH   3  20
TORSDOF 5
ENDMDL
MODEL 7
REMARK VINA RESULT:      -6.5      9.637     15.448
REMARK  Name = 44234954_SipholenolL.pdbqt.pdb
REMARK  5 active torsions:
REMARK  status: ('A' for Active; 'I' for Inactive)
REMARK    1  A    between atoms: C_3  and  C_20
REMARK    2  A    between atoms: C_4  and  O_16
REMARK    3  A    between atoms: C_13  and  O_18
REMARK    4  A    between atoms: C_21  and  C_25
REMARK    5  A    between atoms: C_26  and  O_36
REMARK                            x       y       z     vdW  Elec       q    Type
REMARK                         _______ _______ _______ _____ _____    ______ ____
ROOT
ATOM      1  O   UNL     1      50.739 -41.492  41.845  0.00  0.00    +0.000 OA
ATOM      2  C   UNL     1      49.362 -40.951  43.990  0.00  0.00    +0.000 C 
ATOM      3  C   UNL     1      49.292 -40.008  45.193  0.00  0.00    +0.000 C 
ATOM      4  C   UNL     1      49.447 -38.513  44.982  0.00  0.00    +0.000 C 
ATOM      5  C   UNL     1      50.444 -40.596  42.877  0.00  0.00    +0.000 C 
ATOM      6  C   UNL     1      49.809 -42.293  44.395  0.00  0.00    +0.000 C 
ATOM      7  C   UNL     1      50.205 -38.295  43.763  0.00  0.00    +0.000 C 
ATOM      8  C   UNL     1      50.726 -39.224  42.718  0.00  0.00    +0.000 C 
ATOM      9  C   UNL     1      47.971 -41.038  43.309  0.00  0.00    +0.000 C 
ATOM     10  C   UNL     1      50.737 -43.400  43.964  0.00  0.00    +0.000 C 
ATOM     11  C   UNL     1      51.923 -42.362  41.951  0.00  0.00    +0.000 C 
ATOM     12  C   UNL     1      48.106 -37.786  45.023  0.00  0.00    +0.000 C 
ATOM     13  C   UNL     1      51.678 -43.566  42.921  0.00  0.00    +0.000 C 
ATOM     14  C   UNL     1      52.168 -42.911  40.519  0.00  0.00    +0.000 C 
ATOM     15  C   UNL     1      53.165 -41.561  42.452  0.00  0.00    +0.000 C 
ENDROOT
BRANCH   4  16
ATOM     16  O   UNL     1      50.186 -37.976  46.060  0.00  0.00    +0.000 OA
ATOM     17  H   UNL     1      50.147 -38.717  46.694  0.00  0.00    +0.000 HD
ENDBRANCH   4  16
BRANCH  13  18
ATOM     18  O   UNL     1      52.501 -44.686  42.927  0.00  0.00    +0.000 OA
ATOM     19  H   UNL     1      52.538 -45.124  42.059  0.00  0.00    +0.000 HD
ENDBRANCH  13  18
BRANCH   3  20
ATOM     20  C   UNL     1      49.019 -40.514  46.511  0.00  0.00    +0.000 C 
ATOM     21  C   UNL     1      48.696 -41.038  47.913  0.00  0.00    +0.000 C 
BRANCH  21  25
ATOM     22  C   UNL     1      48.015 -43.015  49.428  0.00  0.00    +0.000 A 
ATOM     23  C   UNL     1      47.659 -43.527  50.877  0.00  0.00    +0.000 A 
ATOM     24  C   UNL     1      48.022 -43.990  48.177  0.00  0.00    +0.000 C 
ATOM     25  C   UNL     1      48.345 -41.522  49.212  0.00  0.00    +0.000 A 
ATOM     26  C   UNL     1      47.325 -44.969  51.324  0.00  0.00    +0.000 C 
ATOM     27  C   UNL     1      47.641 -45.299  48.716  0.00  0.00    +0.000 C 
ATOM     28  C   UNL     1      47.319 -45.764  50.111  0.00  0.00    +0.000 C 
ATOM     29  C   UNL     1      47.637 -42.441  51.800  0.00  0.00    +0.000 A 
ATOM     30  C   UNL     1      48.303 -40.518  50.311  0.00  0.00    +0.000 A 
ATOM     31  C   UNL     1      49.451 -44.074  47.590  0.00  0.00    +0.000 C 
ATOM     32  C   UNL     1      46.962 -43.537  47.150  0.00  0.00    +0.000 C 
ATOM     33  C   UNL     1      47.963 -41.017  51.456  0.00  0.00    +0.000 A 
ATOM     34  C   UNL     1      48.311 -45.468  52.371  0.00  0.00    +0.000 C 
ATOM     35  C   UNL     1      48.736 -39.084  50.218  0.00  0.00    +0.000 C 
BRANCH  26  36
ATOM     36  O   UNL     1      46.049 -44.996  51.912  0.00  0.00    +0.000 OA
ATOM     37  H   UNL     1      45.523 -45.392  51.194  0.00  0.00    +0.000 HD
ENDBRANCH  26  36
ENDBRANCH  21  25
ENDBRANCH   3  20
TORSDOF 5
ENDMDL
MODEL 8
REMARK VINA RESULT:      -6.5      6.472      9.357
REMARK  Name = 44234954_SipholenolL.pdbqt.pdb
REMARK  5 active torsions:
REMARK  status: ('A' for Active; 'I' for Inactive)
REMARK    1  A    between atoms: C_3  and  C_20
REMARK    2  A    between atoms: C_4  and  O_16
REMARK    3  A    between atoms: C_13  and  O_18
REMARK    4  A    between atoms: C_21  and  C_25
REMARK    5  A    between atoms: C_26  and  O_36
REMARK                            x       y       z     vdW  Elec       q    Type
REMARK                         _______ _______ _______ _____ _____    ______ ____
ROOT
ATOM      1  O   UNL     1      51.320 -45.785  49.735  0.00  0.00    +0.000 OA
ATOM      2  C   UNL     1      48.766 -46.092  50.154  0.00  0.00    +0.000 C 
ATOM      3  C   UNL     1      47.664 -47.148  50.269  0.00  0.00    +0.000 C 
ATOM      4  C   UNL     1      47.897 -48.384  51.118  0.00  0.00    +0.000 C 
ATOM      5  C   UNL     1      50.258 -46.638  50.050  0.00  0.00    +0.000 C 
ATOM      6  C   UNL     1      48.653 -45.344  48.893  0.00  0.00    +0.000 C 
ATOM      7  C   UNL     1      49.326 -48.623  51.204  0.00  0.00    +0.000 C 
ATOM      8  C   UNL     1      50.510 -47.855  50.716  0.00  0.00    +0.000 C 
ATOM      9  C   UNL     1      48.686 -45.117  51.358  0.00  0.00    +0.000 C 
ATOM     10  C   UNL     1      49.502 -44.809  47.767  0.00  0.00    +0.000 C 
ATOM     11  C   UNL     1      51.818 -45.720  48.351  0.00  0.00    +0.000 C 
ATOM     12  C   UNL     1      47.195 -48.291  52.470  0.00  0.00    +0.000 C 
ATOM     13  C   UNL     1      50.873 -44.879  47.429  0.00  0.00    +0.000 C 
ATOM     14  C   UNL     1      53.198 -45.013  48.436  0.00  0.00    +0.000 C 
ATOM     15  C   UNL     1      51.970 -47.148  47.742  0.00  0.00    +0.000 C 
ENDROOT
BRANCH   4  16
ATOM     16  O   UNL     1      47.304 -49.494  50.476  0.00  0.00    +0.000 OA
ATOM     17  H   UNL     1      47.830 -49.532  49.655  0.00  0.00    +0.000 HD
ENDBRANCH   4  16
BRANCH  13  18
ATOM     18  O   UNL     1      51.288 -44.397  46.193  0.00  0.00    +0.000 OA
ATOM     19  H   UNL     1      52.151 -43.950  46.239  0.00  0.00    +0.000 HD
ENDBRANCH  13  18
BRANCH   3  20
ATOM     20  C   UNL     1      46.389 -46.953  49.634  0.00  0.00    +0.000 C 
ATOM     21  C   UNL     1      45.020 -46.727  48.984  0.00  0.00    +0.000 C 
BRANCH  21  25
ATOM     22  C   UNL     1      42.448 -46.834  49.181  0.00  0.00    +0.000 A 
ATOM     23  C   UNL     1      41.044 -46.518  48.533  0.00  0.00    +0.000 A 
ATOM     24  C   UNL     1      42.574 -47.533  50.598  0.00  0.00    +0.000 C 
ATOM     25  C   UNL     1      43.736 -46.475  48.408  0.00  0.00    +0.000 A 
ATOM     26  C   UNL     1      39.640 -46.765  49.132  0.00  0.00    +0.000 C 
ATOM     27  C   UNL     1      41.193 -47.762  51.031  0.00  0.00    +0.000 C 
ATOM     28  C   UNL     1      39.867 -47.437  50.397  0.00  0.00    +0.000 C 
ATOM     29  C   UNL     1      41.207 -45.973  47.226  0.00  0.00    +0.000 A 
ATOM     30  C   UNL     1      43.721 -45.874  47.046  0.00  0.00    +0.000 A 
ATOM     31  C   UNL     1      43.270 -46.573  51.593  0.00  0.00    +0.000 C 
ATOM     32  C   UNL     1      43.293 -48.891  50.453  0.00  0.00    +0.000 C 
ATOM     33  C   UNL     1      42.529 -45.687  46.575  0.00  0.00    +0.000 A 
ATOM     34  C   UNL     1      38.858 -45.467  49.266  0.00  0.00    +0.000 C 
ATOM     35  C   UNL     1      44.913 -45.373  46.284  0.00  0.00    +0.000 C 
BRANCH  26  36
ATOM     36  O   UNL     1      38.906 -47.604  48.277  0.00  0.00    +0.000 OA
ATOM     37  H   UNL     1      39.619 -47.981  47.730  0.00  0.00    +0.000 HD
ENDBRANCH  26  36
ENDBRANCH  21  25
ENDBRANCH   3  20
TORSDOF 5
ENDMDL
MODEL 9
REMARK VINA RESULT:      -6.3      8.644     11.784
REMARK  Name = 44234954_SipholenolL.pdbqt.pdb
REMARK  5 active torsions:
REMARK  status: ('A' for Active; 'I' for Inactive)
REMARK    1  A    between atoms: C_3  and  C_20
REMARK    2  A    between atoms: C_4  and  O_16
REMARK    3  A    between atoms: C_13  and  O_18
REMARK    4  A    between atoms: C_21  and  C_25
REMARK    5  A    between atoms: C_26  and  O_36
REMARK                            x       y       z     vdW  Elec       q    Type
REMARK                         _______ _______ _______ _____ _____    ______ ____
ROOT
ATOM      1  O   UNL     1      51.837 -45.449  49.164  0.00  0.00    +0.000 OA
ATOM      2  C   UNL     1      49.370 -44.624  49.008  0.00  0.00    +0.000 C 
ATOM      3  C   UNL     1      47.918 -45.108  48.964  0.00  0.00    +0.000 C 
ATOM      4  C   UNL     1      47.448 -46.155  49.956  0.00  0.00    +0.000 C 
ATOM      5  C   UNL     1      50.474 -45.732  49.303  0.00  0.00    +0.000 C 
ATOM      6  C   UNL     1      49.806 -44.138  47.690  0.00  0.00    +0.000 C 
ATOM      7  C   UNL     1      48.597 -46.927  50.392  0.00  0.00    +0.000 C 
ATOM      8  C   UNL     1      50.060 -46.802  50.122  0.00  0.00    +0.000 C 
ATOM      9  C   UNL     1      49.515 -43.496  50.063  0.00  0.00    +0.000 C 
ATOM     10  C   UNL     1      50.979 -44.205  46.745  0.00  0.00    +0.000 C 
ATOM     11  C   UNL     1      52.541 -45.844  47.932  0.00  0.00    +0.000 C 
ATOM     12  C   UNL     1      46.637 -45.543  51.094  0.00  0.00    +0.000 C 
ATOM     13  C   UNL     1      52.222 -44.879  46.742  0.00  0.00    +0.000 C 
ATOM     14  C   UNL     1      54.054 -45.748  48.267  0.00  0.00    +0.000 C 
ATOM     15  C   UNL     1      52.163 -47.299  47.512  0.00  0.00    +0.000 C 
ENDROOT
BRANCH   4  16
ATOM     16  O   UNL     1      46.553 -47.032  49.302  0.00  0.00    +0.000 OA
ATOM     17  H   UNL     1      46.536 -47.777  49.931  0.00  0.00    +0.000 HD
ENDBRANCH   4  16
BRANCH  13  18
ATOM     18  O   UNL     1      53.007 -44.840  45.596  0.00  0.00    +0.000 OA
ATOM     19  H   UNL     1      52.690 -44.184  44.950  0.00  0.00    +0.000 HD
ENDBRANCH  13  18
BRANCH   3  20
ATOM     20  C   UNL     1      46.980 -44.538  48.035  0.00  0.00    +0.000 C 
ATOM     21  C   UNL     1      45.954 -43.945  47.065  0.00  0.00    +0.000 C 
BRANCH  21  25
ATOM     22  C   UNL     1      45.267 -42.139  45.353  0.00  0.00    +0.000 A 
ATOM     23  C   UNL     1      44.162 -41.571  44.380  0.00  0.00    +0.000 A 
ATOM     24  C   UNL     1      46.682 -41.440  45.506  0.00  0.00    +0.000 C 
ATOM     25  C   UNL     1      44.961 -43.395  46.196  0.00  0.00    +0.000 A 
ATOM     26  C   UNL     1      44.260 -40.353  43.433  0.00  0.00    +0.000 C 
ATOM     27  C   UNL     1      46.631 -40.281  44.609  0.00  0.00    +0.000 C 
ATOM     28  C   UNL     1      45.565 -39.769  43.678  0.00  0.00    +0.000 C 
ATOM     29  C   UNL     1      42.958 -42.326  44.495  0.00  0.00    +0.000 A 
ATOM     30  C   UNL     1      43.640 -44.084  46.169  0.00  0.00    +0.000 A 
ATOM     31  C   UNL     1      47.795 -42.405  45.032  0.00  0.00    +0.000 C 
ATOM     32  C   UNL     1      46.873 -40.949  46.957  0.00  0.00    +0.000 C 
ATOM     33  C   UNL     1      42.782 -43.528  45.376  0.00  0.00    +0.000 A 
ATOM     34  C   UNL     1      44.041 -40.759  41.982  0.00  0.00    +0.000 C 
ATOM     35  C   UNL     1      43.303 -45.379  46.848  0.00  0.00    +0.000 C 
BRANCH  26  36
ATOM     36  O   UNL     1      43.258 -39.423  43.757  0.00  0.00    +0.000 OA
ATOM     37  H   UNL     1      43.477 -39.233  44.688  0.00  0.00    +0.000 HD
ENDBRANCH  26  36
ENDBRANCH  21  25
ENDBRANCH   3  20
TORSDOF 5
ENDMDL
