MODEL 1
REMARK VINA RESULT:      -6.2      0.000      0.000
REMARK  Name = 442793_6gingerol.pdbqt.pdb
REMARK  7 active torsions:
REMARK  status: ('A' for Active; 'I' for Inactive)
REMARK    1  A    between atoms: C_1  and  C_3
REMARK    2  A    between atoms: C_5  and  O_6
REMARK    3  A    between atoms: C_5  and  C_8
REMARK    4  A    between atoms: C_9  and  C_10
REMARK    5  A    between atoms: C_13  and  C_14
REMARK    6  A    between atoms: C_17  and  O_20
REMARK    7  A    between atoms: C_19  and  O_22
REMARK                            x       y       z     vdW  Elec       q    Type
REMARK                         _______ _______ _______ _____ _____    ______ ____
ROOT
ATOM      1  C   UNL     1      48.379 -43.577  51.162  0.00  0.00    +0.000 C 
ATOM      2  C   UNL     1      48.766 -42.537  50.104  0.00  0.00    +0.000 C 
ENDROOT
BRANCH   2   3
ATOM      3  C   UNL     1      49.125 -41.572  49.120  0.00  0.00    +0.000 A 
ATOM      4  C   UNL     1      49.563 -40.309  49.514  0.00  0.00    +0.000 A 
ATOM      5  C   UNL     1      49.038 -41.894  47.768  0.00  0.00    +0.000 A 
ATOM      6  C   UNL     1      49.919 -39.352  48.559  0.00  0.00    +0.000 A 
ATOM      7  C   UNL     1      49.389 -40.950  46.807  0.00  0.00    +0.000 A 
ATOM      8  C   UNL     1      49.826 -39.687  47.205  0.00  0.00    +0.000 A 
BRANCH   6   9
ATOM      9  O   UNL     1      50.359 -38.086  48.859  0.00  0.00    +0.000 OA
ATOM     10  C   UNL     1      49.368 -37.182  49.272  0.00  0.00    +0.000 C 
ENDBRANCH   6   9
BRANCH   8  11
ATOM     11  O   UNL     1      50.170 -38.765  46.256  0.00  0.00    +0.000 OA
ATOM     12  H   UNL     1      49.629 -37.963  46.389  0.00  0.00    +0.000 HD
ENDBRANCH   8  11
ENDBRANCH   2   3
BRANCH   1  14
ATOM     13  O   UNL     1      47.979 -44.254  53.337  0.00  0.00    +0.000 OA
ATOM     14  C   UNL     1      48.015 -44.557  52.154  0.00  0.00    +0.000 C 
ATOM     15  C   UNL     1      47.697 -45.896  51.742  0.00  0.00    +0.000 C 
ATOM     16  C   UNL     1      47.386 -47.214  51.342  0.00  0.00    +0.000 C 
BRANCH  16  17
ATOM     17  O   UNL     1      47.185 -47.437  50.001  0.00  0.00    +0.000 OA
ATOM     18  H   UNL     1      47.668 -46.795  49.451  0.00  0.00    +0.000 HD
ENDBRANCH  16  17
BRANCH  16  19
ATOM     19  C   UNL     1      47.274 -48.302  52.242  0.00  0.00    +0.000 C 
ATOM     20  C   UNL     1      47.163 -49.477  53.219  0.00  0.00    +0.000 C 
BRANCH  20  21
ATOM     21  C   UNL     1      47.059 -50.652  54.195  0.00  0.00    +0.000 C 
ATOM     22  C   UNL     1      46.956 -51.828  55.172  0.00  0.00    +0.000 C 
ATOM     23  C   UNL     1      46.860 -53.002  56.152  0.00  0.00    +0.000 C 
ENDBRANCH  20  21
ENDBRANCH  16  19
ENDBRANCH   1  14
TORSDOF 7
ENDMDL
MODEL 2
REMARK VINA RESULT:      -6.1      2.075      2.615
REMARK  Name = 442793_6gingerol.pdbqt.pdb
REMARK  7 active torsions:
REMARK  status: ('A' for Active; 'I' for Inactive)
REMARK    1  A    between atoms: C_1  and  C_3
REMARK    2  A    between atoms: C_5  and  O_6
REMARK    3  A    between atoms: C_5  and  C_8
REMARK    4  A    between atoms: C_9  and  C_10
REMARK    5  A    between atoms: C_13  and  C_14
REMARK    6  A    between atoms: C_17  and  O_20
REMARK    7  A    between atoms: C_19  and  O_22
REMARK                            x       y       z     vdW  Elec       q    Type
REMARK                         _______ _______ _______ _____ _____    ______ ____
ROOT
ATOM      1  C   UNL     1      48.214 -42.545  51.504  0.00  0.00    +0.000 C 
ATOM      2  C   UNL     1      48.370 -41.150  50.885  0.00  0.00    +0.000 C 
ENDROOT
BRANCH   2   3
ATOM      3  C   UNL     1      48.517 -39.856  50.309  0.00  0.00    +0.000 A 
ATOM      4  C   UNL     1      48.044 -38.736  50.990  0.00  0.00    +0.000 A 
ATOM      5  C   UNL     1      49.131 -39.714  49.068  0.00  0.00    +0.000 A 
ATOM      6  C   UNL     1      48.180 -37.459  50.437  0.00  0.00    +0.000 A 
ATOM      7  C   UNL     1      49.273 -38.448  48.506  0.00  0.00    +0.000 A 
ATOM      8  C   UNL     1      48.798 -37.330  49.190  0.00  0.00    +0.000 A 
BRANCH   6   9
ATOM      9  O   UNL     1      47.742 -36.304  51.039  0.00  0.00    +0.000 OA
ATOM     10  C   UNL     1      46.355 -36.207  51.227  0.00  0.00    +0.000 C 
ENDBRANCH   6   9
BRANCH   8  11
ATOM     11  O   UNL     1      48.941 -36.090  48.632  0.00  0.00    +0.000 OA
ATOM     12  H   UNL     1      48.056 -35.699  48.509  0.00  0.00    +0.000 HD
ENDBRANCH   8  11
ENDBRANCH   2   3
BRANCH   1  14
ATOM     13  O   UNL     1      47.886 -43.983  53.285  0.00  0.00    +0.000 OA
ATOM     14  C   UNL     1      48.070 -43.856  52.084  0.00  0.00    +0.000 C 
ATOM     15  C   UNL     1      48.148 -45.015  51.239  0.00  0.00    +0.000 C 
ATOM     16  C   UNL     1      48.226 -46.157  50.412  0.00  0.00    +0.000 C 
BRANCH  16  17
ATOM     17  O   UNL     1      48.171 -45.959  49.054  0.00  0.00    +0.000 OA
ATOM     18  H   UNL     1      48.721 -46.602  48.572  0.00  0.00    +0.000 HD
ENDBRANCH  16  17
BRANCH  16  19
ATOM     19  C   UNL     1      48.359 -47.477  50.909  0.00  0.00    +0.000 C 
ATOM     20  C   UNL     1      48.493 -48.907  51.444  0.00  0.00    +0.000 C 
BRANCH  20  21
ATOM     21  C   UNL     1      48.620 -50.336  51.979  0.00  0.00    +0.000 C 
ATOM     22  C   UNL     1      48.748 -51.765  52.516  0.00  0.00    +0.000 C 
ATOM     23  C   UNL     1      48.876 -53.192  53.060  0.00  0.00    +0.000 C 
ENDBRANCH  20  21
ENDBRANCH  16  19
ENDBRANCH   1  14
TORSDOF 7
ENDMDL
MODEL 3
REMARK VINA RESULT:      -5.9      2.733     10.923
REMARK  Name = 442793_6gingerol.pdbqt.pdb
REMARK  7 active torsions:
REMARK  status: ('A' for Active; 'I' for Inactive)
REMARK    1  A    between atoms: C_1  and  C_3
REMARK    2  A    between atoms: C_5  and  O_6
REMARK    3  A    between atoms: C_5  and  C_8
REMARK    4  A    between atoms: C_9  and  C_10
REMARK    5  A    between atoms: C_13  and  C_14
REMARK    6  A    between atoms: C_17  and  O_20
REMARK    7  A    between atoms: C_19  and  O_22
REMARK                            x       y       z     vdW  Elec       q    Type
REMARK                         _______ _______ _______ _____ _____    ______ ____
ROOT
ATOM      1  C   UNL     1      48.544 -42.688  48.923  0.00  0.00    +0.000 C 
ATOM      2  C   UNL     1      48.873 -44.084  49.467  0.00  0.00    +0.000 C 
ENDROOT
BRANCH   2   3
ATOM      3  C   UNL     1      49.175 -45.380  49.974  0.00  0.00    +0.000 A 
ATOM      4  C   UNL     1      48.276 -46.019  50.825  0.00  0.00    +0.000 A 
ATOM      5  C   UNL     1      50.368 -46.004  49.618  0.00  0.00    +0.000 A 
ATOM      6  C   UNL     1      48.559 -47.291  51.331  0.00  0.00    +0.000 A 
ATOM      7  C   UNL     1      50.662 -47.271  50.114  0.00  0.00    +0.000 A 
ATOM      8  C   UNL     1      49.760 -47.906  50.966  0.00  0.00    +0.000 A 
BRANCH   6   9
ATOM      9  O   UNL     1      47.731 -47.991  52.175  0.00  0.00    +0.000 OA
ATOM     10  C   UNL     1      46.438 -47.467  52.327  0.00  0.00    +0.000 C 
ENDBRANCH   6   9
BRANCH   8  11
ATOM     11  O   UNL     1      50.056 -49.151  51.451  0.00  0.00    +0.000 OA
ATOM     12  H   UNL     1      51.015 -49.200  51.620  0.00  0.00    +0.000 HD
ENDBRANCH   8  11
ENDBRANCH   2   3
BRANCH   1  14
ATOM     13  O   UNL     1      47.248 -41.204  47.713  0.00  0.00    +0.000 OA
ATOM     14  C   UNL     1      48.233 -41.376  48.414  0.00  0.00    +0.000 C 
ATOM     15  C   UNL     1      49.093 -40.271  48.736  0.00  0.00    +0.000 C 
ATOM     16  C   UNL     1      49.936 -39.182  49.047  0.00  0.00    +0.000 C 
BRANCH  16  17
ATOM     17  O   UNL     1      50.868 -39.368  50.039  0.00  0.00    +0.000 OA
ATOM     18  H   UNL     1      50.723 -40.201  50.520  0.00  0.00    +0.000 HD
ENDBRANCH  16  17
BRANCH  16  19
ATOM     19  C   UNL     1      49.869 -37.927  48.394  0.00  0.00    +0.000 C 
ATOM     20  C   UNL     1      49.787 -36.569  47.688  0.00  0.00    +0.000 C 
BRANCH  20  21
ATOM     21  C   UNL     1      49.699 -35.213  46.982  0.00  0.00    +0.000 C 
ATOM     22  C   UNL     1      49.610 -33.857  46.273  0.00  0.00    +0.000 C 
ATOM     23  C   UNL     1      49.516 -32.504  45.561  0.00  0.00    +0.000 C 
ENDBRANCH  20  21
ENDBRANCH  16  19
ENDBRANCH   1  14
TORSDOF 7
ENDMDL
MODEL 4
REMARK VINA RESULT:      -5.8      0.746      2.009
REMARK  Name = 442793_6gingerol.pdbqt.pdb
REMARK  7 active torsions:
REMARK  status: ('A' for Active; 'I' for Inactive)
REMARK    1  A    between atoms: C_1  and  C_3
REMARK    2  A    between atoms: C_5  and  O_6
REMARK    3  A    between atoms: C_5  and  C_8
REMARK    4  A    between atoms: C_9  and  C_10
REMARK    5  A    between atoms: C_13  and  C_14
REMARK    6  A    between atoms: C_17  and  O_20
REMARK    7  A    between atoms: C_19  and  O_22
REMARK                            x       y       z     vdW  Elec       q    Type
REMARK                         _______ _______ _______ _____ _____    ______ ____
ROOT
ATOM      1  C   UNL     1      48.320 -43.310  51.279  0.00  0.00    +0.000 C 
ATOM      2  C   UNL     1      48.705 -42.242  50.248  0.00  0.00    +0.000 C 
ENDROOT
BRANCH   2   3
ATOM      3  C   UNL     1      49.061 -41.252  49.288  0.00  0.00    +0.000 A 
ATOM      4  C   UNL     1      49.311 -41.624  47.968  0.00  0.00    +0.000 A 
ATOM      5  C   UNL     1      49.159 -39.918  49.671  0.00  0.00    +0.000 A 
ATOM      6  C   UNL     1      49.662 -40.664  47.015  0.00  0.00    +0.000 A 
ATOM      7  C   UNL     1      49.508 -38.951  48.732  0.00  0.00    +0.000 A 
ATOM      8  C   UNL     1      49.758 -39.327  47.413  0.00  0.00    +0.000 A 
BRANCH   6   9
ATOM      9  O   UNL     1      49.925 -40.942  45.696  0.00  0.00    +0.000 OA
ATOM     10  C   UNL     1      49.485 -42.194  45.241  0.00  0.00    +0.000 C 
ENDBRANCH   6   9
BRANCH   8  11
ATOM     11  O   UNL     1      50.100 -38.372  46.495  0.00  0.00    +0.000 OA
ATOM     12  H   UNL     1      51.064 -38.405  46.355  0.00  0.00    +0.000 HD
ENDBRANCH   8  11
ENDBRANCH   2   3
BRANCH   1  14
ATOM     13  O   UNL     1      47.936 -44.046  53.437  0.00  0.00    +0.000 OA
ATOM     14  C   UNL     1      47.957 -44.316  52.246  0.00  0.00    +0.000 C 
ATOM     15  C   UNL     1      47.622 -45.639  51.798  0.00  0.00    +0.000 C 
ATOM     16  C   UNL     1      47.294 -46.941  51.363  0.00  0.00    +0.000 C 
BRANCH  16  17
ATOM     17  O   UNL     1      47.078 -47.123  50.019  0.00  0.00    +0.000 OA
ATOM     18  H   UNL     1      46.160 -47.385  49.832  0.00  0.00    +0.000 HD
ENDBRANCH  16  17
BRANCH  16  19
ATOM     19  C   UNL     1      47.181 -48.053  52.233  0.00  0.00    +0.000 C 
ATOM     20  C   UNL     1      47.063 -49.263  53.167  0.00  0.00    +0.000 C 
BRANCH  20  21
ATOM     21  C   UNL     1      46.947 -50.475  54.095  0.00  0.00    +0.000 C 
ATOM     22  C   UNL     1      46.832 -51.689  55.023  0.00  0.00    +0.000 C 
ATOM     23  C   UNL     1      46.721 -52.907  55.946  0.00  0.00    +0.000 C 
ENDBRANCH  20  21
ENDBRANCH  16  19
ENDBRANCH   1  14
TORSDOF 7
ENDMDL
MODEL 5
REMARK VINA RESULT:      -5.8      3.542     11.839
REMARK  Name = 442793_6gingerol.pdbqt.pdb
REMARK  7 active torsions:
REMARK  status: ('A' for Active; 'I' for Inactive)
REMARK    1  A    between atoms: C_1  and  C_3
REMARK    2  A    between atoms: C_5  and  O_6
REMARK    3  A    between atoms: C_5  and  C_8
REMARK    4  A    between atoms: C_9  and  C_10
REMARK    5  A    between atoms: C_13  and  C_14
REMARK    6  A    between atoms: C_17  and  O_20
REMARK    7  A    between atoms: C_19  and  O_22
REMARK                            x       y       z     vdW  Elec       q    Type
REMARK                         _______ _______ _______ _____ _____    ______ ____
ROOT
ATOM      1  C   UNL     1      49.417 -40.444  48.231  0.00  0.00    +0.000 C 
ATOM      2  C   UNL     1      49.083 -41.558  49.232  0.00  0.00    +0.000 C 
ENDROOT
BRANCH   2   3
ATOM      3  C   UNL     1      48.772 -42.590  50.162  0.00  0.00    +0.000 A 
ATOM      4  C   UNL     1      48.936 -43.925  49.797  0.00  0.00    +0.000 A 
ATOM      5  C   UNL     1      48.306 -42.262  51.432  0.00  0.00    +0.000 A 
ATOM      6  C   UNL     1      48.633 -44.949  50.699  0.00  0.00    +0.000 A 
ATOM      7  C   UNL     1      48.001 -43.272  52.340  0.00  0.00    +0.000 A 
ATOM      8  C   UNL     1      48.166 -44.607  51.971  0.00  0.00    +0.000 A 
BRANCH   6   9
ATOM      9  O   UNL     1      48.764 -46.288  50.422  0.00  0.00    +0.000 OA
ATOM     10  C   UNL     1      50.066 -46.722  50.129  0.00  0.00    +0.000 C 
ENDBRANCH   6   9
BRANCH   8  11
ATOM     11  O   UNL     1      47.865 -45.594  52.868  0.00  0.00    +0.000 OA
ATOM     12  H   UNL     1      46.969 -45.929  52.675  0.00  0.00    +0.000 HD
ENDBRANCH   8  11
ENDBRANCH   2   3
BRANCH   1  14
ATOM     13  O   UNL     1      50.307 -39.655  46.247  0.00  0.00    +0.000 OA
ATOM     14  C   UNL     1      49.727 -39.396  47.291  0.00  0.00    +0.000 C 
ATOM     15  C   UNL     1      49.352 -38.043  47.593  0.00  0.00    +0.000 C 
ATOM     16  C   UNL     1      48.987 -36.710  47.885  0.00  0.00    +0.000 C 
BRANCH  16  17
ATOM     17  O   UNL     1      48.117 -36.508  48.929  0.00  0.00    +0.000 OA
ATOM     18  H   UNL     1      47.453 -37.216  48.989  0.00  0.00    +0.000 HD
ENDBRANCH  16  17
BRANCH  16  19
ATOM     19  C   UNL     1      49.469 -35.589  47.166  0.00  0.00    +0.000 C 
ATOM     20  C   UNL     1      49.985 -34.379  46.381  0.00  0.00    +0.000 C 
BRANCH  20  21
ATOM     21  C   UNL     1      50.499 -33.172  45.591  0.00  0.00    +0.000 C 
ATOM     22  C   UNL     1      51.014 -31.964  44.801  0.00  0.00    +0.000 C 
ATOM     23  C   UNL     1      51.536 -30.756  44.016  0.00  0.00    +0.000 C 
ENDBRANCH  20  21
ENDBRANCH  16  19
ENDBRANCH   1  14
TORSDOF 7
ENDMDL
MODEL 6
REMARK VINA RESULT:      -5.6      5.958     13.598
REMARK  Name = 442793_6gingerol.pdbqt.pdb
REMARK  7 active torsions:
REMARK  status: ('A' for Active; 'I' for Inactive)
REMARK    1  A    between atoms: C_1  and  C_3
REMARK    2  A    between atoms: C_5  and  O_6
REMARK    3  A    between atoms: C_5  and  C_8
REMARK    4  A    between atoms: C_9  and  C_10
REMARK    5  A    between atoms: C_13  and  C_14
REMARK    6  A    between atoms: C_17  and  O_20
REMARK    7  A    between atoms: C_19  and  O_22
REMARK                            x       y       z     vdW  Elec       q    Type
REMARK                         _______ _______ _______ _____ _____    ______ ____
ROOT
ATOM      1  C   UNL     1      47.327 -52.716  53.962  0.00  0.00    +0.000 C 
ATOM      2  C   UNL     1      46.516 -53.330  55.109  0.00  0.00    +0.000 C 
ENDROOT
BRANCH   2   3
ATOM      3  C   UNL     1      45.765 -53.902  56.176  0.00  0.00    +0.000 A 
ATOM      4  C   UNL     1      46.414 -54.308  57.341  0.00  0.00    +0.000 A 
ATOM      5  C   UNL     1      44.387 -54.053  56.052  0.00  0.00    +0.000 A 
ATOM      6  C   UNL     1      45.691 -54.871  58.396  0.00  0.00    +0.000 A 
ATOM      7  C   UNL     1      43.654 -54.613  57.095  0.00  0.00    +0.000 A 
ATOM      8  C   UNL     1      44.307 -55.018  58.259  0.00  0.00    +0.000 A 
BRANCH   6   9
ATOM      9  O   UNL     1      46.249 -55.298  59.577  0.00  0.00    +0.000 OA
ATOM     10  C   UNL     1      47.651 -55.338  59.604  0.00  0.00    +0.000 C 
ENDBRANCH   6   9
BRANCH   8  11
ATOM     11  O   UNL     1      43.582 -55.567  59.280  0.00  0.00    +0.000 OA
ATOM     12  H   UNL     1      43.308 -54.853  59.886  0.00  0.00    +0.000 HD
ENDBRANCH   8  11
ENDBRANCH   2   3
BRANCH   1  14
ATOM     13  O   UNL     1      48.696 -52.858  52.103  0.00  0.00    +0.000 OA
ATOM     14  C   UNL     1      48.092 -52.139  52.885  0.00  0.00    +0.000 C 
ATOM     15  C   UNL     1      48.141 -50.711  52.739  0.00  0.00    +0.000 C 
ATOM     16  C   UNL     1      48.195 -49.307  52.593  0.00  0.00    +0.000 C 
BRANCH  16  17
ATOM     17  O   UNL     1      47.302 -48.561  53.323  0.00  0.00    +0.000 OA
ATOM     18  H   UNL     1      47.158 -47.683  52.930  0.00  0.00    +0.000 HD
ENDBRANCH  16  17
BRANCH  16  19
ATOM     19  C   UNL     1      49.113 -48.641  51.745  0.00  0.00    +0.000 C 
ATOM     20  C   UNL     1      50.102 -47.912  50.829  0.00  0.00    +0.000 C 
BRANCH  20  21
ATOM     21  C   UNL     1      51.088 -47.178  49.915  0.00  0.00    +0.000 C 
ATOM     22  C   UNL     1      52.072 -46.443  48.999  0.00  0.00    +0.000 C 
ATOM     23  C   UNL     1      53.050 -45.706  48.079  0.00  0.00    +0.000 C 
ENDBRANCH  20  21
ENDBRANCH  16  19
ENDBRANCH   1  14
TORSDOF 7
ENDMDL
MODEL 7
REMARK VINA RESULT:      -5.6      3.849      6.794
REMARK  Name = 442793_6gingerol.pdbqt.pdb
REMARK  7 active torsions:
REMARK  status: ('A' for Active; 'I' for Inactive)
REMARK    1  A    between atoms: C_1  and  C_3
REMARK    2  A    between atoms: C_5  and  O_6
REMARK    3  A    between atoms: C_5  and  C_8
REMARK    4  A    between atoms: C_9  and  C_10
REMARK    5  A    between atoms: C_13  and  C_14
REMARK    6  A    between atoms: C_17  and  O_20
REMARK    7  A    between atoms: C_19  and  O_22
REMARK                            x       y       z     vdW  Elec       q    Type
REMARK                         _______ _______ _______ _____ _____    ______ ____
ROOT
ATOM      1  C   UNL     1      49.748 -37.731  48.316  0.00  0.00    +0.000 C 
ATOM      2  C   UNL     1      49.612 -36.482  47.437  0.00  0.00    +0.000 C 
ENDROOT
BRANCH   2   3
ATOM      3  C   UNL     1      49.489 -35.323  46.619  0.00  0.00    +0.000 A 
ATOM      4  C   UNL     1      50.463 -34.328  46.674  0.00  0.00    +0.000 A 
ATOM      5  C   UNL     1      48.396 -35.188  45.767  0.00  0.00    +0.000 A 
ATOM      6  C   UNL     1      50.355 -33.184  45.878  0.00  0.00    +0.000 A 
ATOM      7  C   UNL     1      48.276 -34.054  44.968  0.00  0.00    +0.000 A 
ATOM      8  C   UNL     1      49.253 -33.060  45.027  0.00  0.00    +0.000 A 
BRANCH   6   9
ATOM      9  O   UNL     1      51.267 -32.157  45.871  0.00  0.00    +0.000 OA
ATOM     10  C   UNL     1      51.761 -31.776  47.128  0.00  0.00    +0.000 C 
ENDBRANCH   6   9
BRANCH   8  11
ATOM     11  O   UNL     1      49.129 -31.949  44.240  0.00  0.00    +0.000 OA
ATOM     12  H   UNL     1      49.707 -31.248  44.595  0.00  0.00    +0.000 HD
ENDBRANCH   8  11
ENDBRANCH   2   3
BRANCH   1  14
ATOM     13  O   UNL     1      50.795 -39.000  49.942  0.00  0.00    +0.000 OA
ATOM     14  C   UNL     1      49.877 -38.906  49.141  0.00  0.00    +0.000 C 
ATOM     15  C   UNL     1      48.920 -39.969  49.011  0.00  0.00    +0.000 C 
ATOM     16  C   UNL     1      47.982 -41.018  48.886  0.00  0.00    +0.000 C 
BRANCH  16  17
ATOM     17  O   UNL     1      46.836 -40.760  48.174  0.00  0.00    +0.000 OA
ATOM     18  H   UNL     1      46.331 -40.021  48.557  0.00  0.00    +0.000 HD
ENDBRANCH  16  17
BRANCH  16  19
ATOM     19  C   UNL     1      48.165 -42.305  49.450  0.00  0.00    +0.000 C 
ATOM     20  C   UNL     1      48.353 -43.696  50.063  0.00  0.00    +0.000 C 
BRANCH  20  21
ATOM     21  C   UNL     1      48.536 -45.086  50.679  0.00  0.00    +0.000 C 
ATOM     22  C   UNL     1      48.718 -46.478  51.294  0.00  0.00    +0.000 C 
ATOM     23  C   UNL     1      48.900 -47.872  51.902  0.00  0.00    +0.000 C 
ENDBRANCH  20  21
ENDBRANCH  16  19
ENDBRANCH   1  14
TORSDOF 7
ENDMDL
MODEL 8
REMARK VINA RESULT:      -5.5      3.063     11.623
REMARK  Name = 442793_6gingerol.pdbqt.pdb
REMARK  7 active torsions:
REMARK  status: ('A' for Active; 'I' for Inactive)
REMARK    1  A    between atoms: C_1  and  C_3
REMARK    2  A    between atoms: C_5  and  O_6
REMARK    3  A    between atoms: C_5  and  C_8
REMARK    4  A    between atoms: C_9  and  C_10
REMARK    5  A    between atoms: C_13  and  C_14
REMARK    6  A    between atoms: C_17  and  O_20
REMARK    7  A    between atoms: C_19  and  O_22
REMARK                            x       y       z     vdW  Elec       q    Type
REMARK                         _______ _______ _______ _____ _____    ______ ____
ROOT
ATOM      1  C   UNL     1      46.244 -48.468  51.794  0.00  0.00    +0.000 C 
ATOM      2  C   UNL     1      46.059 -49.721  52.659  0.00  0.00    +0.000 C 
ENDROOT
BRANCH   2   3
ATOM      3  C   UNL     1      45.886 -50.882  53.465  0.00  0.00    +0.000 A 
ATOM      4  C   UNL     1      46.694 -51.075  54.585  0.00  0.00    +0.000 A 
ATOM      5  C   UNL     1      44.913 -51.820  53.133  0.00  0.00    +0.000 A 
ATOM      6  C   UNL     1      46.537 -52.210  55.385  0.00  0.00    +0.000 A 
ATOM      7  C   UNL     1      44.746 -52.955  53.922  0.00  0.00    +0.000 A 
ATOM      8  C   UNL     1      45.557 -53.145  55.040  0.00  0.00    +0.000 A 
BRANCH   6   9
ATOM      9  O   UNL     1      47.289 -52.479  56.503  0.00  0.00    +0.000 OA
ATOM     10  C   UNL     1      48.466 -53.210  56.281  0.00  0.00    +0.000 C 
ENDBRANCH   6   9
BRANCH   8  11
ATOM     11  O   UNL     1      45.387 -54.262  55.811  0.00  0.00    +0.000 OA
ATOM     12  H   UNL     1      44.626 -54.120  56.404  0.00  0.00    +0.000 HD
ENDBRANCH   8  11
ENDBRANCH   2   3
BRANCH   1  14
ATOM     13  O   UNL     1      46.071 -47.291  49.811  0.00  0.00    +0.000 OA
ATOM     14  C   UNL     1      46.417 -47.290  50.983  0.00  0.00    +0.000 C 
ATOM     15  C   UNL     1      47.004 -46.113  51.562  0.00  0.00    +0.000 C 
ATOM     16  C   UNL     1      47.582 -44.955  52.126  0.00  0.00    +0.000 C 
BRANCH  16  17
ATOM     17  O   UNL     1      47.710 -44.915  53.493  0.00  0.00    +0.000 OA
ATOM     18  H   UNL     1      47.279 -45.675  53.920  0.00  0.00    +0.000 HD
ENDBRANCH  16  17
BRANCH  16  19
ATOM     19  C   UNL     1      48.031 -43.850  51.362  0.00  0.00    +0.000 C 
ATOM     20  C   UNL     1      48.516 -42.661  50.526  0.00  0.00    +0.000 C 
BRANCH  20  21
ATOM     21  C   UNL     1      49.002 -41.476  49.687  0.00  0.00    +0.000 C 
ATOM     22  C   UNL     1      49.486 -40.289  48.847  0.00  0.00    +0.000 C 
ATOM     23  C   UNL     1      49.965 -39.099  48.010  0.00  0.00    +0.000 C 
ENDBRANCH  20  21
ENDBRANCH  16  19
ENDBRANCH   1  14
TORSDOF 7
ENDMDL
MODEL 9
REMARK VINA RESULT:      -5.5      7.435     14.893
REMARK  Name = 442793_6gingerol.pdbqt.pdb
REMARK  7 active torsions:
REMARK  status: ('A' for Active; 'I' for Inactive)
REMARK    1  A    between atoms: C_1  and  C_3
REMARK    2  A    between atoms: C_5  and  O_6
REMARK    3  A    between atoms: C_5  and  C_8
REMARK    4  A    between atoms: C_9  and  C_10
REMARK    5  A    between atoms: C_13  and  C_14
REMARK    6  A    between atoms: C_17  and  O_20
REMARK    7  A    between atoms: C_19  and  O_22
REMARK                            x       y       z     vdW  Elec       q    Type
REMARK                         _______ _______ _______ _____ _____    ______ ____
ROOT
ATOM      1  C   UNL     1      50.080 -35.177  46.467  0.00  0.00    +0.000 C 
ATOM      2  C   UNL     1      49.697 -36.143  47.595  0.00  0.00    +0.000 C 
ENDROOT
BRANCH   2   3
ATOM      3  C   UNL     1      49.343 -37.039  48.644  0.00  0.00    +0.000 A 
ATOM      4  C   UNL     1      48.377 -36.667  49.577  0.00  0.00    +0.000 A 
ATOM      5  C   UNL     1      49.963 -38.282  48.734  0.00  0.00    +0.000 A 
ATOM      6  C   UNL     1      48.019 -37.534  50.613  0.00  0.00    +0.000 A 
ATOM      7  C   UNL     1      49.616 -39.156  49.761  0.00  0.00    +0.000 A 
ATOM      8  C   UNL     1      48.649 -38.780  50.692  0.00  0.00    +0.000 A 
BRANCH   6   9
ATOM      9  O   UNL     1      47.080 -37.248  51.573  0.00  0.00    +0.000 OA
ATOM     10  C   UNL     1      46.348 -36.068  51.372  0.00  0.00    +0.000 C 
ENDBRANCH   6   9
BRANCH   8  11
ATOM     11  O   UNL     1      48.313 -39.643  51.698  0.00  0.00    +0.000 OA
ATOM     12  H   UNL     1      48.995 -40.339  51.753  0.00  0.00    +0.000 HD
ENDBRANCH   8  11
ENDBRANCH   2   3
BRANCH   1  14
ATOM     13  O   UNL     1      50.165 -34.529  44.248  0.00  0.00    +0.000 OA
ATOM     14  C   UNL     1      50.441 -34.267  45.409  0.00  0.00    +0.000 C 
ATOM     15  C   UNL     1      51.131 -33.048  45.730  0.00  0.00    +0.000 C 
ATOM     16  C   UNL     1      51.811 -31.850  46.040  0.00  0.00    +0.000 C 
BRANCH  16  17
ATOM     17  O   UNL     1      51.864 -31.477  47.361  0.00  0.00    +0.000 OA
ATOM     18  H   UNL     1      51.017 -31.109  47.667  0.00  0.00    +0.000 HD
ENDBRANCH  16  17
BRANCH  16  19
ATOM     19  C   UNL     1      52.433 -31.028  45.069  0.00  0.00    +0.000 C 
ATOM     20  C   UNL     1      53.102 -30.130  44.023  0.00  0.00    +0.000 C 
BRANCH  20  21
ATOM     21  C   UNL     1      53.767 -29.228  42.979  0.00  0.00    +0.000 C 
ATOM     22  C   UNL     1      54.432 -28.323  41.936  0.00  0.00    +0.000 C 
ATOM     23  C   UNL     1      55.099 -27.415  40.898  0.00  0.00    +0.000 C 
ENDBRANCH  20  21
ENDBRANCH  16  19
ENDBRANCH   1  14
TORSDOF 7
ENDMDL
