MODEL 1
REMARK VINA RESULT:      -7.9      0.000      0.000
REMARK  Name = 44423609_SipholenoneA.pdbqt.pdb
REMARK  4 active torsions:
REMARK  status: ('A' for Active; 'I' for Inactive)
REMARK    1  A    between atoms: C_3  and  C_19
REMARK    2  A    between atoms: C_5  and  O_17
REMARK    3  A    between atoms: C_20  and  C_24
REMARK    4  A    between atoms: C_25  and  O_35
REMARK                            x       y       z     vdW  Elec       q    Type
REMARK                         _______ _______ _______ _____ _____    ______ ____
ROOT
ATOM      1  O   UNL     1      47.239 -55.899  57.133  0.00  0.00    +0.000 OA
ATOM      2  O   UNL     1      49.919 -53.443  57.830  0.00  0.00    +0.000 OA
ATOM      3  C   UNL     1      44.635 -54.013  54.837  0.00  0.00    +0.000 C 
ATOM      4  C   UNL     1      45.956 -54.671  55.232  0.00  0.00    +0.000 C 
ATOM      5  C   UNL     1      43.316 -54.617  55.289  0.00  0.00    +0.000 C 
ATOM      6  C   UNL     1      46.023 -55.434  56.619  0.00  0.00    +0.000 C 
ATOM      7  C   UNL     1      43.574 -55.556  56.364  0.00  0.00    +0.000 C 
ATOM      8  C   UNL     1      44.813 -56.000  57.067  0.00  0.00    +0.000 C 
ATOM      9  C   UNL     1      47.006 -53.655  55.421  0.00  0.00    +0.000 C 
ATOM     10  C   UNL     1      46.393 -55.666  54.120  0.00  0.00    +0.000 C 
ATOM     11  C   UNL     1      42.332 -53.524  55.721  0.00  0.00    +0.000 C 
ATOM     12  C   UNL     1      48.198 -53.359  56.306  0.00  0.00    +0.000 C 
ATOM     13  C   UNL     1      47.972 -55.097  58.120  0.00  0.00    +0.000 C 
ATOM     14  C   UNL     1      48.852 -53.920  57.465  0.00  0.00    +0.000 C 
ATOM     15  C   UNL     1      48.904 -56.118  58.851  0.00  0.00    +0.000 C 
ATOM     16  C   UNL     1      46.978 -54.472  59.168  0.00  0.00    +0.000 C 
ENDROOT
BRANCH   5  17
ATOM     17  O   UNL     1      42.706 -55.282  54.213  0.00  0.00    +0.000 OA
ATOM     18  H   UNL     1      42.080 -55.864  54.681  0.00  0.00    +0.000 HD
ENDBRANCH   5  17
BRANCH   3  19
ATOM     19  C   UNL     1      44.636 -52.982  53.830  0.00  0.00    +0.000 C 
ATOM     20  C   UNL     1      44.635 -51.896  52.752  0.00  0.00    +0.000 C 
BRANCH  20  24
ATOM     21  C   UNL     1      42.523 -49.549  50.961  0.00  0.00    +0.000 C 
ATOM     22  C   UNL     1      43.492 -50.731  50.712  0.00  0.00    +0.000 C 
ATOM     23  C   UNL     1      42.887 -48.087  50.904  0.00  0.00    +0.000 C 
ATOM     24  C   UNL     1      44.642 -50.882  51.737  0.00  0.00    +0.000 C 
ATOM     25  C   UNL     1      41.676 -47.188  51.158  0.00  0.00    +0.000 C 
ATOM     26  C   UNL     1      41.124 -49.609  51.220  0.00  0.00    +0.000 C 
ATOM     27  C   UNL     1      40.632 -48.192  51.324  0.00  0.00    +0.000 C 
ATOM     28  C   UNL     1      44.242 -47.800  51.170  0.00  0.00    +0.000 C 
ATOM     29  C   UNL     1      45.738 -49.911  51.746  0.00  0.00    +0.000 C 
ATOM     30  C   UNL     1      42.641 -52.060  50.703  0.00  0.00    +0.000 C 
ATOM     31  C   UNL     1      44.083 -50.591  49.268  0.00  0.00    +0.000 C 
ATOM     32  C   UNL     1      45.415 -48.676  51.519  0.00  0.00    +0.000 C 
ATOM     33  C   UNL     1      41.466 -46.182  50.039  0.00  0.00    +0.000 C 
ATOM     34  C   UNL     1      47.073 -50.156  52.401  0.00  0.00    +0.000 C 
BRANCH  25  35
ATOM     35  O   UNL     1      41.847 -46.456  52.348  0.00  0.00    +0.000 OA
ATOM     36  H   UNL     1      41.646 -45.556  52.037  0.00  0.00    +0.000 HD
ENDBRANCH  25  35
ENDBRANCH  20  24
ENDBRANCH   3  19
TORSDOF 4
ENDMDL
MODEL 2
REMARK VINA RESULT:      -7.0      6.525     12.649
REMARK  Name = 44423609_SipholenoneA.pdbqt.pdb
REMARK  4 active torsions:
REMARK  status: ('A' for Active; 'I' for Inactive)
REMARK    1  A    between atoms: C_3  and  C_19
REMARK    2  A    between atoms: C_5  and  O_17
REMARK    3  A    between atoms: C_20  and  C_24
REMARK    4  A    between atoms: C_25  and  O_35
REMARK                            x       y       z     vdW  Elec       q    Type
REMARK                         _______ _______ _______ _____ _____    ______ ____
ROOT
ATOM      1  O   UNL     1      48.756 -55.826  55.413  0.00  0.00    +0.000 OA
ATOM      2  O   UNL     1      47.981 -53.209  57.912  0.00  0.00    +0.000 OA
ATOM      3  C   UNL     1      52.683 -56.258  55.504  0.00  0.00    +0.000 C 
ATOM      4  C   UNL     1      51.241 -56.323  56.005  0.00  0.00    +0.000 C 
ATOM      5  C   UNL     1      53.001 -56.574  54.053  0.00  0.00    +0.000 C 
ATOM      6  C   UNL     1      50.080 -55.970  54.984  0.00  0.00    +0.000 C 
ATOM      7  C   UNL     1      51.773 -56.534  53.282  0.00  0.00    +0.000 C 
ATOM      8  C   UNL     1      50.351 -56.247  53.630  0.00  0.00    +0.000 C 
ATOM      9  C   UNL     1      51.008 -55.312  57.051  0.00  0.00    +0.000 C 
ATOM     10  C   UNL     1      50.954 -57.739  56.579  0.00  0.00    +0.000 C 
ATOM     11  C   UNL     1      54.046 -55.601  53.497  0.00  0.00    +0.000 C 
ATOM     12  C   UNL     1      49.936 -54.362  57.539  0.00  0.00    +0.000 C 
ATOM     13  C   UNL     1      48.219 -54.490  55.697  0.00  0.00    +0.000 C 
ATOM     14  C   UNL     1      48.611 -53.937  57.155  0.00  0.00    +0.000 C 
ATOM     15  C   UNL     1      46.668 -54.653  55.585  0.00  0.00    +0.000 C 
ATOM     16  C   UNL     1      48.703 -53.460  54.609  0.00  0.00    +0.000 C 
ENDROOT
BRANCH   5  17
ATOM     17  O   UNL     1      53.578 -57.852  53.961  0.00  0.00    +0.000 OA
ATOM     18  H   UNL     1      53.439 -58.055  53.019  0.00  0.00    +0.000 HD
ENDBRANCH   5  17
BRANCH   3  19
ATOM     19  C   UNL     1      53.755 -56.153  56.460  0.00  0.00    +0.000 C 
ATOM     20  C   UNL     1      54.890 -56.031  57.480  0.00  0.00    +0.000 C 
BRANCH  20  24
ATOM     21  C   UNL     1      57.569 -53.846  58.588  0.00  0.00    +0.000 C 
ATOM     22  C   UNL     1      57.325 -55.282  58.062  0.00  0.00    +0.000 C 
ATOM     23  C   UNL     1      57.676 -53.447  60.038  0.00  0.00    +0.000 C 
ATOM     24  C   UNL     1      55.957 -55.907  58.431  0.00  0.00    +0.000 C 
ATOM     25  C   UNL     1      57.964 -51.954  60.198  0.00  0.00    +0.000 C 
ATOM     26  C   UNL     1      57.800 -52.666  57.824  0.00  0.00    +0.000 C 
ATOM     27  C   UNL     1      58.045 -51.549  58.800  0.00  0.00    +0.000 C 
ATOM     28  C   UNL     1      57.000 -54.295  60.939  0.00  0.00    +0.000 C 
ATOM     29  C   UNL     1      55.692 -56.307  59.814  0.00  0.00    +0.000 C 
ATOM     30  C   UNL     1      57.462 -55.251  56.491  0.00  0.00    +0.000 C 
ATOM     31  C   UNL     1      58.484 -56.202  58.575  0.00  0.00    +0.000 C 
ATOM     32  C   UNL     1      56.165 -55.532  60.739  0.00  0.00    +0.000 C 
ATOM     33  C   UNL     1      59.201 -51.698  61.042  0.00  0.00    +0.000 C 
ATOM     34  C   UNL     1      54.594 -57.257  60.218  0.00  0.00    +0.000 C 
BRANCH  25  35
ATOM     35  O   UNL     1      56.887 -51.310  60.834  0.00  0.00    +0.000 OA
ATOM     36  H   UNL     1      57.161 -50.380  60.756  0.00  0.00    +0.000 HD
ENDBRANCH  25  35
ENDBRANCH  20  24
ENDBRANCH   3  19
TORSDOF 4
ENDMDL
MODEL 3
REMARK VINA RESULT:      -6.9      4.803      8.450
REMARK  Name = 44423609_SipholenoneA.pdbqt.pdb
REMARK  4 active torsions:
REMARK  status: ('A' for Active; 'I' for Inactive)
REMARK    1  A    between atoms: C_3  and  C_19
REMARK    2  A    between atoms: C_5  and  O_17
REMARK    3  A    between atoms: C_20  and  C_24
REMARK    4  A    between atoms: C_25  and  O_35
REMARK                            x       y       z     vdW  Elec       q    Type
REMARK                         _______ _______ _______ _____ _____    ______ ____
ROOT
ATOM      1  O   UNL     1      40.697 -56.979  55.350  0.00  0.00    +0.000 OA
ATOM      2  O   UNL     1      41.736 -58.084  51.975  0.00  0.00    +0.000 OA
ATOM      3  C   UNL     1      44.014 -55.825  57.162  0.00  0.00    +0.000 C 
ATOM      4  C   UNL     1      42.871 -55.792  56.148  0.00  0.00    +0.000 C 
ATOM      5  C   UNL     1      43.744 -56.225  58.603  0.00  0.00    +0.000 C 
ATOM      6  C   UNL     1      41.679 -56.821  56.334  0.00  0.00    +0.000 C 
ATOM      7  C   UNL     1      42.450 -56.877  58.675  0.00  0.00    +0.000 C 
ATOM      8  C   UNL     1      41.411 -57.214  57.660  0.00  0.00    +0.000 C 
ATOM      9  C   UNL     1      43.355 -56.166  54.808  0.00  0.00    +0.000 C 
ATOM     10  C   UNL     1      42.262 -54.363  56.099  0.00  0.00    +0.000 C 
ATOM     11  C   UNL     1      44.861 -57.127  59.139  0.00  0.00    +0.000 C 
ATOM     12  C   UNL     1      42.912 -56.927  53.577  0.00  0.00    +0.000 C 
ATOM     13  C   UNL     1      40.808 -58.067  54.372  0.00  0.00    +0.000 C 
ATOM     14  C   UNL     1      41.792 -57.730  53.145  0.00  0.00    +0.000 C 
ATOM     15  C   UNL     1      39.351 -58.279  53.846  0.00  0.00    +0.000 C 
ATOM     16  C   UNL     1      41.294 -59.389  55.073  0.00  0.00    +0.000 C 
ENDROOT
BRANCH   5  17
ATOM     17  O   UNL     1      43.747 -55.081  59.420  0.00  0.00    +0.000 OA
ATOM     18  H   UNL     1      43.340 -55.431  60.234  0.00  0.00    +0.000 HD
ENDBRANCH   5  17
BRANCH   3  19
ATOM     19  C   UNL     1      45.279 -55.232  56.814  0.00  0.00    +0.000 C 
ATOM     20  C   UNL     1      46.628 -54.601  56.458  0.00  0.00    +0.000 C 
BRANCH  20  24
ATOM     21  C   UNL     1      50.069 -55.350  55.577  0.00  0.00    +0.000 C 
ATOM     22  C   UNL     1      49.234 -54.581  56.632  0.00  0.00    +0.000 C 
ATOM     23  C   UNL     1      50.685 -54.753  54.338  0.00  0.00    +0.000 C 
ATOM     24  C   UNL     1      47.890 -54.002  56.129  0.00  0.00    +0.000 C 
ATOM     25  C   UNL     1      51.480 -55.788  53.541  0.00  0.00    +0.000 C 
ATOM     26  C   UNL     1      50.461 -56.719  55.606  0.00  0.00    +0.000 C 
ATOM     27  C   UNL     1      51.311 -56.961  54.390  0.00  0.00    +0.000 C 
ATOM     28  C   UNL     1      50.035 -53.602  53.846  0.00  0.00    +0.000 C 
ATOM     29  C   UNL     1      47.888 -52.861  55.212  0.00  0.00    +0.000 C 
ATOM     30  C   UNL     1      48.948 -55.564  57.832  0.00  0.00    +0.000 C 
ATOM     31  C   UNL     1      50.120 -53.431  57.221  0.00  0.00    +0.000 C 
ATOM     32  C   UNL     1      48.819 -52.846  54.310  0.00  0.00    +0.000 C 
ATOM     33  C   UNL     1      52.910 -55.342  53.291  0.00  0.00    +0.000 C 
ATOM     34  C   UNL     1      46.690 -51.980  54.968  0.00  0.00    +0.000 C 
BRANCH  25  35
ATOM     35  O   UNL     1      50.886 -56.003  52.284  0.00  0.00    +0.000 OA
ATOM     36  H   UNL     1      50.274 -56.729  52.495  0.00  0.00    +0.000 HD
ENDBRANCH  25  35
ENDBRANCH  20  24
ENDBRANCH   3  19
TORSDOF 4
ENDMDL
MODEL 4
REMARK VINA RESULT:      -6.8     16.183     20.143
REMARK  Name = 44423609_SipholenoneA.pdbqt.pdb
REMARK  4 active torsions:
REMARK  status: ('A' for Active; 'I' for Inactive)
REMARK    1  A    between atoms: C_3  and  C_19
REMARK    2  A    between atoms: C_5  and  O_17
REMARK    3  A    between atoms: C_20  and  C_24
REMARK    4  A    between atoms: C_25  and  O_35
REMARK                            x       y       z     vdW  Elec       q    Type
REMARK                         _______ _______ _______ _____ _____    ______ ____
ROOT
ATOM      1  O   UNL     1      58.801 -48.958  61.205  0.00  0.00    +0.000 OA
ATOM      2  O   UNL     1      59.808 -52.508  61.474  0.00  0.00    +0.000 OA
ATOM      3  C   UNL     1      61.971 -47.053  59.812  0.00  0.00    +0.000 C 
ATOM      4  C   UNL     1      60.780 -48.010  59.806  0.00  0.00    +0.000 C 
ATOM      5  C   UNL     1      61.863 -45.706  60.508  0.00  0.00    +0.000 C 
ATOM      6  C   UNL     1      59.799 -47.989  61.051  0.00  0.00    +0.000 C 
ATOM      7  C   UNL     1      60.710 -45.723  61.387  0.00  0.00    +0.000 C 
ATOM      8  C   UNL     1      59.685 -46.754  61.720  0.00  0.00    +0.000 C 
ATOM      9  C   UNL     1      61.239 -49.409  59.837  0.00  0.00    +0.000 C 
ATOM     10  C   UNL     1      59.930 -47.772  58.527  0.00  0.00    +0.000 C 
ATOM     11  C   UNL     1      63.150 -45.381  61.274  0.00  0.00    +0.000 C 
ATOM     12  C   UNL     1      60.861 -50.750  60.430  0.00  0.00    +0.000 C 
ATOM     13  C   UNL     1      59.039 -50.126  62.059  0.00  0.00    +0.000 C 
ATOM     14  C   UNL     1      59.873 -51.294  61.333  0.00  0.00    +0.000 C 
ATOM     15  C   UNL     1      57.612 -50.643  62.435  0.00  0.00    +0.000 C 
ATOM     16  C   UNL     1      59.790 -49.701  63.376  0.00  0.00    +0.000 C 
ENDROOT
BRANCH   5  17
ATOM     17  O   UNL     1      61.717 -44.688  59.551  0.00  0.00    +0.000 OA
ATOM     18  H   UNL     1      62.648 -44.501  59.332  0.00  0.00    +0.000 HD
ENDBRANCH   5  17
BRANCH   3  19
ATOM     19  C   UNL     1      63.091 -47.317  58.946  0.00  0.00    +0.000 C 
ATOM     20  C   UNL     1      64.277 -47.609  58.024  0.00  0.00    +0.000 C 
BRANCH  20  24
ATOM     21  C   UNL     1      65.826 -50.204  56.013  0.00  0.00    +0.000 C 
ATOM     22  C   UNL     1      66.133 -49.250  57.194  0.00  0.00    +0.000 C 
ATOM     23  C   UNL     1      66.160 -49.949  54.566  0.00  0.00    +0.000 C 
ATOM     24  C   UNL     1      65.392 -47.891  57.166  0.00  0.00    +0.000 C 
ATOM     25  C   UNL     1      65.754 -51.121  53.671  0.00  0.00    +0.000 C 
ATOM     26  C   UNL     1      65.244 -51.503  56.072  0.00  0.00    +0.000 C 
ATOM     27  C   UNL     1      65.219 -52.040  54.668  0.00  0.00    +0.000 C 
ATOM     28  C   UNL     1      66.257 -48.588  54.209  0.00  0.00    +0.000 C 
ATOM     29  C   UNL     1      65.767 -46.880  56.175  0.00  0.00    +0.000 C 
ATOM     30  C   UNL     1      65.766 -50.001  58.531  0.00  0.00    +0.000 C 
ATOM     31  C   UNL     1      67.680 -49.010  57.246  0.00  0.00    +0.000 C 
ATOM     32  C   UNL     1      66.076 -47.317  54.995  0.00  0.00    +0.000 C 
ATOM     33  C   UNL     1      66.918 -51.637  52.842  0.00  0.00    +0.000 C 
ATOM     34  C   UNL     1      65.412 -45.420  56.289  0.00  0.00    +0.000 C 
BRANCH  25  35
ATOM     35  O   UNL     1      64.746 -50.729  52.773  0.00  0.00    +0.000 OA
ATOM     36  H   UNL     1      63.969 -50.739  53.358  0.00  0.00    +0.000 HD
ENDBRANCH  25  35
ENDBRANCH  20  24
ENDBRANCH   3  19
TORSDOF 4
ENDMDL
MODEL 5
REMARK VINA RESULT:      -6.7     25.119     28.159
REMARK  Name = 44423609_SipholenoneA.pdbqt.pdb
REMARK  4 active torsions:
REMARK  status: ('A' for Active; 'I' for Inactive)
REMARK    1  A    between atoms: C_3  and  C_19
REMARK    2  A    between atoms: C_5  and  O_17
REMARK    3  A    between atoms: C_20  and  C_24
REMARK    4  A    between atoms: C_25  and  O_35
REMARK                            x       y       z     vdW  Elec       q    Type
REMARK                         _______ _______ _______ _____ _____    ______ ____
ROOT
ATOM      1  O   UNL     1      41.768 -29.432  69.894  0.00  0.00    +0.000 OA
ATOM      2  O   UNL     1      44.490 -29.738  67.407  0.00  0.00    +0.000 OA
ATOM      3  C   UNL     1      42.695 -31.940  72.804  0.00  0.00    +0.000 C 
ATOM      4  C   UNL     1      42.817 -30.713  71.902  0.00  0.00    +0.000 C 
ATOM      5  C   UNL     1      41.327 -32.422  73.255  0.00  0.00    +0.000 C 
ATOM      6  C   UNL     1      41.644 -30.422  70.876  0.00  0.00    +0.000 C 
ATOM      7  C   UNL     1      40.313 -31.809  72.419  0.00  0.00    +0.000 C 
ATOM      8  C   UNL     1      40.365 -30.864  71.266  0.00  0.00    +0.000 C 
ATOM      9  C   UNL     1      43.961 -30.853  70.986  0.00  0.00    +0.000 C 
ATOM     10  C   UNL     1      43.007 -29.443  72.778  0.00  0.00    +0.000 C 
ATOM     11  C   UNL     1      41.243 -33.952  73.212  0.00  0.00    +0.000 C 
ATOM     12  C   UNL     1      44.364 -30.529  69.563  0.00  0.00    +0.000 C 
ATOM     13  C   UNL     1      42.181 -29.796  68.534  0.00  0.00    +0.000 C 
ATOM     14  C   UNL     1      43.772 -29.968  68.371  0.00  0.00    +0.000 C 
ATOM     15  C   UNL     1      41.675 -28.620  67.636  0.00  0.00    +0.000 C 
ATOM     16  C   UNL     1      41.471 -31.126  68.081  0.00  0.00    +0.000 C 
ENDROOT
BRANCH   5  17
ATOM     17  O   UNL     1      41.117 -32.063  74.598  0.00  0.00    +0.000 OA
ATOM     18  H   UNL     1      42.022 -32.124  74.953  0.00  0.00    +0.000 HD
ENDBRANCH   5  17
BRANCH   3  19
ATOM     19  C   UNL     1      43.878 -32.475  73.428  0.00  0.00    +0.000 C 
ATOM     20  C   UNL     1      45.129 -33.054  74.092  0.00  0.00    +0.000 C 
BRANCH  20  24
ATOM     21  C   UNL     1      46.852 -36.158  74.850  0.00  0.00    +0.000 C 
ATOM     22  C   UNL     1      46.255 -34.910  75.546  0.00  0.00    +0.000 C 
ATOM     23  C   UNL     1      48.297 -36.341  74.462  0.00  0.00    +0.000 C 
ATOM     24  C   UNL     1      46.297 -33.599  74.723  0.00  0.00    +0.000 C 
ATOM     25  C   UNL     1      48.549 -37.712  73.833  0.00  0.00    +0.000 C 
ATOM     26  C   UNL     1      46.184 -37.369  74.510  0.00  0.00    +0.000 C 
ATOM     27  C   UNL     1      47.212 -38.289  73.914  0.00  0.00    +0.000 C 
ATOM     28  C   UNL     1      49.007 -35.145  74.231  0.00  0.00    +0.000 C 
ATOM     29  C   UNL     1      47.578 -32.928  74.492  0.00  0.00    +0.000 C 
ATOM     30  C   UNL     1      44.755 -35.232  75.913  0.00  0.00    +0.000 C 
ATOM     31  C   UNL     1      46.995 -34.703  76.911  0.00  0.00    +0.000 C 
ATOM     32  C   UNL     1      48.600 -33.697  74.281  0.00  0.00    +0.000 C 
ATOM     33  C   UNL     1      49.652 -38.475  74.546  0.00  0.00    +0.000 C 
ATOM     34  C   UNL     1      47.707 -31.490  74.063  0.00  0.00    +0.000 C 
BRANCH  25  35
ATOM     35  O   UNL     1      48.942 -37.573  72.489  0.00  0.00    +0.000 OA
ATOM     36  H   UNL     1      49.711 -36.985  72.587  0.00  0.00    +0.000 HD
ENDBRANCH  25  35
ENDBRANCH  20  24
ENDBRANCH   3  19
TORSDOF 4
ENDMDL
MODEL 6
REMARK VINA RESULT:      -6.6      4.149      6.030
REMARK  Name = 44423609_SipholenoneA.pdbqt.pdb
REMARK  4 active torsions:
REMARK  status: ('A' for Active; 'I' for Inactive)
REMARK    1  A    between atoms: C_3  and  C_19
REMARK    2  A    between atoms: C_5  and  O_17
REMARK    3  A    between atoms: C_20  and  C_24
REMARK    4  A    between atoms: C_25  and  O_35
REMARK                            x       y       z     vdW  Elec       q    Type
REMARK                         _______ _______ _______ _____ _____    ______ ____
ROOT
ATOM      1  O   UNL     1      53.346 -57.276  54.775  0.00  0.00    +0.000 OA
ATOM      2  O   UNL     1      54.662 -56.053  51.540  0.00  0.00    +0.000 OA
ATOM      3  C   UNL     1      50.057 -55.190  55.446  0.00  0.00    +0.000 C 
ATOM      4  C   UNL     1      50.977 -56.198  54.759  0.00  0.00    +0.000 C 
ATOM      5  C   UNL     1      50.073 -55.050  56.958  0.00  0.00    +0.000 C 
ATOM      6  C   UNL     1      52.376 -56.512  55.434  0.00  0.00    +0.000 C 
ATOM      7  C   UNL     1      51.273 -55.680  57.476  0.00  0.00    +0.000 C 
ATOM      8  C   UNL     1      52.422 -56.384  56.836  0.00  0.00    +0.000 C 
ATOM      9  C   UNL     1      51.409 -55.695  53.444  0.00  0.00    +0.000 C 
ATOM     10  C   UNL     1      50.225 -57.546  54.576  0.00  0.00    +0.000 C 
ATOM     11  C   UNL     1      49.987 -53.577  57.373  0.00  0.00    +0.000 C 
ATOM     12  C   UNL     1      52.622 -55.687  52.537  0.00  0.00    +0.000 C 
ATOM     13  C   UNL     1      54.426 -56.611  54.038  0.00  0.00    +0.000 C 
ATOM     14  C   UNL     1      53.996 -56.128  52.565  0.00  0.00    +0.000 C 
ATOM     15  C   UNL     1      55.560 -57.683  53.939  0.00  0.00    +0.000 C 
ATOM     16  C   UNL     1      54.964 -55.373  54.848  0.00  0.00    +0.000 C 
ENDROOT
BRANCH   5  17
ATOM     17  O   UNL     1      48.937 -55.671  57.504  0.00  0.00    +0.000 OA
ATOM     18  H   UNL     1      49.221 -56.602  57.523  0.00  0.00    +0.000 HD
ENDBRANCH   5  17
BRANCH   3  19
ATOM     19  C   UNL     1      49.003 -54.569  54.686  0.00  0.00    +0.000 C 
ATOM     20  C   UNL     1      47.882 -53.918  53.872  0.00  0.00    +0.000 C 
BRANCH  20  24
ATOM     21  C   UNL     1      46.173 -50.779  53.241  0.00  0.00    +0.000 C 
ATOM     22  C   UNL     1      45.893 -52.234  53.691  0.00  0.00    +0.000 C 
ATOM     23  C   UNL     1      46.042 -50.252  51.835  0.00  0.00    +0.000 C 
ATOM     24  C   UNL     1      46.836 -53.311  53.100  0.00  0.00    +0.000 C 
ATOM     25  C   UNL     1      46.354 -48.757  51.755  0.00  0.00    +0.000 C 
ATOM     26  C   UNL     1      46.535 -49.669  54.058  0.00  0.00    +0.000 C 
ATOM     27  C   UNL     1      46.628 -48.469  53.158  0.00  0.00    +0.000 C 
ATOM     28  C   UNL     1      46.198 -51.219  50.821  0.00  0.00    +0.000 C 
ATOM     29  C   UNL     1      46.733 -53.667  51.684  0.00  0.00    +0.000 C 
ATOM     30  C   UNL     1      45.990 -52.282  55.264  0.00  0.00    +0.000 C 
ATOM     31  C   UNL     1      44.406 -52.583  53.342  0.00  0.00    +0.000 C 
ATOM     32  C   UNL     1      46.490 -52.695  50.862  0.00  0.00    +0.000 C 
ATOM     33  C   UNL     1      45.221 -47.970  51.119  0.00  0.00    +0.000 C 
ATOM     34  C   UNL     1      47.298 -54.933  51.093  0.00  0.00    +0.000 C 
BRANCH  25  35
ATOM     35  O   UNL     1      47.503 -48.534  50.975  0.00  0.00    +0.000 OA
ATOM     36  H   UNL     1      47.853 -49.440  50.907  0.00  0.00    +0.000 HD
ENDBRANCH  25  35
ENDBRANCH  20  24
ENDBRANCH   3  19
TORSDOF 4
ENDMDL
MODEL 7
REMARK VINA RESULT:      -6.5      5.514      8.283
REMARK  Name = 44423609_SipholenoneA.pdbqt.pdb
REMARK  4 active torsions:
REMARK  status: ('A' for Active; 'I' for Inactive)
REMARK    1  A    between atoms: C_3  and  C_19
REMARK    2  A    between atoms: C_5  and  O_17
REMARK    3  A    between atoms: C_20  and  C_24
REMARK    4  A    between atoms: C_25  and  O_35
REMARK                            x       y       z     vdW  Elec       q    Type
REMARK                         _______ _______ _______ _____ _____    ______ ____
ROOT
ATOM      1  O   UNL     1      49.584 -48.738  48.540  0.00  0.00    +0.000 OA
ATOM      2  O   UNL     1      48.219 -48.173  45.147  0.00  0.00    +0.000 OA
ATOM      3  C   UNL     1      46.523 -48.322  51.003  0.00  0.00    +0.000 C 
ATOM      4  C   UNL     1      47.380 -48.951  49.906  0.00  0.00    +0.000 C 
ATOM      5  C   UNL     1      47.181 -47.707  52.227  0.00  0.00    +0.000 C 
ATOM      6  C   UNL     1      48.820 -48.342  49.643  0.00  0.00    +0.000 C 
ATOM      7  C   UNL     1      48.590 -47.503  51.950  0.00  0.00    +0.000 C 
ATOM      8  C   UNL     1      49.451 -47.759  50.758  0.00  0.00    +0.000 C 
ATOM      9  C   UNL     1      46.753 -48.764  48.587  0.00  0.00    +0.000 C 
ATOM     10  C   UNL     1      47.551 -50.470  50.188  0.00  0.00    +0.000 C 
ATOM     11  C   UNL     1      46.489 -46.397  52.621  0.00  0.00    +0.000 C 
ATOM     12  C   UNL     1      47.125 -48.491  47.145  0.00  0.00    +0.000 C 
ATOM     13  C   UNL     1      49.578 -47.930  47.315  0.00  0.00    +0.000 C 
ATOM     14  C   UNL     1      48.309 -48.210  46.367  0.00  0.00    +0.000 C 
ATOM     15  C   UNL     1      50.897 -48.321  46.573  0.00  0.00    +0.000 C 
ATOM     16  C   UNL     1      49.627 -46.396  47.668  0.00  0.00    +0.000 C 
ENDROOT
BRANCH   5  17
ATOM     17  O   UNL     1      47.033 -48.567  53.328  0.00  0.00    +0.000 OA
ATOM     18  H   UNL     1      47.908 -48.996  53.351  0.00  0.00    +0.000 HD
ENDBRANCH   5  17
BRANCH   3  19
ATOM     19  C   UNL     1      45.100 -48.545  50.999  0.00  0.00    +0.000 C 
ATOM     20  C   UNL     1      43.590 -48.794  50.997  0.00  0.00    +0.000 C 
BRANCH  20  24
ATOM     21  C   UNL     1      40.415 -47.460  49.850  0.00  0.00    +0.000 C 
ATOM     22  C   UNL     1      41.143 -47.891  51.147  0.00  0.00    +0.000 C 
ATOM     23  C   UNL     1      39.475 -48.319  49.042  0.00  0.00    +0.000 C 
ATOM     24  C   UNL     1      42.175 -49.034  50.988  0.00  0.00    +0.000 C 
ATOM     25  C   UNL     1      38.899 -47.562  47.844  0.00  0.00    +0.000 C 
ATOM     26  C   UNL     1      40.438 -46.182  49.221  0.00  0.00    +0.000 C 
ATOM     27  C   UNL     1      39.521 -46.257  48.033  0.00  0.00    +0.000 C 
ATOM     28  C   UNL     1      39.688 -49.708  49.161  0.00  0.00    +0.000 C 
ATOM     29  C   UNL     1      41.713 -50.398  50.725  0.00  0.00    +0.000 C 
ATOM     30  C   UNL     1      41.874 -46.623  51.735  0.00  0.00    +0.000 C 
ATOM     31  C   UNL     1      40.064 -48.295  52.209  0.00  0.00    +0.000 C 
ATOM     32  C   UNL     1      40.693 -50.518  49.935  0.00  0.00    +0.000 C 
ATOM     33  C   UNL     1      37.380 -47.585  47.830  0.00  0.00    +0.000 C 
ATOM     34  C   UNL     1      42.559 -51.627  50.936  0.00  0.00    +0.000 C 
BRANCH  25  35
ATOM     35  O   UNL     1      39.334 -48.143  46.639  0.00  0.00    +0.000 OA
ATOM     36  H   UNL     1      38.551 -48.668  46.399  0.00  0.00    +0.000 HD
ENDBRANCH  25  35
ENDBRANCH  20  24
ENDBRANCH   3  19
TORSDOF 4
ENDMDL
MODEL 8
REMARK VINA RESULT:      -6.5      3.959      7.022
REMARK  Name = 44423609_SipholenoneA.pdbqt.pdb
REMARK  4 active torsions:
REMARK  status: ('A' for Active; 'I' for Inactive)
REMARK    1  A    between atoms: C_3  and  C_19
REMARK    2  A    between atoms: C_5  and  O_17
REMARK    3  A    between atoms: C_20  and  C_24
REMARK    4  A    between atoms: C_25  and  O_35
REMARK                            x       y       z     vdW  Elec       q    Type
REMARK                         _______ _______ _______ _____ _____    ______ ____
ROOT
ATOM      1  O   UNL     1      43.303 -53.813  51.720  0.00  0.00    +0.000 OA
ATOM      2  O   UNL     1      45.325 -54.815  54.653  0.00  0.00    +0.000 OA
ATOM      3  C   UNL     1      44.333 -50.080  50.938  0.00  0.00    +0.000 C 
ATOM      4  C   UNL     1      44.492 -51.594  51.062  0.00  0.00    +0.000 C 
ATOM      5  C   UNL     1      43.026 -49.487  50.439  0.00  0.00    +0.000 C 
ATOM      6  C   UNL     1      43.205 -52.453  51.408  0.00  0.00    +0.000 C 
ATOM      7  C   UNL     1      41.993 -50.503  50.509  0.00  0.00    +0.000 C 
ATOM      8  C   UNL     1      41.978 -51.924  50.962  0.00  0.00    +0.000 C 
ATOM      9  C   UNL     1      45.367 -51.934  52.197  0.00  0.00    +0.000 C 
ATOM     10  C   UNL     1      45.102 -52.161  49.749  0.00  0.00    +0.000 C 
ATOM     11  C   UNL     1      42.646 -48.241  51.245  0.00  0.00    +0.000 C 
ATOM     12  C   UNL     1      45.512 -52.971  53.290  0.00  0.00    +0.000 C 
ATOM     13  C   UNL     1      43.341 -54.243  53.122  0.00  0.00    +0.000 C 
ATOM     14  C   UNL     1      44.798 -54.121  53.792  0.00  0.00    +0.000 C 
ATOM     15  C   UNL     1      42.888 -55.739  53.093  0.00  0.00    +0.000 C 
ATOM     16  C   UNL     1      42.311 -53.416  53.979  0.00  0.00    +0.000 C 
ENDROOT
BRANCH   5  17
ATOM     17  O   UNL     1      43.179 -49.055  49.110  0.00  0.00    +0.000 OA
ATOM     18  H   UNL     1      44.023 -48.571  49.165  0.00  0.00    +0.000 HD
ENDBRANCH   5  17
BRANCH   3  19
ATOM     19  C   UNL     1      45.499 -49.239  51.046  0.00  0.00    +0.000 C 
ATOM     20  C   UNL     1      46.732 -48.341  51.171  0.00  0.00    +0.000 C 
BRANCH  20  24
ATOM     21  C   UNL     1      49.822 -47.378  49.530  0.00  0.00    +0.000 C 
ATOM     22  C   UNL     1      49.298 -47.955  50.868  0.00  0.00    +0.000 C 
ATOM     23  C   UNL     1      50.118 -45.926  49.255  0.00  0.00    +0.000 C 
ATOM     24  C   UNL     1      47.881 -47.491  51.288  0.00  0.00    +0.000 C 
ATOM     25  C   UNL     1      50.665 -45.714  47.842  0.00  0.00    +0.000 C 
ATOM     26  C   UNL     1      50.182 -48.095  48.353  0.00  0.00    +0.000 C 
ATOM     27  C   UNL     1      50.692 -47.089  47.360  0.00  0.00    +0.000 C 
ATOM     28  C   UNL     1      49.389 -45.011  50.041  0.00  0.00    +0.000 C 
ATOM     29  C   UNL     1      47.672 -46.112  51.734  0.00  0.00    +0.000 C 
ATOM     30  C   UNL     1      49.303 -49.528  50.752  0.00  0.00    +0.000 C 
ATOM     31  C   UNL     1      50.326 -47.605  51.996  0.00  0.00    +0.000 C 
ATOM     32  C   UNL     1      48.345 -45.197  51.110  0.00  0.00    +0.000 C 
ATOM     33  C   UNL     1      51.995 -44.979  47.848  0.00  0.00    +0.000 C 
ATOM     34  C   UNL     1      46.469 -45.657  52.519  0.00  0.00    +0.000 C 
BRANCH  25  35
ATOM     35  O   UNL     1      49.769 -44.944  47.078  0.00  0.00    +0.000 OA
ATOM     36  H   UNL     1      49.766 -45.445  46.244  0.00  0.00    +0.000 HD
ENDBRANCH  25  35
ENDBRANCH  20  24
ENDBRANCH   3  19
TORSDOF 4
ENDMDL
MODEL 9
REMARK VINA RESULT:      -6.5      4.180      7.114
REMARK  Name = 44423609_SipholenoneA.pdbqt.pdb
REMARK  4 active torsions:
REMARK  status: ('A' for Active; 'I' for Inactive)
REMARK    1  A    between atoms: C_3  and  C_19
REMARK    2  A    between atoms: C_5  and  O_17
REMARK    3  A    between atoms: C_20  and  C_24
REMARK    4  A    between atoms: C_25  and  O_35
REMARK                            x       y       z     vdW  Elec       q    Type
REMARK                         _______ _______ _______ _____ _____    ______ ____
ROOT
ATOM      1  O   UNL     1      51.623 -55.393  56.047  0.00  0.00    +0.000 OA
ATOM      2  O   UNL     1      51.121 -58.795  57.414  0.00  0.00    +0.000 OA
ATOM      3  C   UNL     1      48.066 -54.210  54.798  0.00  0.00    +0.000 C 
ATOM      4  C   UNL     1      49.152 -54.618  55.791  0.00  0.00    +0.000 C 
ATOM      5  C   UNL     1      48.419 -53.369  53.583  0.00  0.00    +0.000 C 
ATOM      6  C   UNL     1      50.621 -54.842  55.240  0.00  0.00    +0.000 C 
ATOM      7  C   UNL     1      49.856 -53.404  53.389  0.00  0.00    +0.000 C 
ATOM      8  C   UNL     1      50.975 -54.079  54.110  0.00  0.00    +0.000 C 
ATOM      9  C   UNL     1      48.863 -55.944  56.362  0.00  0.00    +0.000 C 
ATOM     10  C   UNL     1      49.229 -53.567  56.935  0.00  0.00    +0.000 C 
ATOM     11  C   UNL     1      47.671 -53.861  52.339  0.00  0.00    +0.000 C 
ATOM     12  C   UNL     1      49.575 -57.204  56.808  0.00  0.00    +0.000 C 
ATOM     13  C   UNL     1      51.922 -56.827  55.967  0.00  0.00    +0.000 C 
ATOM     14  C   UNL     1      50.915 -57.742  56.824  0.00  0.00    +0.000 C 
ATOM     15  C   UNL     1      53.376 -56.963  56.527  0.00  0.00    +0.000 C 
ATOM     16  C   UNL     1      51.906 -57.310  54.469  0.00  0.00    +0.000 C 
ENDROOT
BRANCH   5  17
ATOM     17  O   UNL     1      47.999 -52.043  53.786  0.00  0.00    +0.000 OA
ATOM     18  H   UNL     1      47.077 -52.180  54.072  0.00  0.00    +0.000 HD
ENDBRANCH   5  17
BRANCH   3  19
ATOM     19  C   UNL     1      46.682 -54.403  55.150  0.00  0.00    +0.000 C 
ATOM     20  C   UNL     1      45.213 -54.598  55.532  0.00  0.00    +0.000 C 
BRANCH  20  24
ATOM     21  C   UNL     1      42.001 -55.769  54.313  0.00  0.00    +0.000 C 
ATOM     22  C   UNL     1      42.676 -54.511  54.915  0.00  0.00    +0.000 C 
ATOM     23  C   UNL     1      41.225 -56.804  55.086  0.00  0.00    +0.000 C 
ATOM     24  C   UNL     1      43.839 -54.783  55.901  0.00  0.00    +0.000 C 
ATOM     25  C   UNL     1      40.656 -57.890  54.170  0.00  0.00    +0.000 C 
ATOM     26  C   UNL     1      41.927 -56.146  52.942  0.00  0.00    +0.000 C 
ATOM     27  C   UNL     1      41.113 -57.407  52.873  0.00  0.00    +0.000 C 
ATOM     28  C   UNL     1      41.582 -56.925  56.444  0.00  0.00    +0.000 C 
ATOM     29  C   UNL     1      43.552 -55.334  57.227  0.00  0.00    +0.000 C 
ATOM     30  C   UNL     1      43.217 -53.634  53.720  0.00  0.00    +0.000 C 
ATOM     31  C   UNL     1      41.575 -53.647  55.618  0.00  0.00    +0.000 C 
ATOM     32  C   UNL     1      42.612 -56.224  57.289  0.00  0.00    +0.000 C 
ATOM     33  C   UNL     1      39.154 -58.049  54.336  0.00  0.00    +0.000 C 
ATOM     34  C   UNL     1      44.513 -55.276  58.386  0.00  0.00    +0.000 C 
BRANCH  25  35
ATOM     35  O   UNL     1      41.240 -59.136  54.463  0.00  0.00    +0.000 OA
ATOM     36  H   UNL     1      41.453 -59.451  53.568  0.00  0.00    +0.000 HD
ENDBRANCH  25  35
ENDBRANCH  20  24
ENDBRANCH   3  19
TORSDOF 4
ENDMDL
