MODEL 1
REMARK VINA RESULT:      -6.1      0.000      0.000
REMARK  Name = 445154_Resveratrol.pdbqt.pdb
REMARK  5 active torsions:
REMARK  status: ('A' for Active; 'I' for Inactive)
REMARK    1  A    between atoms: C_1  and  C_11
REMARK    2  A    between atoms: C_4  and  O_7
REMARK    3  A    between atoms: C_5  and  O_9
REMARK    4  A    between atoms: C_12  and  C_13
REMARK    5  A    between atoms: C_18  and  O_19
REMARK                            x       y       z     vdW  Elec       q    Type
REMARK                         _______ _______ _______ _____ _____    ______ ____
ROOT
ATOM      1  C   UNL     1      48.701 -39.334  50.160  0.00  0.00    +0.000 A 
ATOM      2  C   UNL     1      49.673 -38.909  49.255  0.00  0.00    +0.000 A 
ATOM      3  C   UNL     1      47.831 -38.412  50.740  0.00  0.00    +0.000 A 
ATOM      4  C   UNL     1      47.940 -37.064  50.408  0.00  0.00    +0.000 A 
ATOM      5  C   UNL     1      49.766 -37.557  48.937  0.00  0.00    +0.000 A 
ATOM      6  C   UNL     1      48.905 -36.625  49.507  0.00  0.00    +0.000 A 
ENDROOT
BRANCH   4   7
ATOM      7  O   UNL     1      47.102 -36.140  50.960  0.00  0.00    +0.000 OA
ATOM      8  H   UNL     1      47.031 -36.325  51.913  0.00  0.00    +0.000 HD
ENDBRANCH   4   7
BRANCH   5   9
ATOM      9  O   UNL     1      50.726 -37.164  48.049  0.00  0.00    +0.000 OA
ATOM     10  H   UNL     1      51.481 -37.772  48.134  0.00  0.00    +0.000 HD
ENDBRANCH   5   9
BRANCH   1  11
ATOM     11  C   UNL     1      48.596 -40.716  50.495  0.00  0.00    +0.000 C 
ATOM     12  C   UNL     1      48.509 -41.881  50.777  0.00  0.00    +0.000 C 
BRANCH  12  13
ATOM     13  C   UNL     1      48.404 -43.263  51.113  0.00  0.00    +0.000 A 
ATOM     14  C   UNL     1      48.832 -44.232  50.207  0.00  0.00    +0.000 A 
ATOM     15  C   UNL     1      47.875 -43.641  52.347  0.00  0.00    +0.000 A 
ATOM     16  C   UNL     1      48.731 -45.582  50.532  0.00  0.00    +0.000 A 
ATOM     17  C   UNL     1      47.773 -44.990  52.676  0.00  0.00    +0.000 A 
ATOM     18  C   UNL     1      48.201 -45.950  51.765  0.00  0.00    +0.000 A 
BRANCH  18  19
ATOM     19  O   UNL     1      48.091 -47.265  52.111  0.00  0.00    +0.000 OA
ATOM     20  H   UNL     1      47.187 -47.560  51.905  0.00  0.00    +0.000 HD
ENDBRANCH  18  19
ENDBRANCH  12  13
ENDBRANCH   1  11
TORSDOF 5
ENDMDL
MODEL 2
REMARK VINA RESULT:      -6.0      0.076      2.008
REMARK  Name = 445154_Resveratrol.pdbqt.pdb
REMARK  5 active torsions:
REMARK  status: ('A' for Active; 'I' for Inactive)
REMARK    1  A    between atoms: C_1  and  C_11
REMARK    2  A    between atoms: C_4  and  O_7
REMARK    3  A    between atoms: C_5  and  O_9
REMARK    4  A    between atoms: C_12  and  C_13
REMARK    5  A    between atoms: C_18  and  O_19
REMARK                            x       y       z     vdW  Elec       q    Type
REMARK                         _______ _______ _______ _____ _____    ______ ____
ROOT
ATOM      1  C   UNL     1      48.732 -39.403  50.144  0.00  0.00    +0.000 A 
ATOM      2  C   UNL     1      47.866 -38.474  50.719  0.00  0.00    +0.000 A 
ATOM      3  C   UNL     1      49.707 -38.987  49.238  0.00  0.00    +0.000 A 
ATOM      4  C   UNL     1      49.809 -37.637  48.914  0.00  0.00    +0.000 A 
ATOM      5  C   UNL     1      47.984 -37.129  50.381  0.00  0.00    +0.000 A 
ATOM      6  C   UNL     1      48.953 -36.699  49.481  0.00  0.00    +0.000 A 
ENDROOT
BRANCH   4   7
ATOM      7  O   UNL     1      50.755 -37.201  48.032  0.00  0.00    +0.000 OA
ATOM      8  H   UNL     1      51.592 -37.089  48.515  0.00  0.00    +0.000 HD
ENDBRANCH   4   7
BRANCH   5   9
ATOM      9  O   UNL     1      47.126 -36.237  50.957  0.00  0.00    +0.000 OA
ATOM     10  H   UNL     1      47.594 -35.389  51.054  0.00  0.00    +0.000 HD
ENDBRANCH   5   9
BRANCH   1  11
ATOM     11  C   UNL     1      48.620 -40.785  50.481  0.00  0.00    +0.000 C 
ATOM     12  C   UNL     1      48.527 -41.948  50.764  0.00  0.00    +0.000 C 
BRANCH  12  13
ATOM     13  C   UNL     1      48.416 -43.329  51.102  0.00  0.00    +0.000 A 
ATOM     14  C   UNL     1      48.823 -44.303  50.189  0.00  0.00    +0.000 A 
ATOM     15  C   UNL     1      47.900 -43.704  52.342  0.00  0.00    +0.000 A 
ATOM     16  C   UNL     1      48.717 -45.651  50.517  0.00  0.00    +0.000 A 
ATOM     17  C   UNL     1      47.792 -45.051  52.673  0.00  0.00    +0.000 A 
ATOM     18  C   UNL     1      48.200 -46.015  51.757  0.00  0.00    +0.000 A 
BRANCH  18  19
ATOM     19  O   UNL     1      48.084 -47.329  52.104  0.00  0.00    +0.000 OA
ATOM     20  H   UNL     1      48.979 -47.697  52.211  0.00  0.00    +0.000 HD
ENDBRANCH  18  19
ENDBRANCH  12  13
ENDBRANCH   1  11
TORSDOF 5
ENDMDL
MODEL 3
REMARK VINA RESULT:      -5.8      4.348      9.805
REMARK  Name = 445154_Resveratrol.pdbqt.pdb
REMARK  5 active torsions:
REMARK  status: ('A' for Active; 'I' for Inactive)
REMARK    1  A    between atoms: C_1  and  C_11
REMARK    2  A    between atoms: C_4  and  O_7
REMARK    3  A    between atoms: C_5  and  O_9
REMARK    4  A    between atoms: C_12  and  C_13
REMARK    5  A    between atoms: C_18  and  O_19
REMARK                            x       y       z     vdW  Elec       q    Type
REMARK                         _______ _______ _______ _____ _____    ______ ____
ROOT
ATOM      1  C   UNL     1      49.766 -37.492  48.016  0.00  0.00    +0.000 A 
ATOM      2  C   UNL     1      49.772 -38.664  47.261  0.00  0.00    +0.000 A 
ATOM      3  C   UNL     1      49.860 -37.553  49.406  0.00  0.00    +0.000 A 
ATOM      4  C   UNL     1      49.961 -38.792  50.032  0.00  0.00    +0.000 A 
ATOM      5  C   UNL     1      49.874 -39.892  47.906  0.00  0.00    +0.000 A 
ATOM      6  C   UNL     1      49.969 -39.969  49.291  0.00  0.00    +0.000 A 
ENDROOT
BRANCH   4   7
ATOM      7  O   UNL     1      50.055 -38.882  51.391  0.00  0.00    +0.000 OA
ATOM      8  H   UNL     1      50.782 -39.493  51.605  0.00  0.00    +0.000 HD
ENDBRANCH   4   7
BRANCH   5   9
ATOM      9  O   UNL     1      49.878 -41.026  47.145  0.00  0.00    +0.000 OA
ATOM     10  H   UNL     1      49.600 -40.785  46.244  0.00  0.00    +0.000 HD
ENDBRANCH   5   9
BRANCH   1  11
ATOM     11  C   UNL     1      49.662 -36.226  47.368  0.00  0.00    +0.000 C 
ATOM     12  C   UNL     1      49.573 -35.160  46.821  0.00  0.00    +0.000 C 
BRANCH  12  13
ATOM     13  C   UNL     1      49.468 -33.894  46.172  0.00  0.00    +0.000 A 
ATOM     14  C   UNL     1      50.334 -32.859  46.524  0.00  0.00    +0.000 A 
ATOM     15  C   UNL     1      48.500 -33.694  45.189  0.00  0.00    +0.000 A 
ATOM     16  C   UNL     1      50.234 -31.623  45.893  0.00  0.00    +0.000 A 
ATOM     17  C   UNL     1      48.396 -32.459  44.555  0.00  0.00    +0.000 A 
ATOM     18  C   UNL     1      49.264 -31.433  44.913  0.00  0.00    +0.000 A 
BRANCH  18  19
ATOM     19  O   UNL     1      49.143 -30.231  44.277  0.00  0.00    +0.000 OA
ATOM     20  H   UNL     1      48.325 -30.245  43.751  0.00  0.00    +0.000 HD
ENDBRANCH  18  19
ENDBRANCH  12  13
ENDBRANCH   1  11
TORSDOF 5
ENDMDL
MODEL 4
REMARK VINA RESULT:      -5.6     15.393     17.808
REMARK  Name = 445154_Resveratrol.pdbqt.pdb
REMARK  5 active torsions:
REMARK  status: ('A' for Active; 'I' for Inactive)
REMARK    1  A    between atoms: C_1  and  C_11
REMARK    2  A    between atoms: C_4  and  O_7
REMARK    3  A    between atoms: C_5  and  O_9
REMARK    4  A    between atoms: C_12  and  C_13
REMARK    5  A    between atoms: C_18  and  O_19
REMARK                            x       y       z     vdW  Elec       q    Type
REMARK                         _______ _______ _______ _____ _____    ______ ____
ROOT
ATOM      1  C   UNL     1      58.012 -51.785  59.132  0.00  0.00    +0.000 A 
ATOM      2  C   UNL     1      57.389 -52.381  60.228  0.00  0.00    +0.000 A 
ATOM      3  C   UNL     1      58.103 -52.468  57.920  0.00  0.00    +0.000 A 
ATOM      4  C   UNL     1      57.568 -53.749  57.814  0.00  0.00    +0.000 A 
ATOM      5  C   UNL     1      56.861 -53.661  60.101  0.00  0.00    +0.000 A 
ATOM      6  C   UNL     1      56.944 -54.356  58.899  0.00  0.00    +0.000 A 
ENDROOT
BRANCH   4   7
ATOM      7  O   UNL     1      57.642 -54.441  56.640  0.00  0.00    +0.000 OA
ATOM      8  H   UNL     1      56.907 -55.079  56.616  0.00  0.00    +0.000 HD
ENDBRANCH   4   7
BRANCH   5   9
ATOM      9  O   UNL     1      56.256 -54.225  61.188  0.00  0.00    +0.000 OA
ATOM     10  H   UNL     1      56.193 -53.545  61.883  0.00  0.00    +0.000 HD
ENDBRANCH   5   9
BRANCH   1  11
ATOM     11  C   UNL     1      58.558 -50.473  59.249  0.00  0.00    +0.000 C 
ATOM     12  C   UNL     1      59.018 -49.367  59.347  0.00  0.00    +0.000 C 
BRANCH  12  13
ATOM     13  C   UNL     1      59.564 -48.055  59.463  0.00  0.00    +0.000 A 
ATOM     14  C   UNL     1      59.816 -47.517  60.725  0.00  0.00    +0.000 A 
ATOM     15  C   UNL     1      59.844 -47.313  58.316  0.00  0.00    +0.000 A 
ATOM     16  C   UNL     1      60.349 -46.236  60.841  0.00  0.00    +0.000 A 
ATOM     17  C   UNL     1      60.376 -46.032  58.428  0.00  0.00    +0.000 A 
ATOM     18  C   UNL     1      60.624 -45.503  59.690  0.00  0.00    +0.000 A 
BRANCH  18  19
ATOM     19  O   UNL     1      61.147 -44.245  59.775  0.00  0.00    +0.000 OA
ATOM     20  H   UNL     1      60.558 -43.638  59.293  0.00  0.00    +0.000 HD
ENDBRANCH  18  19
ENDBRANCH  12  13
ENDBRANCH   1  11
TORSDOF 5
ENDMDL
MODEL 5
REMARK VINA RESULT:      -5.6      8.845     12.307
REMARK  Name = 445154_Resveratrol.pdbqt.pdb
REMARK  5 active torsions:
REMARK  status: ('A' for Active; 'I' for Inactive)
REMARK    1  A    between atoms: C_1  and  C_11
REMARK    2  A    between atoms: C_4  and  O_7
REMARK    3  A    between atoms: C_5  and  O_9
REMARK    4  A    between atoms: C_12  and  C_13
REMARK    5  A    between atoms: C_18  and  O_19
REMARK                            x       y       z     vdW  Elec       q    Type
REMARK                         _______ _______ _______ _____ _____    ______ ____
ROOT
ATOM      1  C   UNL     1      46.549 -50.852  53.874  0.00  0.00    +0.000 A 
ATOM      2  C   UNL     1      45.628 -51.334  52.945  0.00  0.00    +0.000 A 
ATOM      3  C   UNL     1      46.970 -49.524  53.821  0.00  0.00    +0.000 A 
ATOM      4  C   UNL     1      46.463 -48.684  52.832  0.00  0.00    +0.000 A 
ATOM      5  C   UNL     1      45.134 -50.479  51.965  0.00  0.00    +0.000 A 
ATOM      6  C   UNL     1      45.544 -49.151  51.899  0.00  0.00    +0.000 A 
ENDROOT
BRANCH   4   7
ATOM      7  O   UNL     1      46.857 -47.380  52.756  0.00  0.00    +0.000 OA
ATOM      8  H   UNL     1      46.257 -46.917  52.144  0.00  0.00    +0.000 HD
ENDBRANCH   4   7
BRANCH   5   9
ATOM      9  O   UNL     1      44.234 -50.973  51.065  0.00  0.00    +0.000 OA
ATOM     10  H   UNL     1      44.040 -50.273  50.418  0.00  0.00    +0.000 HD
ENDBRANCH   5   9
BRANCH   1  11
ATOM     11  C   UNL     1      47.063 -51.719  54.883  0.00  0.00    +0.000 C 
ATOM     12  C   UNL     1      47.496 -52.450  55.733  0.00  0.00    +0.000 C 
BRANCH  12  13
ATOM     13  C   UNL     1      48.011 -53.317  56.741  0.00  0.00    +0.000 A 
ATOM     14  C   UNL     1      47.150 -53.867  57.690  0.00  0.00    +0.000 A 
ATOM     15  C   UNL     1      49.374 -53.611  56.776  0.00  0.00    +0.000 A 
ATOM     16  C   UNL     1      47.650 -54.714  58.675  0.00  0.00    +0.000 A 
ATOM     17  C   UNL     1      49.878 -54.458  57.759  0.00  0.00    +0.000 A 
ATOM     18  C   UNL     1      49.012 -55.002  58.702  0.00  0.00    +0.000 A 
BRANCH  18  19
ATOM     19  O   UNL     1      49.529 -55.829  59.656  0.00  0.00    +0.000 OA
ATOM     20  H   UNL     1      50.199 -55.333  60.159  0.00  0.00    +0.000 HD
ENDBRANCH  18  19
ENDBRANCH  12  13
ENDBRANCH   1  11
TORSDOF 5
ENDMDL
MODEL 6
REMARK VINA RESULT:      -5.6      4.349      6.883
REMARK  Name = 445154_Resveratrol.pdbqt.pdb
REMARK  5 active torsions:
REMARK  status: ('A' for Active; 'I' for Inactive)
REMARK    1  A    between atoms: C_1  and  C_11
REMARK    2  A    between atoms: C_4  and  O_7
REMARK    3  A    between atoms: C_5  and  O_9
REMARK    4  A    between atoms: C_12  and  C_13
REMARK    5  A    between atoms: C_18  and  O_19
REMARK                            x       y       z     vdW  Elec       q    Type
REMARK                         _______ _______ _______ _____ _____    ______ ____
ROOT
ATOM      1  C   UNL     1      50.029 -34.214  46.164  0.00  0.00    +0.000 A 
ATOM      2  C   UNL     1      51.284 -34.072  45.575  0.00  0.00    +0.000 A 
ATOM      3  C   UNL     1      48.999 -33.331  45.844  0.00  0.00    +0.000 A 
ATOM      4  C   UNL     1      49.234 -32.307  44.931  0.00  0.00    +0.000 A 
ATOM      5  C   UNL     1      51.499 -33.041  44.665  0.00  0.00    +0.000 A 
ATOM      6  C   UNL     1      50.481 -32.152  44.335  0.00  0.00    +0.000 A 
ENDROOT
BRANCH   4   7
ATOM      7  O   UNL     1      48.245 -31.428  44.598  0.00  0.00    +0.000 OA
ATOM      8  H   UNL     1      48.660 -30.624  44.238  0.00  0.00    +0.000 HD
ENDBRANCH   4   7
BRANCH   5   9
ATOM      9  O   UNL     1      52.737 -32.921  44.101  0.00  0.00    +0.000 OA
ATOM     10  H   UNL     1      53.193 -33.776  44.192  0.00  0.00    +0.000 HD
ENDBRANCH   5   9
BRANCH   1  11
ATOM     11  C   UNL     1      49.796 -35.266  47.099  0.00  0.00    +0.000 C 
ATOM     12  C   UNL     1      49.600 -36.152  47.886  0.00  0.00    +0.000 C 
BRANCH  12  13
ATOM     13  C   UNL     1      49.368 -37.204  48.821  0.00  0.00    +0.000 A 
ATOM     14  C   UNL     1      48.594 -36.967  49.956  0.00  0.00    +0.000 A 
ATOM     15  C   UNL     1      49.915 -38.467  48.597  0.00  0.00    +0.000 A 
ATOM     16  C   UNL     1      48.366 -37.992  50.870  0.00  0.00    +0.000 A 
ATOM     17  C   UNL     1      49.690 -39.495  49.508  0.00  0.00    +0.000 A 
ATOM     18  C   UNL     1      48.917 -39.249  50.638  0.00  0.00    +0.000 A 
BRANCH  18  19
ATOM     19  O   UNL     1      48.709 -40.272  51.517  0.00  0.00    +0.000 OA
ATOM     20  H   UNL     1      49.103 -41.080  51.143  0.00  0.00    +0.000 HD
ENDBRANCH  18  19
ENDBRANCH  12  13
ENDBRANCH   1  11
TORSDOF 5
ENDMDL
MODEL 7
REMARK VINA RESULT:      -5.6      2.764      7.078
REMARK  Name = 445154_Resveratrol.pdbqt.pdb
REMARK  5 active torsions:
REMARK  status: ('A' for Active; 'I' for Inactive)
REMARK    1  A    between atoms: C_1  and  C_11
REMARK    2  A    between atoms: C_4  and  O_7
REMARK    3  A    between atoms: C_5  and  O_9
REMARK    4  A    between atoms: C_12  and  C_13
REMARK    5  A    between atoms: C_18  and  O_19
REMARK                            x       y       z     vdW  Elec       q    Type
REMARK                         _______ _______ _______ _____ _____    ______ ____
ROOT
ATOM      1  C   UNL     1      49.248 -41.396  48.947  0.00  0.00    +0.000 A 
ATOM      2  C   UNL     1      49.486 -41.309  47.576  0.00  0.00    +0.000 A 
ATOM      3  C   UNL     1      49.184 -42.641  49.571  0.00  0.00    +0.000 A 
ATOM      4  C   UNL     1      49.360 -43.796  48.814  0.00  0.00    +0.000 A 
ATOM      5  C   UNL     1      49.658 -42.475  46.838  0.00  0.00    +0.000 A 
ATOM      6  C   UNL     1      49.599 -43.725  47.446  0.00  0.00    +0.000 A 
ENDROOT
BRANCH   4   7
ATOM      7  O   UNL     1      49.303 -45.028  49.398  0.00  0.00    +0.000 OA
ATOM      8  H   UNL     1      49.512 -44.926  50.344  0.00  0.00    +0.000 HD
ENDBRANCH   4   7
BRANCH   5   9
ATOM      9  O   UNL     1      49.890 -42.366  45.496  0.00  0.00    +0.000 OA
ATOM     10  H   UNL     1      50.853 -42.397  45.355  0.00  0.00    +0.000 HD
ENDBRANCH   5   9
BRANCH   1  11
ATOM     11  C   UNL     1      49.068 -40.208  49.716  0.00  0.00    +0.000 C 
ATOM     12  C   UNL     1      48.916 -39.207  50.363  0.00  0.00    +0.000 C 
BRANCH  12  13
ATOM     13  C   UNL     1      48.737 -38.020  51.133  0.00  0.00    +0.000 A 
ATOM     14  C   UNL     1      49.825 -37.448  51.791  0.00  0.00    +0.000 A 
ATOM     15  C   UNL     1      47.474 -37.434  51.224  0.00  0.00    +0.000 A 
ATOM     16  C   UNL     1      49.652 -36.289  52.542  0.00  0.00    +0.000 A 
ATOM     17  C   UNL     1      47.298 -36.275  51.974  0.00  0.00    +0.000 A 
ATOM     18  C   UNL     1      48.388 -35.712  52.628  0.00  0.00    +0.000 A 
BRANCH  18  19
ATOM     19  O   UNL     1      48.190 -34.575  53.358  0.00  0.00    +0.000 OA
ATOM     20  H   UNL     1      47.411 -34.115  53.000  0.00  0.00    +0.000 HD
ENDBRANCH  18  19
ENDBRANCH  12  13
ENDBRANCH   1  11
TORSDOF 5
ENDMDL
MODEL 8
REMARK VINA RESULT:      -5.6      4.227      7.023
REMARK  Name = 445154_Resveratrol.pdbqt.pdb
REMARK  5 active torsions:
REMARK  status: ('A' for Active; 'I' for Inactive)
REMARK    1  A    between atoms: C_1  and  C_11
REMARK    2  A    between atoms: C_4  and  O_7
REMARK    3  A    between atoms: C_5  and  O_9
REMARK    4  A    between atoms: C_12  and  C_13
REMARK    5  A    between atoms: C_18  and  O_19
REMARK                            x       y       z     vdW  Elec       q    Type
REMARK                         _______ _______ _______ _____ _____    ______ ____
ROOT
ATOM      1  C   UNL     1      50.140 -34.428  46.205  0.00  0.00    +0.000 A 
ATOM      2  C   UNL     1      49.244 -33.384  45.977  0.00  0.00    +0.000 A 
ATOM      3  C   UNL     1      51.338 -34.492  45.494  0.00  0.00    +0.000 A 
ATOM      4  C   UNL     1      51.632 -33.505  44.557  0.00  0.00    +0.000 A 
ATOM      5  C   UNL     1      49.557 -32.408  45.035  0.00  0.00    +0.000 A 
ATOM      6  C   UNL     1      50.749 -32.458  44.319  0.00  0.00    +0.000 A 
ENDROOT
BRANCH   4   7
ATOM      7  O   UNL     1      52.798 -33.543  43.848  0.00  0.00    +0.000 OA
ATOM      8  H   UNL     1      53.341 -34.273  44.194  0.00  0.00    +0.000 HD
ENDBRANCH   4   7
BRANCH   5   9
ATOM      9  O   UNL     1      48.665 -31.395  44.829  0.00  0.00    +0.000 OA
ATOM     10  H   UNL     1      48.310 -31.486  43.927  0.00  0.00    +0.000 HD
ENDBRANCH   5   9
BRANCH   1  11
ATOM     11  C   UNL     1      49.831 -35.434  47.166  0.00  0.00    +0.000 C 
ATOM     12  C   UNL     1      49.570 -36.282  47.977  0.00  0.00    +0.000 C 
BRANCH  12  13
ATOM     13  C   UNL     1      49.261 -37.288  48.939  0.00  0.00    +0.000 A 
ATOM     14  C   UNL     1      48.468 -36.974  50.042  0.00  0.00    +0.000 A 
ATOM     15  C   UNL     1      49.752 -38.583  48.774  0.00  0.00    +0.000 A 
ATOM     16  C   UNL     1      48.164 -37.954  50.982  0.00  0.00    +0.000 A 
ATOM     17  C   UNL     1      49.451 -39.566  49.712  0.00  0.00    +0.000 A 
ATOM     18  C   UNL     1      48.659 -39.244  50.810  0.00  0.00    +0.000 A 
BRANCH  18  19
ATOM     19  O   UNL     1      48.377 -40.224  51.716  0.00  0.00    +0.000 OA
ATOM     20  H   UNL     1      49.138 -40.314  52.316  0.00  0.00    +0.000 HD
ENDBRANCH  18  19
ENDBRANCH  12  13
ENDBRANCH   1  11
TORSDOF 5
ENDMDL
MODEL 9
REMARK VINA RESULT:      -5.5      1.759      7.599
REMARK  Name = 445154_Resveratrol.pdbqt.pdb
REMARK  5 active torsions:
REMARK  status: ('A' for Active; 'I' for Inactive)
REMARK    1  A    between atoms: C_1  and  C_11
REMARK    2  A    between atoms: C_4  and  O_7
REMARK    3  A    between atoms: C_5  and  O_9
REMARK    4  A    between atoms: C_12  and  C_13
REMARK    5  A    between atoms: C_18  and  O_19
REMARK                            x       y       z     vdW  Elec       q    Type
REMARK                         _______ _______ _______ _____ _____    ______ ____
ROOT
ATOM      1  C   UNL     1      48.710 -44.092  50.511  0.00  0.00    +0.000 A 
ATOM      2  C   UNL     1      49.238 -45.230  49.902  0.00  0.00    +0.000 A 
ATOM      3  C   UNL     1      47.920 -44.210  51.654  0.00  0.00    +0.000 A 
ATOM      4  C   UNL     1      47.665 -45.473  52.182  0.00  0.00    +0.000 A 
ATOM      5  C   UNL     1      48.971 -46.482  50.446  0.00  0.00    +0.000 A 
ATOM      6  C   UNL     1      48.186 -46.616  51.586  0.00  0.00    +0.000 A 
ENDROOT
BRANCH   4   7
ATOM      7  O   UNL     1      46.896 -45.618  53.301  0.00  0.00    +0.000 OA
ATOM      8  H   UNL     1      46.392 -44.795  53.432  0.00  0.00    +0.000 HD
ENDBRANCH   4   7
BRANCH   5   9
ATOM      9  O   UNL     1      49.499 -47.582  49.833  0.00  0.00    +0.000 OA
ATOM     10  H   UNL     1      49.328 -47.505  48.877  0.00  0.00    +0.000 HD
ENDBRANCH   5   9
BRANCH   1  11
ATOM     11  C   UNL     1      48.976 -42.802  49.963  0.00  0.00    +0.000 C 
ATOM     12  C   UNL     1      49.200 -41.716  49.502  0.00  0.00    +0.000 C 
BRANCH  12  13
ATOM     13  C   UNL     1      49.466 -40.426  48.955  0.00  0.00    +0.000 A 
ATOM     14  C   UNL     1      49.616 -40.273  47.577  0.00  0.00    +0.000 A 
ATOM     15  C   UNL     1      49.576 -39.321  49.799  0.00  0.00    +0.000 A 
ATOM     16  C   UNL     1      49.876 -39.015  47.040  0.00  0.00    +0.000 A 
ATOM     17  C   UNL     1      49.836 -38.062  49.266  0.00  0.00    +0.000 A 
ATOM     18  C   UNL     1      49.984 -37.919  47.890  0.00  0.00    +0.000 A 
BRANCH  18  19
ATOM     19  O   UNL     1      50.238 -36.674  47.392  0.00  0.00    +0.000 OA
ATOM     20  H   UNL     1      50.993 -36.739  46.781  0.00  0.00    +0.000 HD
ENDBRANCH  18  19
ENDBRANCH  12  13
ENDBRANCH   1  11
TORSDOF 5
ENDMDL
