MODEL 1
REMARK VINA RESULT:      -7.7      0.000      0.000
REMARK  Name = 448438_Violaxanthin.pdbqt.pdb
REMARK  16 active torsions:
REMARK  status: ('A' for Active; 'I' for Inactive)
REMARK    1  A    between atoms: C_1  and  C_5
REMARK    2  A    between atoms: C_2  and  C_27
REMARK    3  A    between atoms: C_3  and  C_5
REMARK    4  A    between atoms: C_3  and  C_7
REMARK    5  A    between atoms: C_6  and  C_10
REMARK    6  A    between atoms: C_8  and  C_10
REMARK    7  A    between atoms: C_8  and  C_12
REMARK    8  A    between atoms: C_11  and  C_14
REMARK    9  A    between atoms: C_19  and  O_23
REMARK   10  A    between atoms: C_25  and  C_27
REMARK   11  A    between atoms: C_25  and  C_29
REMARK   12  A    between atoms: C_28  and  C_32
REMARK   13  A    between atoms: C_30  and  C_32
REMARK   14  A    between atoms: C_30  and  C_34
REMARK   15  A    between atoms: C_33  and  C_36
REMARK   16  A    between atoms: C_41  and  O_45
REMARK                            x       y       z     vdW  Elec       q    Type
REMARK                         _______ _______ _______ _____ _____    ______ ____
ROOT
ATOM      1  C   UNL     1      53.233 -55.301  54.320  0.00  0.00    +0.000 C 
ATOM      2  C   UNL     1      54.291 -55.286  54.886  0.00  0.00    +0.000 C 
ENDROOT
BRANCH   2   3
ATOM      3  C   UNL     1      55.642 -55.265  55.611  0.00  0.00    +0.000 C 
BRANCH   3   4
ATOM      4  C   UNL     1      56.785 -55.247  56.221  0.00  0.00    +0.000 C 
ATOM      5  C   UNL     1      57.898 -56.132  55.747  0.00  0.00    +0.000 C 
BRANCH   4   7
ATOM      6  C   UNL     1      57.107 -53.764  58.352  0.00  0.00    +0.000 C 
ATOM      7  C   UNL     1      56.959 -54.445  57.373  0.00  0.00    +0.000 C 
BRANCH   6   8
ATOM      8  C   UNL     1      57.297 -52.896  59.602  0.00  0.00    +0.000 C 
BRANCH   8   9
ATOM      9  C   UNL     1      57.455 -52.164  60.661  0.00  0.00    +0.000 C 
ATOM     10  C   UNL     1      57.084 -52.708  62.007  0.00  0.00    +0.000 C 
BRANCH   9  12
ATOM     11  C   UNL     1      58.627 -49.830  60.463  0.00  0.00    +0.000 C 
ATOM     12  C   UNL     1      58.092 -50.903  60.558  0.00  0.00    +0.000 C 
BRANCH  11  14
ATOM     13  O   UNL     1      60.602 -48.690  59.793  0.00  0.00    +0.000 OA
ATOM     14  C   UNL     1      59.259 -48.526  60.330  0.00  0.00    +0.000 C 
ATOM     15  C   UNL     1      59.680 -48.024  58.932  0.00  0.00    +0.000 C 
ATOM     16  C   UNL     1      59.089 -47.466  61.469  0.00  0.00    +0.000 C 
ATOM     17  C   UNL     1      59.971 -46.634  58.805  0.00  0.00    +0.000 C 
ATOM     18  C   UNL     1      59.586 -46.182  60.954  0.00  0.00    +0.000 C 
ATOM     19  C   UNL     1      59.996 -45.589  59.744  0.00  0.00    +0.000 C 
ATOM     20  C   UNL     1      59.383 -48.797  57.644  0.00  0.00    +0.000 C 
ATOM     21  C   UNL     1      57.569 -47.380  61.747  0.00  0.00    +0.000 C 
ATOM     22  C   UNL     1      59.895 -47.986  62.679  0.00  0.00    +0.000 C 
BRANCH  19  23
ATOM     23  O   UNL     1      60.933 -44.603  59.690  0.00  0.00    +0.000 OA
ATOM     24  H   UNL     1      60.782 -43.903  60.350  0.00  0.00    +0.000 HD
ENDBRANCH  19  23
ENDBRANCH  11  14
ENDBRANCH   9  12
ENDBRANCH   8   9
ENDBRANCH   6   8
ENDBRANCH   4   7
ENDBRANCH   3   4
ENDBRANCH   2   3
BRANCH   1  25
ATOM     25  C   UNL     1      51.881 -55.321  53.596  0.00  0.00    +0.000 C 
BRANCH  25  26
ATOM     26  C   UNL     1      50.739 -55.338  52.984  0.00  0.00    +0.000 C 
ATOM     27  C   UNL     1      50.370 -56.511  52.126  0.00  0.00    +0.000 C 
BRANCH  26  29
ATOM     28  C   UNL     1      49.063 -53.354  53.285  0.00  0.00    +0.000 C 
ATOM     29  C   UNL     1      49.834 -54.264  53.145  0.00  0.00    +0.000 C 
BRANCH  28  30
ATOM     30  C   UNL     1      48.073 -52.196  53.468  0.00  0.00    +0.000 C 
BRANCH  30  31
ATOM     31  C   UNL     1      47.234 -51.220  53.624  0.00  0.00    +0.000 C 
ATOM     32  C   UNL     1      46.111 -51.351  54.607  0.00  0.00    +0.000 C 
BRANCH  31  34
ATOM     33  C   UNL     1      47.551 -48.989  52.288  0.00  0.00    +0.000 C 
ATOM     34  C   UNL     1      47.409 -50.014  52.901  0.00  0.00    +0.000 C 
BRANCH  33  36
ATOM     35  O   UNL     1      46.469 -47.390  50.894  0.00  0.00    +0.000 OA
ATOM     36  C   UNL     1      47.720 -47.746  51.550  0.00  0.00    +0.000 C 
ATOM     37  C   UNL     1      46.882 -46.509  51.937  0.00  0.00    +0.000 C 
ATOM     38  C   UNL     1      49.031 -47.517  50.717  0.00  0.00    +0.000 C 
ATOM     39  C   UNL     1      47.316 -45.245  51.437  0.00  0.00    +0.000 C 
ATOM     40  C   UNL     1      49.062 -46.101  50.345  0.00  0.00    +0.000 C 
ATOM     41  C   UNL     1      48.386 -44.892  50.598  0.00  0.00    +0.000 C 
ATOM     42  C   UNL     1      45.913 -46.480  53.122  0.00  0.00    +0.000 C 
ATOM     43  C   UNL     1      48.945 -48.477  49.509  0.00  0.00    +0.000 C 
ATOM     44  C   UNL     1      50.200 -47.866  51.674  0.00  0.00    +0.000 C 
BRANCH  41  45
ATOM     45  O   UNL     1      49.060 -43.714  50.719  0.00  0.00    +0.000 OA
ATOM     46  H   UNL     1      49.902 -43.816  51.199  0.00  0.00    +0.000 HD
ENDBRANCH  41  45
ENDBRANCH  33  36
ENDBRANCH  31  34
ENDBRANCH  30  31
ENDBRANCH  28  30
ENDBRANCH  26  29
ENDBRANCH  25  26
ENDBRANCH   1  25
TORSDOF 16
ENDMDL
MODEL 2
REMARK VINA RESULT:      -7.5     12.786     19.798
REMARK  Name = 448438_Violaxanthin.pdbqt.pdb
REMARK  16 active torsions:
REMARK  status: ('A' for Active; 'I' for Inactive)
REMARK    1  A    between atoms: C_1  and  C_5
REMARK    2  A    between atoms: C_2  and  C_27
REMARK    3  A    between atoms: C_3  and  C_5
REMARK    4  A    between atoms: C_3  and  C_7
REMARK    5  A    between atoms: C_6  and  C_10
REMARK    6  A    between atoms: C_8  and  C_10
REMARK    7  A    between atoms: C_8  and  C_12
REMARK    8  A    between atoms: C_11  and  C_14
REMARK    9  A    between atoms: C_19  and  O_23
REMARK   10  A    between atoms: C_25  and  C_27
REMARK   11  A    between atoms: C_25  and  C_29
REMARK   12  A    between atoms: C_28  and  C_32
REMARK   13  A    between atoms: C_30  and  C_32
REMARK   14  A    between atoms: C_30  and  C_34
REMARK   15  A    between atoms: C_33  and  C_36
REMARK   16  A    between atoms: C_41  and  O_45
REMARK                            x       y       z     vdW  Elec       q    Type
REMARK                         _______ _______ _______ _____ _____    ______ ____
ROOT
ATOM      1  C   UNL     1      49.873 -35.582  47.275  0.00  0.00    +0.000 C 
ATOM      2  C   UNL     1      49.539 -36.453  48.028  0.00  0.00    +0.000 C 
ENDROOT
BRANCH   2   3
ATOM      3  C   UNL     1      49.113 -37.569  48.989  0.00  0.00    +0.000 C 
BRANCH   3   4
ATOM      4  C   UNL     1      48.751 -38.514  49.799  0.00  0.00    +0.000 C 
ATOM      5  C   UNL     1      48.169 -38.167  51.137  0.00  0.00    +0.000 C 
BRANCH   4   7
ATOM      6  C   UNL     1      49.156 -41.017  49.155  0.00  0.00    +0.000 C 
ATOM      7  C   UNL     1      48.970 -39.867  49.451  0.00  0.00    +0.000 C 
BRANCH   6   8
ATOM      8  C   UNL     1      49.396 -42.484  48.777  0.00  0.00    +0.000 C 
BRANCH   8   9
ATOM      9  C   UNL     1      49.596 -43.724  48.454  0.00  0.00    +0.000 C 
ATOM     10  C   UNL     1      50.271 -44.060  47.160  0.00  0.00    +0.000 C 
BRANCH   9  12
ATOM     11  C   UNL     1      49.017 -45.620  50.167  0.00  0.00    +0.000 C 
ATOM     12  C   UNL     1      49.287 -44.751  49.381  0.00  0.00    +0.000 C 
BRANCH  11  14
ATOM     13  O   UNL     1      48.512 -46.075  52.444  0.00  0.00    +0.000 OA
ATOM     14  C   UNL     1      48.668 -46.661  51.121  0.00  0.00    +0.000 C 
ATOM     15  C   UNL     1      47.316 -46.592  51.863  0.00  0.00    +0.000 C 
ATOM     16  C   UNL     1      49.398 -48.045  51.054  0.00  0.00    +0.000 C 
ATOM     17  C   UNL     1      46.873 -47.782  52.512  0.00  0.00    +0.000 C 
ATOM     18  C   UNL     1      48.668 -48.971  51.932  0.00  0.00    +0.000 C 
ATOM     19  C   UNL     1      47.462 -49.049  52.657  0.00  0.00    +0.000 C 
ATOM     20  C   UNL     1      46.264 -45.516  51.579  0.00  0.00    +0.000 C 
ATOM     21  C   UNL     1      49.295 -48.510  49.581  0.00  0.00    +0.000 C 
ATOM     22  C   UNL     1      50.853 -47.800  51.509  0.00  0.00    +0.000 C 
BRANCH  19  23
ATOM     23  O   UNL     1      47.344 -49.763  53.811  0.00  0.00    +0.000 OA
ATOM     24  H   UNL     1      46.557 -50.337  53.819  0.00  0.00    +0.000 HD
ENDBRANCH  19  23
ENDBRANCH  11  14
ENDBRANCH   9  12
ENDBRANCH   8   9
ENDBRANCH   6   8
ENDBRANCH   4   7
ENDBRANCH   3   4
ENDBRANCH   2   3
BRANCH   1  25
ATOM     25  C   UNL     1      50.299 -34.466  46.312  0.00  0.00    +0.000 C 
BRANCH  25  26
ATOM     26  C   UNL     1      50.660 -33.524  45.499  0.00  0.00    +0.000 C 
ATOM     27  C   UNL     1      51.562 -33.840  44.344  0.00  0.00    +0.000 C 
BRANCH  26  29
ATOM     28  C   UNL     1      49.772 -31.088  45.844  0.00  0.00    +0.000 C 
ATOM     29  C   UNL     1      50.182 -32.206  45.686  0.00  0.00    +0.000 C 
BRANCH  28  30
ATOM     30  C   UNL     1      49.243 -29.662  46.043  0.00  0.00    +0.000 C 
BRANCH  30  31
ATOM     31  C   UNL     1      48.793 -28.458  46.207  0.00  0.00    +0.000 C 
ATOM     32  C   UNL     1      47.445 -28.085  45.669  0.00  0.00    +0.000 C 
BRANCH  31  34
ATOM     33  C   UNL     1      50.201 -26.711  47.559  0.00  0.00    +0.000 C 
ATOM     34  C   UNL     1      49.554 -27.511  46.936  0.00  0.00    +0.000 C 
BRANCH  33  36
ATOM     35  O   UNL     1      50.433 -24.412  48.137  0.00  0.00    +0.000 OA
ATOM     36  C   UNL     1      50.986 -25.747  48.317  0.00  0.00    +0.000 C 
ATOM     37  C   UNL     1      50.319 -24.947  49.455  0.00  0.00    +0.000 C 
ATOM     38  C   UNL     1      52.552 -25.857  48.311  0.00  0.00    +0.000 C 
ATOM     39  C   UNL     1      51.183 -24.288  50.381  0.00  0.00    +0.000 C 
ATOM     40  C   UNL     1      53.048 -24.977  49.372  0.00  0.00    +0.000 C 
ATOM     41  C   UNL     1      52.583 -24.195  50.446  0.00  0.00    +0.000 C 
ATOM     42  C   UNL     1      48.869 -25.154  49.901  0.00  0.00    +0.000 C 
ATOM     43  C   UNL     1      53.006 -25.441  46.893  0.00  0.00    +0.000 C 
ATOM     44  C   UNL     1      52.868 -27.342  48.628  0.00  0.00    +0.000 C 
BRANCH  41  45
ATOM     45  O   UNL     1      53.263 -24.131  51.624  0.00  0.00    +0.000 OA
ATOM     46  H   UNL     1      54.066 -23.581  51.561  0.00  0.00    +0.000 HD
ENDBRANCH  41  45
ENDBRANCH  33  36
ENDBRANCH  31  34
ENDBRANCH  30  31
ENDBRANCH  28  30
ENDBRANCH  26  29
ENDBRANCH  25  26
ENDBRANCH   1  25
TORSDOF 16
ENDMDL
MODEL 3
REMARK VINA RESULT:      -7.5      0.664     12.660
REMARK  Name = 448438_Violaxanthin.pdbqt.pdb
REMARK  16 active torsions:
REMARK  status: ('A' for Active; 'I' for Inactive)
REMARK    1  A    between atoms: C_1  and  C_5
REMARK    2  A    between atoms: C_2  and  C_27
REMARK    3  A    between atoms: C_3  and  C_5
REMARK    4  A    between atoms: C_3  and  C_7
REMARK    5  A    between atoms: C_6  and  C_10
REMARK    6  A    between atoms: C_8  and  C_10
REMARK    7  A    between atoms: C_8  and  C_12
REMARK    8  A    between atoms: C_11  and  C_14
REMARK    9  A    between atoms: C_19  and  O_23
REMARK   10  A    between atoms: C_25  and  C_27
REMARK   11  A    between atoms: C_25  and  C_29
REMARK   12  A    between atoms: C_28  and  C_32
REMARK   13  A    between atoms: C_30  and  C_32
REMARK   14  A    between atoms: C_30  and  C_34
REMARK   15  A    between atoms: C_33  and  C_36
REMARK   16  A    between atoms: C_41  and  O_45
REMARK                            x       y       z     vdW  Elec       q    Type
REMARK                         _______ _______ _______ _____ _____    ______ ____
ROOT
ATOM      1  C   UNL     1      54.012 -55.824  55.331  0.00  0.00    +0.000 C 
ATOM      2  C   UNL     1      53.064 -55.693  54.607  0.00  0.00    +0.000 C 
ENDROOT
BRANCH   2   3
ATOM      3  C   UNL     1      51.853 -55.530  53.683  0.00  0.00    +0.000 C 
BRANCH   3   4
ATOM      4  C   UNL     1      50.829 -55.389  52.900  0.00  0.00    +0.000 C 
ATOM      5  C   UNL     1      50.643 -56.321  51.741  0.00  0.00    +0.000 C 
BRANCH   4   7
ATOM      6  C   UNL     1      49.163 -53.406  53.269  0.00  0.00    +0.000 C 
ATOM      7  C   UNL     1      49.928 -54.317  53.100  0.00  0.00    +0.000 C 
BRANCH   6   8
ATOM      8  C   UNL     1      48.184 -52.245  53.484  0.00  0.00    +0.000 C 
BRANCH   8   9
ATOM      9  C   UNL     1      47.355 -51.264  53.663  0.00  0.00    +0.000 C 
ATOM     10  C   UNL     1      46.317 -51.350  54.740  0.00  0.00    +0.000 C 
BRANCH   9  12
ATOM     11  C   UNL     1      47.653 -49.048  52.298  0.00  0.00    +0.000 C 
ATOM     12  C   UNL     1      47.511 -50.065  52.923  0.00  0.00    +0.000 C 
BRANCH  11  14
ATOM     13  O   UNL     1      46.621 -47.479  50.841  0.00  0.00    +0.000 OA
ATOM     14  C   UNL     1      47.847 -47.815  51.550  0.00  0.00    +0.000 C 
ATOM     15  C   UNL     1      46.987 -46.578  51.885  0.00  0.00    +0.000 C 
ATOM     16  C   UNL     1      49.186 -47.589  50.771  0.00  0.00    +0.000 C 
ATOM     17  C   UNL     1      47.436 -45.322  51.379  0.00  0.00    +0.000 C 
ATOM     18  C   UNL     1      49.218 -46.181  50.350  0.00  0.00    +0.000 C 
ATOM     19  C   UNL     1      48.527 -44.972  50.565  0.00  0.00    +0.000 C 
ATOM     20  C   UNL     1      45.984 -46.547  53.042  0.00  0.00    +0.000 C 
ATOM     21  C   UNL     1      50.321 -47.871  51.785  0.00  0.00    +0.000 C 
ATOM     22  C   UNL     1      49.179 -48.576  49.584  0.00  0.00    +0.000 C 
BRANCH  19  23
ATOM     23  O   UNL     1      48.425 -44.005  49.612  0.00  0.00    +0.000 OA
ATOM     24  H   UNL     1      47.816 -44.249  48.891  0.00  0.00    +0.000 HD
ENDBRANCH  19  23
ENDBRANCH  11  14
ENDBRANCH   9  12
ENDBRANCH   8   9
ENDBRANCH   6   8
ENDBRANCH   4   7
ENDBRANCH   3   4
ENDBRANCH   2   3
BRANCH   1  25
ATOM     25  C   UNL     1      55.225 -55.989  56.256  0.00  0.00    +0.000 C 
BRANCH  25  26
ATOM     26  C   UNL     1      56.249 -56.128  57.037  0.00  0.00    +0.000 C 
ATOM     27  C   UNL     1      57.206 -57.261  56.817  0.00  0.00    +0.000 C 
BRANCH  26  29
ATOM     28  C   UNL     1      56.674 -54.410  58.962  0.00  0.00    +0.000 C 
ATOM     29  C   UNL     1      56.477 -55.200  58.078  0.00  0.00    +0.000 C 
BRANCH  28  30
ATOM     30  C   UNL     1      56.933 -53.403  60.090  0.00  0.00    +0.000 C 
BRANCH  30  31
ATOM     31  C   UNL     1      57.149 -52.549  61.040  0.00  0.00    +0.000 C 
ATOM     32  C   UNL     1      56.718 -52.864  62.440  0.00  0.00    +0.000 C 
BRANCH  31  34
ATOM     33  C   UNL     1      58.414 -50.311  60.532  0.00  0.00    +0.000 C 
ATOM     34  C   UNL     1      57.834 -51.340  60.763  0.00  0.00    +0.000 C 
BRANCH  33  36
ATOM     35  O   UNL     1      60.413 -49.354  59.662  0.00  0.00    +0.000 OA
ATOM     36  C   UNL     1      59.116 -49.066  60.259  0.00  0.00    +0.000 C 
ATOM     37  C   UNL     1      59.480 -48.698  58.805  0.00  0.00    +0.000 C 
ATOM     38  C   UNL     1      59.083 -47.914  61.326  0.00  0.00    +0.000 C 
ATOM     39  C   UNL     1      59.843 -47.342  58.548  0.00  0.00    +0.000 C 
ATOM     40  C   UNL     1      59.597 -46.709  60.672  0.00  0.00    +0.000 C 
ATOM     41  C   UNL     1      59.972 -46.233  59.401  0.00  0.00    +0.000 C 
ATOM     42  C   UNL     1      59.077 -49.539  57.592  0.00  0.00    +0.000 C 
ATOM     43  C   UNL     1      59.952 -48.400  62.509  0.00  0.00    +0.000 C 
ATOM     44  C   UNL     1      57.591 -47.745  61.711  0.00  0.00    +0.000 C 
BRANCH  41  45
ATOM     45  O   UNL     1      59.684 -44.962  59.006  0.00  0.00    +0.000 OA
ATOM     46  H   UNL     1      58.747 -44.852  58.762  0.00  0.00    +0.000 HD
ENDBRANCH  41  45
ENDBRANCH  33  36
ENDBRANCH  31  34
ENDBRANCH  30  31
ENDBRANCH  28  30
ENDBRANCH  26  29
ENDBRANCH  25  26
ENDBRANCH   1  25
TORSDOF 16
ENDMDL
MODEL 4
REMARK VINA RESULT:      -7.2     12.871     20.469
REMARK  Name = 448438_Violaxanthin.pdbqt.pdb
REMARK  16 active torsions:
REMARK  status: ('A' for Active; 'I' for Inactive)
REMARK    1  A    between atoms: C_1  and  C_5
REMARK    2  A    between atoms: C_2  and  C_27
REMARK    3  A    between atoms: C_3  and  C_5
REMARK    4  A    between atoms: C_3  and  C_7
REMARK    5  A    between atoms: C_6  and  C_10
REMARK    6  A    between atoms: C_8  and  C_10
REMARK    7  A    between atoms: C_8  and  C_12
REMARK    8  A    between atoms: C_11  and  C_14
REMARK    9  A    between atoms: C_19  and  O_23
REMARK   10  A    between atoms: C_25  and  C_27
REMARK   11  A    between atoms: C_25  and  C_29
REMARK   12  A    between atoms: C_28  and  C_32
REMARK   13  A    between atoms: C_30  and  C_32
REMARK   14  A    between atoms: C_30  and  C_34
REMARK   15  A    between atoms: C_33  and  C_36
REMARK   16  A    between atoms: C_41  and  O_45
REMARK                            x       y       z     vdW  Elec       q    Type
REMARK                         _______ _______ _______ _____ _____    ______ ____
ROOT
ATOM      1  C   UNL     1      49.492 -36.455  48.018  0.00  0.00    +0.000 C 
ATOM      2  C   UNL     1      49.419 -35.553  47.231  0.00  0.00    +0.000 C 
ENDROOT
BRANCH   2   3
ATOM      3  C   UNL     1      49.328 -34.399  46.225  0.00  0.00    +0.000 C 
BRANCH   3   4
ATOM      4  C   UNL     1      49.251 -33.426  45.373  0.00  0.00    +0.000 C 
ATOM      5  C   UNL     1      48.629 -33.659  44.029  0.00  0.00    +0.000 C 
BRANCH   4   7
ATOM      6  C   UNL     1      50.295 -31.098  45.949  0.00  0.00    +0.000 C 
ATOM      7  C   UNL     1      49.816 -32.167  45.684  0.00  0.00    +0.000 C 
BRANCH   6   8
ATOM      8  C   UNL     1      50.908 -29.733  46.289  0.00  0.00    +0.000 C 
BRANCH   8   9
ATOM      9  C   UNL     1      51.428 -28.581  46.578  0.00  0.00    +0.000 C 
ATOM     10  C   UNL     1      52.800 -28.236  46.087  0.00  0.00    +0.000 C 
BRANCH   9  12
ATOM     11  C   UNL     1      49.998 -26.775  47.826  0.00  0.00    +0.000 C 
ATOM     12  C   UNL     1      50.651 -27.607  47.253  0.00  0.00    +0.000 C 
BRANCH  11  14
ATOM     13  O   UNL     1      48.551 -26.351  49.663  0.00  0.00    +0.000 OA
ATOM     14  C   UNL     1      49.229 -25.755  48.522  0.00  0.00    +0.000 C 
ATOM     15  C   UNL     1      49.573 -25.410  49.987  0.00  0.00    +0.000 C 
ATOM     16  C   UNL     1      48.411 -24.707  47.695  0.00  0.00    +0.000 C 
ATOM     17  C   UNL     1      49.039 -24.194  50.507  0.00  0.00    +0.000 C 
ATOM     18  C   UNL     1      47.971 -23.657  48.625  0.00  0.00    +0.000 C 
ATOM     19  C   UNL     1      48.190 -23.225  49.948  0.00  0.00    +0.000 C 
ATOM     20  C   UNL     1      50.757 -26.031  50.734  0.00  0.00    +0.000 C 
ATOM     21  C   UNL     1      49.396 -24.123  46.654  0.00  0.00    +0.000 C 
ATOM     22  C   UNL     1      47.237 -25.474  47.049  0.00  0.00    +0.000 C 
BRANCH  19  23
ATOM     23  O   UNL     1      47.229 -22.606  50.687  0.00  0.00    +0.000 OA
ATOM     24  H   UNL     1      47.199 -21.644  50.537  0.00  0.00    +0.000 HD
ENDBRANCH  19  23
ENDBRANCH  11  14
ENDBRANCH   9  12
ENDBRANCH   8   9
ENDBRANCH   6   8
ENDBRANCH   4   7
ENDBRANCH   3   4
ENDBRANCH   2   3
BRANCH   1  25
ATOM     25  C   UNL     1      49.585 -37.608  49.025  0.00  0.00    +0.000 C 
BRANCH  25  26
ATOM     26  C   UNL     1      49.662 -38.582  49.876  0.00  0.00    +0.000 C 
ATOM     27  C   UNL     1      49.822 -38.285  51.337  0.00  0.00    +0.000 C 
BRANCH  26  29
ATOM     28  C   UNL     1      49.497 -41.058  49.052  0.00  0.00    +0.000 C 
ATOM     29  C   UNL     1      49.571 -39.921  49.430  0.00  0.00    +0.000 C 
BRANCH  28  30
ATOM     30  C   UNL     1      49.409 -42.511  48.567  0.00  0.00    +0.000 C 
BRANCH  30  31
ATOM     31  C   UNL     1      49.339 -43.740  48.161  0.00  0.00    +0.000 C 
ATOM     32  C   UNL     1      49.555 -44.062  46.713  0.00  0.00    +0.000 C 
BRANCH  31  34
ATOM     33  C   UNL     1      48.908 -45.661  49.889  0.00  0.00    +0.000 C 
ATOM     34  C   UNL     1      49.105 -44.781  49.093  0.00  0.00    +0.000 C 
BRANCH  33  36
ATOM     35  O   UNL     1      48.530 -46.150  52.189  0.00  0.00    +0.000 OA
ATOM     36  C   UNL     1      48.667 -46.722  50.857  0.00  0.00    +0.000 C 
ATOM     37  C   UNL     1      47.346 -46.740  51.655  0.00  0.00    +0.000 C 
ATOM     38  C   UNL     1      49.487 -48.057  50.755  0.00  0.00    +0.000 C 
ATOM     39  C   UNL     1      47.003 -47.956  52.318  0.00  0.00    +0.000 C 
ATOM     40  C   UNL     1      48.836 -49.028  51.637  0.00  0.00    +0.000 C 
ATOM     41  C   UNL     1      47.675 -49.186  52.418  0.00  0.00    +0.000 C 
ATOM     42  C   UNL     1      46.212 -45.735  51.441  0.00  0.00    +0.000 C 
ATOM     43  C   UNL     1      50.933 -47.706  51.172  0.00  0.00    +0.000 C 
ATOM     44  C   UNL     1      49.384 -48.498  49.271  0.00  0.00    +0.000 C 
BRANCH  41  45
ATOM     45  O   UNL     1      47.023 -50.380  52.485  0.00  0.00    +0.000 OA
ATOM     46  H   UNL     1      47.345 -51.018  51.823  0.00  0.00    +0.000 HD
ENDBRANCH  41  45
ENDBRANCH  33  36
ENDBRANCH  31  34
ENDBRANCH  30  31
ENDBRANCH  28  30
ENDBRANCH  26  29
ENDBRANCH  25  26
ENDBRANCH   1  25
TORSDOF 16
ENDMDL
MODEL 5
REMARK VINA RESULT:      -7.2     12.834     19.901
REMARK  Name = 448438_Violaxanthin.pdbqt.pdb
REMARK  16 active torsions:
REMARK  status: ('A' for Active; 'I' for Inactive)
REMARK    1  A    between atoms: C_1  and  C_5
REMARK    2  A    between atoms: C_2  and  C_27
REMARK    3  A    between atoms: C_3  and  C_5
REMARK    4  A    between atoms: C_3  and  C_7
REMARK    5  A    between atoms: C_6  and  C_10
REMARK    6  A    between atoms: C_8  and  C_10
REMARK    7  A    between atoms: C_8  and  C_12
REMARK    8  A    between atoms: C_11  and  C_14
REMARK    9  A    between atoms: C_19  and  O_23
REMARK   10  A    between atoms: C_25  and  C_27
REMARK   11  A    between atoms: C_25  and  C_29
REMARK   12  A    between atoms: C_28  and  C_32
REMARK   13  A    between atoms: C_30  and  C_32
REMARK   14  A    between atoms: C_30  and  C_34
REMARK   15  A    between atoms: C_33  and  C_36
REMARK   16  A    between atoms: C_41  and  O_45
REMARK                            x       y       z     vdW  Elec       q    Type
REMARK                         _______ _______ _______ _____ _____    ______ ____
ROOT
ATOM      1  C   UNL     1      49.416 -35.454  47.376  0.00  0.00    +0.000 C 
ATOM      2  C   UNL     1      49.472 -36.355  48.167  0.00  0.00    +0.000 C 
ENDROOT
BRANCH   2   3
ATOM      3  C   UNL     1      49.546 -37.507  49.175  0.00  0.00    +0.000 C 
BRANCH   3   4
ATOM      4  C   UNL     1      49.606 -38.483  50.026  0.00  0.00    +0.000 C 
ATOM      5  C   UNL     1      49.811 -38.191  51.482  0.00  0.00    +0.000 C 
BRANCH   4   7
ATOM      6  C   UNL     1      49.497 -40.958  49.188  0.00  0.00    +0.000 C 
ATOM      7  C   UNL     1      49.547 -39.821  49.573  0.00  0.00    +0.000 C 
BRANCH   6   8
ATOM      8  C   UNL     1      49.436 -42.410  48.696  0.00  0.00    +0.000 C 
BRANCH   8   9
ATOM      9  C   UNL     1      49.381 -43.637  48.279  0.00  0.00    +0.000 C 
ATOM     10  C   UNL     1      49.694 -43.954  46.850  0.00  0.00    +0.000 C 
BRANCH   9  12
ATOM     11  C   UNL     1      48.938 -45.576  49.983  0.00  0.00    +0.000 C 
ATOM     12  C   UNL     1      49.145 -44.685  49.203  0.00  0.00    +0.000 C 
BRANCH  11  14
ATOM     13  O   UNL     1      48.495 -46.111  52.256  0.00  0.00    +0.000 OA
ATOM     14  C   UNL     1      48.664 -46.657  50.918  0.00  0.00    +0.000 C 
ATOM     15  C   UNL     1      47.321 -46.682  51.680  0.00  0.00    +0.000 C 
ATOM     16  C   UNL     1      49.470 -47.995  50.808  0.00  0.00    +0.000 C 
ATOM     17  C   UNL     1      46.957 -47.911  52.307  0.00  0.00    +0.000 C 
ATOM     18  C   UNL     1      48.808 -48.981  51.675  0.00  0.00    +0.000 C 
ATOM     19  C   UNL     1      47.620 -49.144  52.415  0.00  0.00    +0.000 C 
ATOM     20  C   UNL     1      46.204 -45.663  51.436  0.00  0.00    +0.000 C 
ATOM     21  C   UNL     1      49.371 -48.431  49.327  0.00  0.00    +0.000 C 
ATOM     22  C   UNL     1      50.915 -47.677  51.248  0.00  0.00    +0.000 C 
BRANCH  19  23
ATOM     23  O   UNL     1      47.561 -49.890  53.553  0.00  0.00    +0.000 OA
ATOM     24  H   UNL     1      48.439 -50.182  53.858  0.00  0.00    +0.000 HD
ENDBRANCH  19  23
ENDBRANCH  11  14
ENDBRANCH   9  12
ENDBRANCH   8   9
ENDBRANCH   6   8
ENDBRANCH   4   7
ENDBRANCH   3   4
ENDBRANCH   2   3
BRANCH   1  25
ATOM     25  C   UNL     1      49.343 -34.302  46.366  0.00  0.00    +0.000 C 
BRANCH  25  26
ATOM     26  C   UNL     1      49.281 -33.328  45.513  0.00  0.00    +0.000 C 
ATOM     27  C   UNL     1      48.386 -33.442  44.316  0.00  0.00    +0.000 C 
BRANCH  26  29
ATOM     28  C   UNL     1      50.675 -31.151  45.905  0.00  0.00    +0.000 C 
ATOM     29  C   UNL     1      50.036 -32.152  45.725  0.00  0.00    +0.000 C 
BRANCH  28  30
ATOM     30  C   UNL     1      51.485 -29.868  46.132  0.00  0.00    +0.000 C 
BRANCH  30  31
ATOM     31  C   UNL     1      52.165 -28.782  46.327  0.00  0.00    +0.000 C 
ATOM     32  C   UNL     1      53.427 -28.543  45.555  0.00  0.00    +0.000 C 
BRANCH  31  34
ATOM     33  C   UNL     1      51.280 -26.970  48.000  0.00  0.00    +0.000 C 
ATOM     34  C   UNL     1      51.689 -27.802  47.233  0.00  0.00    +0.000 C 
BRANCH  33  36
ATOM     35  O   UNL     1      51.311 -26.221  50.260  0.00  0.00    +0.000 OA
ATOM     36  C   UNL     1      50.779 -25.968  48.928  0.00  0.00    +0.000 C 
ATOM     37  C   UNL     1      51.770 -25.023  49.639  0.00  0.00    +0.000 C 
ATOM     38  C   UNL     1      49.271 -25.535  48.853  0.00  0.00    +0.000 C 
ATOM     39  C   UNL     1      51.230 -23.854  50.254  0.00  0.00    +0.000 C 
ATOM     40  C   UNL     1      49.130 -24.329  49.673  0.00  0.00    +0.000 C 
ATOM     41  C   UNL     1      49.910 -23.389  50.373  0.00  0.00    +0.000 C 
ATOM     42  C   UNL     1      53.278 -25.019  49.371  0.00  0.00    +0.000 C 
ATOM     43  C   UNL     1      48.453 -26.740  49.371  0.00  0.00    +0.000 C 
ATOM     44  C   UNL     1      48.999 -25.226  47.358  0.00  0.00    +0.000 C 
BRANCH  41  45
ATOM     45  O   UNL     1      49.592 -22.064  50.374  0.00  0.00    +0.000 OA
ATOM     46  H   UNL     1      48.809 -21.870  50.922  0.00  0.00    +0.000 HD
ENDBRANCH  41  45
ENDBRANCH  33  36
ENDBRANCH  31  34
ENDBRANCH  30  31
ENDBRANCH  28  30
ENDBRANCH  26  29
ENDBRANCH  25  26
ENDBRANCH   1  25
TORSDOF 16
ENDMDL
MODEL 6
REMARK VINA RESULT:      -7.0      7.692     11.871
REMARK  Name = 448438_Violaxanthin.pdbqt.pdb
REMARK  16 active torsions:
REMARK  status: ('A' for Active; 'I' for Inactive)
REMARK    1  A    between atoms: C_1  and  C_5
REMARK    2  A    between atoms: C_2  and  C_27
REMARK    3  A    between atoms: C_3  and  C_5
REMARK    4  A    between atoms: C_3  and  C_7
REMARK    5  A    between atoms: C_6  and  C_10
REMARK    6  A    between atoms: C_8  and  C_10
REMARK    7  A    between atoms: C_8  and  C_12
REMARK    8  A    between atoms: C_11  and  C_14
REMARK    9  A    between atoms: C_19  and  O_23
REMARK   10  A    between atoms: C_25  and  C_27
REMARK   11  A    between atoms: C_25  and  C_29
REMARK   12  A    between atoms: C_28  and  C_32
REMARK   13  A    between atoms: C_30  and  C_32
REMARK   14  A    between atoms: C_30  and  C_34
REMARK   15  A    between atoms: C_33  and  C_36
REMARK   16  A    between atoms: C_41  and  O_45
REMARK                            x       y       z     vdW  Elec       q    Type
REMARK                         _______ _______ _______ _____ _____    ______ ____
ROOT
ATOM      1  C   UNL     1      49.793 -47.798  50.252  0.00  0.00    +0.000 C 
ATOM      2  C   UNL     1      49.258 -48.758  50.732  0.00  0.00    +0.000 C 
ENDROOT
BRANCH   2   3
ATOM      3  C   UNL     1      48.573 -49.984  51.347  0.00  0.00    +0.000 C 
BRANCH   3   4
ATOM      4  C   UNL     1      47.996 -51.021  51.869  0.00  0.00    +0.000 C 
ATOM      5  C   UNL     1      46.504 -51.152  51.809  0.00  0.00    +0.000 C 
BRANCH   4   7
ATOM      6  C   UNL     1      49.421 -52.814  53.133  0.00  0.00    +0.000 C 
ATOM      7  C   UNL     1      48.767 -51.990  52.552  0.00  0.00    +0.000 C 
BRANCH   6   8
ATOM      8  C   UNL     1      50.259 -53.864  53.873  0.00  0.00    +0.000 C 
BRANCH   8   9
ATOM      9  C   UNL     1      50.964 -54.754  54.499  0.00  0.00    +0.000 C 
ATOM     10  C   UNL     1      52.319 -55.132  53.984  0.00  0.00    +0.000 C 
BRANCH   9  12
ATOM     11  C   UNL     1      50.120 -55.710  56.787  0.00  0.00    +0.000 C 
ATOM     12  C   UNL     1      50.505 -55.275  55.735  0.00  0.00    +0.000 C 
BRANCH  11  14
ATOM     13  O   UNL     1      49.762 -55.167  59.073  0.00  0.00    +0.000 OA
ATOM     14  C   UNL     1      49.666 -56.219  58.073  0.00  0.00    +0.000 C 
ATOM     15  C   UNL     1      48.435 -55.581  58.752  0.00  0.00    +0.000 C 
ATOM     16  C   UNL     1      50.094 -57.655  58.529  0.00  0.00    +0.000 C 
ATOM     17  C   UNL     1      47.829 -56.317  59.813  0.00  0.00    +0.000 C 
ATOM     18  C   UNL     1      49.284 -58.003  59.705  0.00  0.00    +0.000 C 
ATOM     19  C   UNL     1      48.165 -57.537  60.423  0.00  0.00    +0.000 C 
ATOM     20  C   UNL     1      47.596 -54.482  58.095  0.00  0.00    +0.000 C 
ATOM     21  C   UNL     1      49.755 -58.595  57.347  0.00  0.00    +0.000 C 
ATOM     22  C   UNL     1      51.606 -57.589  58.832  0.00  0.00    +0.000 C 
BRANCH  19  23
ATOM     23  O   UNL     1      48.021 -57.728  61.764  0.00  0.00    +0.000 OA
ATOM     24  H   UNL     1      48.142 -56.909  62.276  0.00  0.00    +0.000 HD
ENDBRANCH  19  23
ENDBRANCH  11  14
ENDBRANCH   9  12
ENDBRANCH   8   9
ENDBRANCH   6   8
ENDBRANCH   4   7
ENDBRANCH   3   4
ENDBRANCH   2   3
BRANCH   1  25
ATOM     25  C   UNL     1      50.478 -46.570  49.638  0.00  0.00    +0.000 C 
BRANCH  25  26
ATOM     26  C   UNL     1      51.056 -45.533  49.119  0.00  0.00    +0.000 C 
ATOM     27  C   UNL     1      52.429 -45.662  48.530  0.00  0.00    +0.000 C 
BRANCH  26  29
ATOM     28  C   UNL     1      49.808 -43.236  49.058  0.00  0.00    +0.000 C 
ATOM     29  C   UNL     1      50.383 -44.290  49.085  0.00  0.00    +0.000 C 
BRANCH  28  30
ATOM     30  C   UNL     1      49.068 -41.893  49.024  0.00  0.00    +0.000 C 
BRANCH  30  31
ATOM     31  C   UNL     1      48.446 -40.756  48.992  0.00  0.00    +0.000 C 
ATOM     32  C   UNL     1      47.572 -40.351  50.140  0.00  0.00    +0.000 C 
BRANCH  31  34
ATOM     33  C   UNL     1      48.785 -39.134  46.963  0.00  0.00    +0.000 C 
ATOM     34  C   UNL     1      48.632 -39.878  47.896  0.00  0.00    +0.000 C 
BRANCH  33  36
ATOM     35  O   UNL     1      47.931 -37.206  45.856  0.00  0.00    +0.000 OA
ATOM     36  C   UNL     1      48.963 -38.233  45.834  0.00  0.00    +0.000 C 
ATOM     37  C   UNL     1      49.259 -36.740  46.089  0.00  0.00    +0.000 C 
ATOM     38  C   UNL     1      49.323 -38.827  44.425  0.00  0.00    +0.000 C 
ATOM     39  C   UNL     1      49.764 -35.980  44.992  0.00  0.00    +0.000 C 
ATOM     40  C   UNL     1      49.733 -37.704  43.578  0.00  0.00    +0.000 C 
ATOM     41  C   UNL     1      50.028 -36.329  43.657  0.00  0.00    +0.000 C 
ATOM     42  C   UNL     1      49.455 -36.141  47.484  0.00  0.00    +0.000 C 
ATOM     43  C   UNL     1      48.051 -39.550  43.928  0.00  0.00    +0.000 C 
ATOM     44  C   UNL     1      50.505 -39.799  44.671  0.00  0.00    +0.000 C 
BRANCH  41  45
ATOM     45  O   UNL     1      51.046 -35.780  42.938  0.00  0.00    +0.000 OA
ATOM     46  H   UNL     1      51.900 -35.833  43.404  0.00  0.00    +0.000 HD
ENDBRANCH  41  45
ENDBRANCH  33  36
ENDBRANCH  31  34
ENDBRANCH  30  31
ENDBRANCH  28  30
ENDBRANCH  26  29
ENDBRANCH  25  26
ENDBRANCH   1  25
TORSDOF 16
ENDMDL
MODEL 7
REMARK VINA RESULT:      -6.9      1.719     12.814
REMARK  Name = 448438_Violaxanthin.pdbqt.pdb
REMARK  16 active torsions:
REMARK  status: ('A' for Active; 'I' for Inactive)
REMARK    1  A    between atoms: C_1  and  C_5
REMARK    2  A    between atoms: C_2  and  C_27
REMARK    3  A    between atoms: C_3  and  C_5
REMARK    4  A    between atoms: C_3  and  C_7
REMARK    5  A    between atoms: C_6  and  C_10
REMARK    6  A    between atoms: C_8  and  C_10
REMARK    7  A    between atoms: C_8  and  C_12
REMARK    8  A    between atoms: C_11  and  C_14
REMARK    9  A    between atoms: C_19  and  O_23
REMARK   10  A    between atoms: C_25  and  C_27
REMARK   11  A    between atoms: C_25  and  C_29
REMARK   12  A    between atoms: C_28  and  C_32
REMARK   13  A    between atoms: C_30  and  C_32
REMARK   14  A    between atoms: C_30  and  C_34
REMARK   15  A    between atoms: C_33  and  C_36
REMARK   16  A    between atoms: C_41  and  O_45
REMARK                            x       y       z     vdW  Elec       q    Type
REMARK                         _______ _______ _______ _____ _____    ______ ____
ROOT
ATOM      1  C   UNL     1      53.152 -56.227  56.532  0.00  0.00    +0.000 C 
ATOM      2  C   UNL     1      52.487 -55.940  55.576  0.00  0.00    +0.000 C 
ENDROOT
BRANCH   2   3
ATOM      3  C   UNL     1      51.634 -55.575  54.355  0.00  0.00    +0.000 C 
BRANCH   3   4
ATOM      4  C   UNL     1      50.912 -55.266  53.325  0.00  0.00    +0.000 C 
ATOM      5  C   UNL     1      51.142 -55.961  52.017  0.00  0.00    +0.000 C 
BRANCH   4   7
ATOM      6  C   UNL     1      49.144 -53.345  53.494  0.00  0.00    +0.000 C 
ATOM      7  C   UNL     1      49.956 -54.227  53.416  0.00  0.00    +0.000 C 
BRANCH   6   8
ATOM      8  C   UNL     1      48.107 -52.220  53.591  0.00  0.00    +0.000 C 
BRANCH   8   9
ATOM      9  C   UNL     1      47.231 -51.266  53.676  0.00  0.00    +0.000 C 
ATOM     10  C   UNL     1      46.092 -51.383  54.642  0.00  0.00    +0.000 C 
BRANCH   9  12
ATOM     11  C   UNL     1      47.593 -49.051  52.327  0.00  0.00    +0.000 C 
ATOM     12  C   UNL     1      47.422 -50.067  52.947  0.00  0.00    +0.000 C 
BRANCH  11  14
ATOM     13  O   UNL     1      46.598 -47.430  50.902  0.00  0.00    +0.000 OA
ATOM     14  C   UNL     1      47.825 -47.825  51.578  0.00  0.00    +0.000 C 
ATOM     15  C   UNL     1      47.031 -46.551  51.939  0.00  0.00    +0.000 C 
ATOM     16  C   UNL     1      49.153 -47.657  50.765  0.00  0.00    +0.000 C 
ATOM     17  C   UNL     1      47.525 -45.315  51.425  0.00  0.00    +0.000 C 
ATOM     18  C   UNL     1      49.239 -46.250  50.348  0.00  0.00    +0.000 C 
ATOM     19  C   UNL     1      48.609 -45.012  50.584  0.00  0.00    +0.000 C 
ATOM     20  C   UNL     1      46.061 -46.480  53.121  0.00  0.00    +0.000 C 
ATOM     21  C   UNL     1      50.299 -47.995  51.749  0.00  0.00    +0.000 C 
ATOM     22  C   UNL     1      49.070 -48.638  49.576  0.00  0.00    +0.000 C 
BRANCH  19  23
ATOM     23  O   UNL     1      48.527 -44.037  49.637  0.00  0.00    +0.000 OA
ATOM     24  H   UNL     1      47.869 -44.237  48.946  0.00  0.00    +0.000 HD
ENDBRANCH  19  23
ENDBRANCH  11  14
ENDBRANCH   9  12
ENDBRANCH   8   9
ENDBRANCH   6   8
ENDBRANCH   4   7
ENDBRANCH   3   4
ENDBRANCH   2   3
BRANCH   1  25
ATOM     25  C   UNL     1      54.004 -56.594  57.753  0.00  0.00    +0.000 C 
BRANCH  25  26
ATOM     26  C   UNL     1      54.725 -56.904  58.785  0.00  0.00    +0.000 C 
ATOM     27  C   UNL     1      54.368 -58.104  59.610  0.00  0.00    +0.000 C 
BRANCH  26  29
ATOM     28  C   UNL     1      56.824 -55.470  59.395  0.00  0.00    +0.000 C 
ATOM     29  C   UNL     1      55.858 -56.127  59.116  0.00  0.00    +0.000 C 
BRANCH  28  30
ATOM     30  C   UNL     1      58.062 -54.635  59.750  0.00  0.00    +0.000 C 
BRANCH  30  31
ATOM     31  C   UNL     1      59.105 -53.926  60.048  0.00  0.00    +0.000 C 
ATOM     32  C   UNL     1      60.439 -54.590  60.205  0.00  0.00    +0.000 C 
BRANCH  31  34
ATOM     33  C   UNL     1      58.900 -51.325  60.284  0.00  0.00    +0.000 C 
ATOM     34  C   UNL     1      58.991 -52.520  60.177  0.00  0.00    +0.000 C 
BRANCH  33  36
ATOM     35  O   UNL     1      57.389 -49.496  60.492  0.00  0.00    +0.000 OA
ATOM     36  C   UNL     1      58.791 -49.879  60.407  0.00  0.00    +0.000 C 
ATOM     37  C   UNL     1      58.156 -49.266  61.672  0.00  0.00    +0.000 C 
ATOM     38  C   UNL     1      59.710 -48.961  59.523  0.00  0.00    +0.000 C 
ATOM     39  C   UNL     1      58.382 -47.877  61.907  0.00  0.00    +0.000 C 
ATOM     40  C   UNL     1      59.607 -47.603  60.064  0.00  0.00    +0.000 C 
ATOM     41  C   UNL     1      59.073 -46.905  61.165  0.00  0.00    +0.000 C 
ATOM     42  C   UNL     1      57.686 -50.095  62.871  0.00  0.00    +0.000 C 
ATOM     43  C   UNL     1      59.186 -49.096  58.075  0.00  0.00    +0.000 C 
ATOM     44  C   UNL     1      61.146 -49.520  59.694  0.00  0.00    +0.000 C 
BRANCH  41  45
ATOM     45  O   UNL     1      59.749 -45.875  61.746  0.00  0.00    +0.000 OA
ATOM     46  H   UNL     1      59.154 -45.247  62.195  0.00  0.00    +0.000 HD
ENDBRANCH  41  45
ENDBRANCH  33  36
ENDBRANCH  31  34
ENDBRANCH  30  31
ENDBRANCH  28  30
ENDBRANCH  26  29
ENDBRANCH  25  26
ENDBRANCH   1  25
TORSDOF 16
ENDMDL
MODEL 8
REMARK VINA RESULT:      -6.8     10.612     16.379
REMARK  Name = 448438_Violaxanthin.pdbqt.pdb
REMARK  16 active torsions:
REMARK  status: ('A' for Active; 'I' for Inactive)
REMARK    1  A    between atoms: C_1  and  C_5
REMARK    2  A    between atoms: C_2  and  C_27
REMARK    3  A    between atoms: C_3  and  C_5
REMARK    4  A    between atoms: C_3  and  C_7
REMARK    5  A    between atoms: C_6  and  C_10
REMARK    6  A    between atoms: C_8  and  C_10
REMARK    7  A    between atoms: C_8  and  C_12
REMARK    8  A    between atoms: C_11  and  C_14
REMARK    9  A    between atoms: C_19  and  O_23
REMARK   10  A    between atoms: C_25  and  C_27
REMARK   11  A    between atoms: C_25  and  C_29
REMARK   12  A    between atoms: C_28  and  C_32
REMARK   13  A    between atoms: C_30  and  C_32
REMARK   14  A    between atoms: C_30  and  C_34
REMARK   15  A    between atoms: C_33  and  C_36
REMARK   16  A    between atoms: C_41  and  O_45
REMARK                            x       y       z     vdW  Elec       q    Type
REMARK                         _______ _______ _______ _____ _____    ______ ____
ROOT
ATOM      1  C   UNL     1      48.327 -40.562  51.045  0.00  0.00    +0.000 C 
ATOM      2  C   UNL     1      48.253 -41.752  51.180  0.00  0.00    +0.000 C 
ENDROOT
BRANCH   2   3
ATOM      3  C   UNL     1      48.157 -43.272  51.354  0.00  0.00    +0.000 C 
BRANCH   3   4
ATOM      4  C   UNL     1      48.077 -44.558  51.499  0.00  0.00    +0.000 C 
ATOM      5  C   UNL     1      47.468 -45.131  52.744  0.00  0.00    +0.000 C 
BRANCH   4   7
ATOM      6  C   UNL     1      49.089 -46.145  49.683  0.00  0.00    +0.000 C 
ATOM      7  C   UNL     1      48.624 -45.416  50.517  0.00  0.00    +0.000 C 
BRANCH   6   8
ATOM      8  C   UNL     1      49.682 -47.074  48.617  0.00  0.00    +0.000 C 
BRANCH   8   9
ATOM      9  C   UNL     1      50.187 -47.860  47.717  0.00  0.00    +0.000 C 
ATOM     10  C   UNL     1      49.342 -48.937  47.108  0.00  0.00    +0.000 C 
BRANCH   9  12
ATOM     11  C   UNL     1      52.599 -47.416  46.798  0.00  0.00    +0.000 C 
ATOM     12  C   UNL     1      51.494 -47.621  47.224  0.00  0.00    +0.000 C 
BRANCH  11  14
ATOM     13  O   UNL     1      54.929 -47.700  47.169  0.00  0.00    +0.000 OA
ATOM     14  C   UNL     1      53.927 -47.164  46.260  0.00  0.00    +0.000 C 
ATOM     15  C   UNL     1      54.842 -48.355  45.904  0.00  0.00    +0.000 C 
ATOM     16  C   UNL     1      54.246 -45.774  45.613  0.00  0.00    +0.000 C 
ATOM     17  C   UNL     1      55.971 -48.078  45.077  0.00  0.00    +0.000 C 
ATOM     18  C   UNL     1      55.538 -45.896  44.923  0.00  0.00    +0.000 C 
ATOM     19  C   UNL     1      56.466 -46.881  44.531  0.00  0.00    +0.000 C 
ATOM     20  C   UNL     1      54.389 -49.814  46.004  0.00  0.00    +0.000 C 
ATOM     21  C   UNL     1      53.115 -45.511  44.590  0.00  0.00    +0.000 C 
ATOM     22  C   UNL     1      54.269 -44.746  46.764  0.00  0.00    +0.000 C 
BRANCH  19  23
ATOM     23  O   UNL     1      57.802 -46.637  44.440  0.00  0.00    +0.000 OA
ATOM     24  H   UNL     1      58.241 -47.191  43.770  0.00  0.00    +0.000 HD
ENDBRANCH  19  23
ENDBRANCH  11  14
ENDBRANCH   9  12
ENDBRANCH   8   9
ENDBRANCH   6   8
ENDBRANCH   4   7
ENDBRANCH   3   4
ENDBRANCH   2   3
BRANCH   1  25
ATOM     25  C   UNL     1      48.422 -39.042  50.872  0.00  0.00    +0.000 C 
BRANCH  25  26
ATOM     26  C   UNL     1      48.503 -37.756  50.725  0.00  0.00    +0.000 C 
ATOM     27  C   UNL     1      48.433 -36.863  51.927  0.00  0.00    +0.000 C 
BRANCH  26  29
ATOM     28  C   UNL     1      48.833 -36.726  48.345  0.00  0.00    +0.000 C 
ATOM     29  C   UNL     1      48.683 -37.201  49.437  0.00  0.00    +0.000 C 
BRANCH  28  30
ATOM     30  C   UNL     1      49.019 -36.115  46.950  0.00  0.00    +0.000 C 
BRANCH  30  31
ATOM     31  C   UNL     1      49.178 -35.595  45.773  0.00  0.00    +0.000 C 
ATOM     32  C   UNL     1      48.645 -36.303  44.565  0.00  0.00    +0.000 C 
BRANCH  31  34
ATOM     33  C   UNL     1      50.355 -33.268  45.514  0.00  0.00    +0.000 C 
ATOM     34  C   UNL     1      49.814 -34.336  45.636  0.00  0.00    +0.000 C 
BRANCH  33  36
ATOM     35  O   UNL     1      51.137 -31.656  43.946  0.00  0.00    +0.000 OA
ATOM     36  C   UNL     1      51.006 -31.976  45.361  0.00  0.00    +0.000 C 
ATOM     37  C   UNL     1      50.249 -30.816  44.681  0.00  0.00    +0.000 C 
ATOM     38  C   UNL     1      52.236 -31.621  46.271  0.00  0.00    +0.000 C 
ATOM     39  C   UNL     1      50.774 -29.501  44.860  0.00  0.00    +0.000 C 
ATOM     40  C   UNL     1      52.485 -30.186  46.116  0.00  0.00    +0.000 C 
ATOM     41  C   UNL     1      51.913 -29.036  45.539  0.00  0.00    +0.000 C 
ATOM     42  C   UNL     1      48.796 -30.913  44.209  0.00  0.00    +0.000 C 
ATOM     43  C   UNL     1      53.401 -32.512  45.782  0.00  0.00    +0.000 C 
ATOM     44  C   UNL     1      51.795 -31.956  47.719  0.00  0.00    +0.000 C 
BRANCH  41  45
ATOM     45  O   UNL     1      51.954 -27.830  46.171  0.00  0.00    +0.000 OA
ATOM     46  H   UNL     1      52.745 -27.313  45.934  0.00  0.00    +0.000 HD
ENDBRANCH  41  45
ENDBRANCH  33  36
ENDBRANCH  31  34
ENDBRANCH  30  31
ENDBRANCH  28  30
ENDBRANCH  26  29
ENDBRANCH  25  26
ENDBRANCH   1  25
TORSDOF 16
ENDMDL
MODEL 9
REMARK VINA RESULT:      -6.7      8.733     15.125
REMARK  Name = 448438_Violaxanthin.pdbqt.pdb
REMARK  16 active torsions:
REMARK  status: ('A' for Active; 'I' for Inactive)
REMARK    1  A    between atoms: C_1  and  C_5
REMARK    2  A    between atoms: C_2  and  C_27
REMARK    3  A    between atoms: C_3  and  C_5
REMARK    4  A    between atoms: C_3  and  C_7
REMARK    5  A    between atoms: C_6  and  C_10
REMARK    6  A    between atoms: C_8  and  C_10
REMARK    7  A    between atoms: C_8  and  C_12
REMARK    8  A    between atoms: C_11  and  C_14
REMARK    9  A    between atoms: C_19  and  O_23
REMARK   10  A    between atoms: C_25  and  C_27
REMARK   11  A    between atoms: C_25  and  C_29
REMARK   12  A    between atoms: C_28  and  C_32
REMARK   13  A    between atoms: C_30  and  C_32
REMARK   14  A    between atoms: C_30  and  C_34
REMARK   15  A    between atoms: C_33  and  C_36
REMARK   16  A    between atoms: C_41  and  O_45
REMARK                            x       y       z     vdW  Elec       q    Type
REMARK                         _______ _______ _______ _____ _____    ______ ____
ROOT
ATOM      1  C   UNL     1      46.744 -50.621  54.269  0.00  0.00    +0.000 C 
ATOM      2  C   UNL     1      46.500 -49.645  53.616  0.00  0.00    +0.000 C 
ENDROOT
BRANCH   2   3
ATOM      3  C   UNL     1      46.190 -48.397  52.781  0.00  0.00    +0.000 C 
BRANCH   3   4
ATOM      4  C   UNL     1      45.929 -47.341  52.077  0.00  0.00    +0.000 C 
ATOM      5  C   UNL     1      44.522 -46.831  51.993  0.00  0.00    +0.000 C 
BRANCH   4   7
ATOM      6  C   UNL     1      47.830 -46.178  50.708  0.00  0.00    +0.000 C 
ATOM      7  C   UNL     1      46.957 -46.712  51.337  0.00  0.00    +0.000 C 
BRANCH   6   8
ATOM      8  C   UNL     1      48.944 -45.494  49.906  0.00  0.00    +0.000 C 
BRANCH   8   9
ATOM      9  C   UNL     1      49.887 -44.914  49.230  0.00  0.00    +0.000 C 
ATOM     10  C   UNL     1      51.199 -45.609  49.031  0.00  0.00    +0.000 C 
BRANCH   9  12
ATOM     11  C   UNL     1      49.419 -42.638  48.021  0.00  0.00    +0.000 C 
ATOM     12  C   UNL     1      49.632 -43.681  48.580  0.00  0.00    +0.000 C 
BRANCH  11  14
ATOM     13  O   UNL     1      50.154 -41.220  46.261  0.00  0.00    +0.000 OA
ATOM     14  C   UNL     1      49.176 -41.383  47.326  0.00  0.00    +0.000 C 
ATOM     15  C   UNL     1      48.808 -41.403  45.826  0.00  0.00    +0.000 C 
ATOM     16  C   UNL     1      48.823 -40.100  48.151  0.00  0.00    +0.000 C 
ATOM     17  C   UNL     1      48.251 -40.208  45.282  0.00  0.00    +0.000 C 
ATOM     18  C   UNL     1      48.366 -39.077  47.199  0.00  0.00    +0.000 C 
ATOM     19  C   UNL     1      47.998 -38.947  45.846  0.00  0.00    +0.000 C 
ATOM     20  C   UNL     1      48.594 -42.698  45.037  0.00  0.00    +0.000 C 
ATOM     21  C   UNL     1      47.667 -40.506  49.097  0.00  0.00    +0.000 C 
ATOM     22  C   UNL     1      50.107 -39.694  48.906  0.00  0.00    +0.000 C 
BRANCH  19  23
ATOM     23  O   UNL     1      48.189 -37.798  45.140  0.00  0.00    +0.000 OA
ATOM     24  H   UNL     1      47.474 -37.150  45.274  0.00  0.00    +0.000 HD
ENDBRANCH  19  23
ENDBRANCH  11  14
ENDBRANCH   9  12
ENDBRANCH   8   9
ENDBRANCH   6   8
ENDBRANCH   4   7
ENDBRANCH   3   4
ENDBRANCH   2   3
BRANCH   1  25
ATOM     25  C   UNL     1      47.055 -51.869  55.105  0.00  0.00    +0.000 C 
BRANCH  25  26
ATOM     26  C   UNL     1      47.318 -52.924  55.811  0.00  0.00    +0.000 C 
ATOM     27  C   UNL     1      48.739 -53.366  55.991  0.00  0.00    +0.000 C 
BRANCH  26  29
ATOM     28  C   UNL     1      45.378 -54.250  56.959  0.00  0.00    +0.000 C 
ATOM     29  C   UNL     1      46.268 -53.640  56.430  0.00  0.00    +0.000 C 
BRANCH  28  30
ATOM     30  C   UNL     1      44.247 -55.032  57.639  0.00  0.00    +0.000 C 
BRANCH  30  31
ATOM     31  C   UNL     1      43.290 -55.688  58.216  0.00  0.00    +0.000 C 
ATOM     32  C   UNL     1      41.969 -55.844  57.526  0.00  0.00    +0.000 C 
BRANCH  31  34
ATOM     33  C   UNL     1      43.697 -56.810  60.549  0.00  0.00    +0.000 C 
ATOM     34  C   UNL     1      43.510 -56.297  59.476  0.00  0.00    +0.000 C 
BRANCH  33  36
ATOM     35  O   UNL     1      44.304 -58.818  61.675  0.00  0.00    +0.000 OA
ATOM     36  C   UNL     1      43.920 -57.424  61.849  0.00  0.00    +0.000 C 
ATOM     37  C   UNL     1      45.319 -57.968  62.206  0.00  0.00    +0.000 C 
ATOM     38  C   UNL     1      42.924 -57.120  63.025  0.00  0.00    +0.000 C 
ATOM     39  C   UNL     1      45.582 -58.236  63.583  0.00  0.00    +0.000 C 
ATOM     40  C   UNL     1      43.550 -57.610  64.255  0.00  0.00    +0.000 C 
ATOM     41  C   UNL     1      44.772 -58.128  64.726  0.00  0.00    +0.000 C 
ATOM     42  C   UNL     1      46.538 -57.837  61.290  0.00  0.00    +0.000 C 
ATOM     43  C   UNL     1      41.604 -57.840  62.667  0.00  0.00    +0.000 C 
ATOM     44  C   UNL     1      42.774 -55.577  63.055  0.00  0.00    +0.000 C 
BRANCH  41  45
ATOM     45  O   UNL     1      45.264 -57.784  65.948  0.00  0.00    +0.000 OA
ATOM     46  H   UNL     1      45.474 -56.834  66.011  0.00  0.00    +0.000 HD
ENDBRANCH  41  45
ENDBRANCH  33  36
ENDBRANCH  31  34
ENDBRANCH  30  31
ENDBRANCH  28  30
ENDBRANCH  26  29
ENDBRANCH  25  26
ENDBRANCH   1  25
TORSDOF 16
ENDMDL
