MODEL 1
REMARK VINA RESULT:      -7.9      0.000      0.000
REMARK  Name = 490561_Nocardiopsis.pdbqt.pdb
REMARK  3 active torsions:
REMARK  status: ('A' for Active; 'I' for Inactive)
REMARK    1  A    between atoms: C_7  and  O_32
REMARK    2  A    between atoms: C_7  and  C_35
REMARK    3  A    between atoms: C_35  and  O_36
REMARK                            x       y       z     vdW  Elec       q    Type
REMARK                         _______ _______ _______ _____ _____    ______ ____
ROOT
ATOM      1  O   UNL     1      50.561 -39.729  45.722  0.00  0.00    +0.000 OA
ATOM      2  O   UNL     1      47.561 -41.605  52.371  0.00  0.00    +0.000 OA
ATOM      3  N   UNL     1      49.168 -41.636  45.825  0.00  0.00    +0.000 N 
ATOM      4  N   UNL     1      49.296 -39.232  47.618  0.00  0.00    +0.000 N 
ATOM      5  N   UNL     1      47.353 -43.585  51.175  0.00  0.00    +0.000 N 
ATOM      6  C   UNL     1      49.692 -40.598  44.914  0.00  0.00    +0.000 C 
ATOM      7  C   UNL     1      48.567 -39.617  44.367  0.00  0.00    +0.000 C 
ATOM      8  C   UNL     1      49.673 -38.836  46.346  0.00  0.00    +0.000 C 
ATOM      9  C   UNL     1      48.631 -38.604  45.416  0.00  0.00    +0.000 C 
ATOM     10  C   UNL     1      48.917 -41.605  47.174  0.00  0.00    +0.000 A 
ATOM     11  C   UNL     1      48.989 -40.497  48.019  0.00  0.00    +0.000 A 
ATOM     12  C   UNL     1      48.455 -42.761  47.808  0.00  0.00    +0.000 A 
ATOM     13  C   UNL     1      48.588 -40.720  49.341  0.00  0.00    +0.000 A 
ATOM     14  C   UNL     1      50.623 -41.198  43.810  0.00  0.00    +0.000 C 
ATOM     15  C   UNL     1      48.742 -42.957  45.535  0.00  0.00    +0.000 A 
ATOM     16  C   UNL     1      49.021 -38.520  48.799  0.00  0.00    +0.000 A 
ATOM     17  C   UNL     1      48.338 -43.659  46.732  0.00  0.00    +0.000 A 
ATOM     18  C   UNL     1      48.071 -43.014  49.132  0.00  0.00    +0.000 A 
ATOM     19  C   UNL     1      48.139 -41.883  49.999  0.00  0.00    +0.000 A 
ATOM     20  C   UNL     1      48.616 -39.409  49.865  0.00  0.00    +0.000 A 
ATOM     21  C   UNL     1      47.539 -44.130  49.955  0.00  0.00    +0.000 C 
ATOM     22  C   UNL     1      48.671 -43.602  44.288  0.00  0.00    +0.000 A 
ATOM     23  C   UNL     1      47.679 -42.229  51.327  0.00  0.00    +0.000 C 
ATOM     24  C   UNL     1      49.116 -37.136  49.013  0.00  0.00    +0.000 A 
ATOM     25  C   UNL     1      47.895 -44.992  46.612  0.00  0.00    +0.000 A 
ATOM     26  C   UNL     1      48.311 -38.838  51.117  0.00  0.00    +0.000 A 
ATOM     27  C   UNL     1      48.227 -44.922  44.222  0.00  0.00    +0.000 A 
ATOM     28  C   UNL     1      47.851 -45.611  45.364  0.00  0.00    +0.000 A 
ATOM     29  C   UNL     1      48.809 -36.628  50.275  0.00  0.00    +0.000 A 
ATOM     30  C   UNL     1      48.413 -37.462  51.311  0.00  0.00    +0.000 A 
ATOM     31  H   UNL     1      46.994 -44.112  51.958  0.00  0.00    +0.000 HD
ENDROOT
BRANCH   7  32
ATOM     32  O   UNL     1      47.244 -40.173  44.337  0.00  0.00    +0.000 OA
ATOM     33  H   UNL     1      47.225 -40.842  43.618  0.00  0.00    +0.000 HD
ENDBRANCH   7  32
BRANCH   7  35
ATOM     34  O   UNL     1      48.532 -39.574  41.967  0.00  0.00    +0.000 OA
ATOM     35  C   UNL     1      48.934 -39.038  43.002  0.00  0.00    +0.000 C 
BRANCH  35  36
ATOM     36  O   UNL     1      49.670 -37.892  43.120  0.00  0.00    +0.000 OA
ATOM     37  C   UNL     1      50.860 -37.803  42.385  0.00  0.00    +0.000 C 
ENDBRANCH  35  36
ENDBRANCH   7  35
TORSDOF 3
ENDMDL
MODEL 2
REMARK VINA RESULT:      -7.5      2.256      5.260
REMARK  Name = 490561_Nocardiopsis.pdbqt.pdb
REMARK  3 active torsions:
REMARK  status: ('A' for Active; 'I' for Inactive)
REMARK    1  A    between atoms: C_7  and  O_32
REMARK    2  A    between atoms: C_7  and  C_35
REMARK    3  A    between atoms: C_35  and  O_36
REMARK                            x       y       z     vdW  Elec       q    Type
REMARK                         _______ _______ _______ _____ _____    ______ ____
ROOT
ATOM      1  O   UNL     1      50.251 -42.798  46.192  0.00  0.00    +0.000 OA
ATOM      2  O   UNL     1      48.686 -35.979  48.983  0.00  0.00    +0.000 OA
ATOM      3  N   UNL     1      49.037 -42.667  48.217  0.00  0.00    +0.000 N 
ATOM      4  N   UNL     1      49.331 -40.663  46.002  0.00  0.00    +0.000 N 
ATOM      5  N   UNL     1      48.395 -37.337  50.844  0.00  0.00    +0.000 N 
ATOM      6  C   UNL     1      49.308 -43.532  47.051  0.00  0.00    +0.000 C 
ATOM      7  C   UNL     1      48.036 -43.754  46.124  0.00  0.00    +0.000 C 
ATOM      8  C   UNL     1      49.435 -41.927  45.449  0.00  0.00    +0.000 C 
ATOM      9  C   UNL     1      48.224 -42.624  45.219  0.00  0.00    +0.000 C 
ATOM     10  C   UNL     1      49.042 -41.301  48.343  0.00  0.00    +0.000 A 
ATOM     11  C   UNL     1      49.194 -40.361  47.323  0.00  0.00    +0.000 A 
ATOM     12  C   UNL     1      48.788 -40.730  49.594  0.00  0.00    +0.000 A 
ATOM     13  C   UNL     1      49.064 -39.023  47.712  0.00  0.00    +0.000 A 
ATOM     14  C   UNL     1      50.056 -44.846  47.452  0.00  0.00    +0.000 C 
ATOM     15  C   UNL     1      48.658 -43.026  49.535  0.00  0.00    +0.000 A 
ATOM     16  C   UNL     1      49.234 -39.377  45.438  0.00  0.00    +0.000 A 
ATOM     17  C   UNL     1      48.534 -41.865  50.386  0.00  0.00    +0.000 A 
ATOM     18  C   UNL     1      48.677 -39.398  50.011  0.00  0.00    +0.000 A 
ATOM     19  C   UNL     1      48.827 -38.433  48.970  0.00  0.00    +0.000 A 
ATOM     20  C   UNL     1      49.098 -38.365  46.462  0.00  0.00    +0.000 A 
ATOM     21  C   UNL     1      48.387 -38.626  51.246  0.00  0.00    +0.000 C 
ATOM     22  C   UNL     1      48.399 -44.305  50.055  0.00  0.00    +0.000 A 
ATOM     23  C   UNL     1      48.650 -37.093  49.486  0.00  0.00    +0.000 C 
ATOM     24  C   UNL     1      49.271 -39.027  44.080  0.00  0.00    +0.000 A 
ATOM     25  C   UNL     1      48.170 -42.055  51.734  0.00  0.00    +0.000 A 
ATOM     26  C   UNL     1      48.994 -37.022  46.049  0.00  0.00    +0.000 A 
ATOM     27  C   UNL     1      48.043 -44.442  51.397  0.00  0.00    +0.000 A 
ATOM     28  C   UNL     1      47.936 -43.338  52.228  0.00  0.00    +0.000 A 
ATOM     29  C   UNL     1      49.171 -37.681  43.731  0.00  0.00    +0.000 A 
ATOM     30  C   UNL     1      49.035 -36.693  44.695  0.00  0.00    +0.000 A 
ATOM     31  H   UNL     1      48.227 -36.569  51.477  0.00  0.00    +0.000 HD
ENDROOT
BRANCH   7  32
ATOM     32  O   UNL     1      46.772 -43.610  46.790  0.00  0.00    +0.000 OA
ATOM     33  H   UNL     1      46.259 -44.430  46.620  0.00  0.00    +0.000 HD
ENDBRANCH   7  32
BRANCH   7  35
ATOM     34  O   UNL     1      48.806 -45.210  44.379  0.00  0.00    +0.000 OA
ATOM     35  C   UNL     1      48.099 -45.087  45.381  0.00  0.00    +0.000 C 
BRANCH  35  36
ATOM     36  O   UNL     1      47.349 -46.047  46.000  0.00  0.00    +0.000 OA
ATOM     37  C   UNL     1      47.649 -47.388  45.722  0.00  0.00    +0.000 C 
ENDBRANCH  35  36
ENDBRANCH   7  35
TORSDOF 3
ENDMDL
MODEL 3
REMARK VINA RESULT:      -7.3     15.463     18.221
REMARK  Name = 490561_Nocardiopsis.pdbqt.pdb
REMARK  3 active torsions:
REMARK  status: ('A' for Active; 'I' for Inactive)
REMARK    1  A    between atoms: C_7  and  O_32
REMARK    2  A    between atoms: C_7  and  C_35
REMARK    3  A    between atoms: C_35  and  O_36
REMARK                            x       y       z     vdW  Elec       q    Type
REMARK                         _______ _______ _______ _____ _____    ______ ____
ROOT
ATOM      1  O   UNL     1      48.048 -53.237  56.483  0.00  0.00    +0.000 OA
ATOM      2  O   UNL     1      41.378 -56.233  58.292  0.00  0.00    +0.000 OA
ATOM      3  N   UNL     1      48.021 -55.304  57.630  0.00  0.00    +0.000 N 
ATOM      4  N   UNL     1      45.924 -54.015  55.914  0.00  0.00    +0.000 N 
ATOM      5  N   UNL     1      42.816 -57.366  59.721  0.00  0.00    +0.000 N 
ATOM      6  C   UNL     1      48.833 -54.455  56.734  0.00  0.00    +0.000 C 
ATOM      7  C   UNL     1      49.040 -55.085  55.289  0.00  0.00    +0.000 C 
ATOM      8  C   UNL     1      47.162 -53.602  55.454  0.00  0.00    +0.000 C 
ATOM      9  C   UNL     1      47.871 -54.510  54.630  0.00  0.00    +0.000 C 
ATOM     10  C   UNL     1      46.661 -55.412  57.777  0.00  0.00    +0.000 A 
ATOM     11  C   UNL     1      45.678 -54.805  56.996  0.00  0.00    +0.000 A 
ATOM     12  C   UNL     1      46.148 -56.278  58.747  0.00  0.00    +0.000 A 
ATOM     13  C   UNL     1      44.360 -55.160  57.302  0.00  0.00    +0.000 A 
ATOM     14  C   UNL     1      50.149 -53.961  57.421  0.00  0.00    +0.000 C 
ATOM     15  C   UNL     1      48.441 -56.279  58.570  0.00  0.00    +0.000 A 
ATOM     16  C   UNL     1      44.618 -53.863  55.412  0.00  0.00    +0.000 A 
ATOM     17  C   UNL     1      47.318 -56.853  59.275  0.00  0.00    +0.000 A 
ATOM     18  C   UNL     1      44.835 -56.631  59.087  0.00  0.00    +0.000 A 
ATOM     19  C   UNL     1      43.826 -56.015  58.288  0.00  0.00    +0.000 A 
ATOM     20  C   UNL     1      43.651 -54.529  56.255  0.00  0.00    +0.000 A 
ATOM     21  C   UNL     1      44.120 -57.527  60.031  0.00  0.00    +0.000 C 
ATOM     22  C   UNL     1      49.745 -56.717  58.857  0.00  0.00    +0.000 A 
ATOM     23  C   UNL     1      42.512 -56.476  58.680  0.00  0.00    +0.000 C 
ATOM     24  C   UNL     1      44.212 -53.165  54.264  0.00  0.00    +0.000 A 
ATOM     25  C   UNL     1      47.569 -57.835  60.254  0.00  0.00    +0.000 A 
ATOM     26  C   UNL     1      42.294 -54.461  55.882  0.00  0.00    +0.000 A 
ATOM     27  C   UNL     1      49.942 -57.690  59.836  0.00  0.00    +0.000 A 
ATOM     28  C   UNL     1      48.876 -58.238  60.530  0.00  0.00    +0.000 A 
ATOM     29  C   UNL     1      42.855 -53.125  53.947  0.00  0.00    +0.000 A 
ATOM     30  C   UNL     1      41.910 -53.760  54.739  0.00  0.00    +0.000 A 
ATOM     31  H   UNL     1      42.078 -57.856  60.203  0.00  0.00    +0.000 HD
ENDROOT
BRANCH   7  32
ATOM     32  O   UNL     1      48.947 -56.516  55.236  0.00  0.00    +0.000 OA
ATOM     33  H   UNL     1      48.027 -56.758  55.483  0.00  0.00    +0.000 HD
ENDBRANCH   7  32
BRANCH   7  35
ATOM     34  O   UNL     1      50.394 -53.516  54.077  0.00  0.00    +0.000 OA
ATOM     35  C   UNL     1      50.340 -54.610  54.644  0.00  0.00    +0.000 C 
BRANCH  35  36
ATOM     36  O   UNL     1      51.357 -55.503  54.837  0.00  0.00    +0.000 OA
ATOM     37  C   UNL     1      52.473 -55.413  53.993  0.00  0.00    +0.000 C 
ENDBRANCH  35  36
ENDBRANCH   7  35
TORSDOF 3
ENDMDL
MODEL 4
REMARK VINA RESULT:      -7.1     14.135     18.545
REMARK  Name = 490561_Nocardiopsis.pdbqt.pdb
REMARK  3 active torsions:
REMARK  status: ('A' for Active; 'I' for Inactive)
REMARK    1  A    between atoms: C_7  and  O_32
REMARK    2  A    between atoms: C_7  and  C_35
REMARK    3  A    between atoms: C_35  and  O_36
REMARK                            x       y       z     vdW  Elec       q    Type
REMARK                         _______ _______ _______ _____ _____    ______ ____
ROOT
ATOM      1  O   UNL     1      46.149 -55.163  59.102  0.00  0.00    +0.000 OA
ATOM      2  O   UNL     1      51.363 -53.757  53.851  0.00  0.00    +0.000 OA
ATOM      3  N   UNL     1      45.428 -54.743  56.890  0.00  0.00    +0.000 N 
ATOM      4  N   UNL     1      48.070 -55.737  57.909  0.00  0.00    +0.000 N 
ATOM      5  N   UNL     1      49.440 -52.918  52.854  0.00  0.00    +0.000 N 
ATOM      6  C   UNL     1      45.045 -55.396  58.159  0.00  0.00    +0.000 C 
ATOM      7  C   UNL     1      44.958 -56.979  58.050  0.00  0.00    +0.000 C 
ATOM      8  C   UNL     1      47.088 -56.161  58.788  0.00  0.00    +0.000 C 
ATOM      9  C   UNL     1      46.338 -57.299  58.404  0.00  0.00    +0.000 C 
ATOM     10  C   UNL     1      46.662 -54.504  56.339  0.00  0.00    +0.000 A 
ATOM     11  C   UNL     1      47.897 -54.948  56.813  0.00  0.00    +0.000 A 
ATOM     12  C   UNL     1      46.744 -53.818  55.125  0.00  0.00    +0.000 A 
ATOM     13  C   UNL     1      48.998 -54.642  56.006  0.00  0.00    +0.000 A 
ATOM     14  C   UNL     1      43.795 -54.721  58.815  0.00  0.00    +0.000 C 
ATOM     15  C   UNL     1      44.604 -54.212  55.866  0.00  0.00    +0.000 A 
ATOM     16  C   UNL     1      49.441 -56.032  57.793  0.00  0.00    +0.000 A 
ATOM     17  C   UNL     1      45.388 -53.621  54.807  0.00  0.00    +0.000 A 
ATOM     18  C   UNL     1      47.834 -53.480  54.311  0.00  0.00    +0.000 A 
ATOM     19  C   UNL     1      49.099 -53.935  54.790  0.00  0.00    +0.000 A 
ATOM     20  C   UNL     1      50.028 -55.355  56.658  0.00  0.00    +0.000 A 
ATOM     21  C   UNL     1      48.105 -52.808  53.015  0.00  0.00    +0.000 C 
ATOM     22  C   UNL     1      43.201 -54.212  55.781  0.00  0.00    +0.000 A 
ATOM     23  C   UNL     1      50.153 -53.582  53.864  0.00  0.00    +0.000 C 
ATOM     24  C   UNL     1      50.221 -56.848  58.627  0.00  0.00    +0.000 A 
ATOM     25  C   UNL     1      44.714 -53.039  53.715  0.00  0.00    +0.000 A 
ATOM     26  C   UNL     1      51.402 -55.550  56.414  0.00  0.00    +0.000 A 
ATOM     27  C   UNL     1      42.580 -53.622  54.681  0.00  0.00    +0.000 A 
ATOM     28  C   UNL     1      43.320 -53.038  53.665  0.00  0.00    +0.000 A 
ATOM     29  C   UNL     1      51.577 -56.999  58.341  0.00  0.00    +0.000 A 
ATOM     30  C   UNL     1      52.161 -56.363  57.255  0.00  0.00    +0.000 A 
ATOM     31  H   UNL     1      49.924 -52.547  52.050  0.00  0.00    +0.000 HD
ENDROOT
BRANCH   7  32
ATOM     32  O   UNL     1      44.689 -57.479  56.732  0.00  0.00    +0.000 OA
ATOM     33  H   UNL     1      43.917 -58.083  56.801  0.00  0.00    +0.000 HD
ENDBRANCH   7  32
BRANCH   7  35
ATOM     34  O   UNL     1      42.800 -57.782  58.729  0.00  0.00    +0.000 OA
ATOM     35  C   UNL     1      43.969 -57.564  59.056  0.00  0.00    +0.000 C 
BRANCH  35  36
ATOM     36  O   UNL     1      44.567 -57.835  60.255  0.00  0.00    +0.000 OA
ATOM     37  C   UNL     1      44.000 -57.272  61.407  0.00  0.00    +0.000 C 
ENDBRANCH  35  36
ENDBRANCH   7  35
TORSDOF 3
ENDMDL
MODEL 5
REMARK VINA RESULT:      -7.0     18.081     21.144
REMARK  Name = 490561_Nocardiopsis.pdbqt.pdb
REMARK  3 active torsions:
REMARK  status: ('A' for Active; 'I' for Inactive)
REMARK    1  A    between atoms: C_7  and  O_32
REMARK    2  A    between atoms: C_7  and  C_35
REMARK    3  A    between atoms: C_35  and  O_36
REMARK                            x       y       z     vdW  Elec       q    Type
REMARK                         _______ _______ _______ _____ _____    ______ ____
ROOT
ATOM      1  O   UNL     1      57.739 -49.509  60.224  0.00  0.00    +0.000 OA
ATOM      2  O   UNL     1      57.735 -56.798  62.124  0.00  0.00    +0.000 OA
ATOM      3  N   UNL     1      59.277 -50.242  61.863  0.00  0.00    +0.000 N 
ATOM      4  N   UNL     1      57.896 -51.773  59.682  0.00  0.00    +0.000 N 
ATOM      5  N   UNL     1      58.836 -55.833  63.926  0.00  0.00    +0.000 N 
ATOM      6  C   UNL     1      59.029 -49.190  60.856  0.00  0.00    +0.000 C 
ATOM      7  C   UNL     1      60.065 -49.216  59.651  0.00  0.00    +0.000 C 
ATOM      8  C   UNL     1      58.061 -50.469  59.248  0.00  0.00    +0.000 C 
ATOM      9  C   UNL     1      59.343 -50.118  58.759  0.00  0.00    +0.000 C 
ATOM     10  C   UNL     1      58.884 -51.556  61.906  0.00  0.00    +0.000 A 
ATOM     11  C   UNL     1      58.228 -52.272  60.905  0.00  0.00    +0.000 A 
ATOM     12  C   UNL     1      59.227 -52.333  63.016  0.00  0.00    +0.000 A 
ATOM     13  C   UNL     1      58.028 -53.632  61.170  0.00  0.00    +0.000 A 
ATOM     14  C   UNL     1      58.828 -47.783  61.509  0.00  0.00    +0.000 C 
ATOM     15  C   UNL     1      60.035 -50.180  63.060  0.00  0.00    +0.000 A 
ATOM     16  C   UNL     1      57.467 -52.948  59.039  0.00  0.00    +0.000 A 
ATOM     17  C   UNL     1      59.986 -51.431  63.783  0.00  0.00    +0.000 A 
ATOM     18  C   UNL     1      59.017 -53.686  63.313  0.00  0.00    +0.000 A 
ATOM     19  C   UNL     1      58.349 -54.424  62.290  0.00  0.00    +0.000 A 
ATOM     20  C   UNL     1      57.514 -54.083  59.933  0.00  0.00    +0.000 A 
ATOM     21  C   UNL     1      59.327 -54.664  64.387  0.00  0.00    +0.000 C 
ATOM     22  C   UNL     1      60.781 -49.106  63.571  0.00  0.00    +0.000 A 
ATOM     23  C   UNL     1      58.221 -55.816  62.665  0.00  0.00    +0.000 C 
ATOM     24  C   UNL     1      57.021 -53.092  57.716  0.00  0.00    +0.000 A 
ATOM     25  C   UNL     1      60.684 -51.529  65.003  0.00  0.00    +0.000 A 
ATOM     26  C   UNL     1      57.108 -55.335  59.430  0.00  0.00    +0.000 A 
ATOM     27  C   UNL     1      61.454 -49.252  64.784  0.00  0.00    +0.000 A 
ATOM     28  C   UNL     1      61.403 -50.440  65.495  0.00  0.00    +0.000 A 
ATOM     29  C   UNL     1      56.624 -54.355  57.275  0.00  0.00    +0.000 A 
ATOM     30  C   UNL     1      56.665 -55.458  58.114  0.00  0.00    +0.000 A 
ATOM     31  H   UNL     1      58.900 -56.694  64.449  0.00  0.00    +0.000 HD
ENDROOT
BRANCH   7  32
ATOM     32  O   UNL     1      61.340 -49.795  59.965  0.00  0.00    +0.000 OA
ATOM     33  H   UNL     1      61.553 -50.436  59.252  0.00  0.00    +0.000 HD
ENDBRANCH   7  32
BRANCH   7  35
ATOM     34  O   UNL     1      59.339 -47.321  58.369  0.00  0.00    +0.000 OA
ATOM     35  C   UNL     1      60.246 -47.833  59.028  0.00  0.00    +0.000 C 
BRANCH  35  36
ATOM     36  O   UNL     1      61.458 -47.288  59.348  0.00  0.00    +0.000 OA
ATOM     37  C   UNL     1      62.084 -46.481  58.388  0.00  0.00    +0.000 C 
ENDBRANCH  35  36
ENDBRANCH   7  35
TORSDOF 3
ENDMDL
MODEL 6
REMARK VINA RESULT:      -6.9     27.553     29.591
REMARK  Name = 490561_Nocardiopsis.pdbqt.pdb
REMARK  3 active torsions:
REMARK  status: ('A' for Active; 'I' for Inactive)
REMARK    1  A    between atoms: C_7  and  O_32
REMARK    2  A    between atoms: C_7  and  C_35
REMARK    3  A    between atoms: C_35  and  O_36
REMARK                            x       y       z     vdW  Elec       q    Type
REMARK                         _______ _______ _______ _____ _____    ______ ____
ROOT
ATOM      1  O   UNL     1      51.331 -36.387  77.238  0.00  0.00    +0.000 OA
ATOM      2  O   UNL     1      58.396 -35.823  74.690  0.00  0.00    +0.000 OA
ATOM      3  N   UNL     1      51.747 -34.972  75.389  0.00  0.00    +0.000 N 
ATOM      4  N   UNL     1      53.297 -37.331  76.411  0.00  0.00    +0.000 N 
ATOM      5  N   UNL     1      57.408 -33.926  73.786  0.00  0.00    +0.000 N 
ATOM      6  C   UNL     1      50.698 -35.764  76.065  0.00  0.00    +0.000 C 
ATOM      7  C   UNL     1      50.187 -36.996  75.202  0.00  0.00    +0.000 C 
ATOM      8  C   UNL     1      51.964 -37.531  76.722  0.00  0.00    +0.000 C 
ATOM      9  C   UNL     1      51.131 -38.004  75.679  0.00  0.00    +0.000 C 
ATOM     10  C   UNL     1      53.106 -35.148  75.329  0.00  0.00    +0.000 A 
ATOM     11  C   UNL     1      53.838 -36.232  75.814  0.00  0.00    +0.000 A 
ATOM     12  C   UNL     1      53.885 -34.211  74.644  0.00  0.00    +0.000 A 
ATOM     13  C   UNL     1      55.209 -36.207  75.536  0.00  0.00    +0.000 A 
ATOM     14  C   UNL     1      49.560 -34.861  76.645  0.00  0.00    +0.000 C 
ATOM     15  C   UNL     1      51.620 -33.818  74.577  0.00  0.00    +0.000 A 
ATOM     16  C   UNL     1      54.434 -38.155  76.498  0.00  0.00    +0.000 A 
ATOM     17  C   UNL     1      52.909 -33.329  74.145  0.00  0.00    +0.000 A 
ATOM     18  C   UNL     1      55.258 -34.153  74.373  0.00  0.00    +0.000 A 
ATOM     19  C   UNL     1      56.011 -35.261  74.864  0.00  0.00    +0.000 A 
ATOM     20  C   UNL     1      55.611 -37.481  75.996  0.00  0.00    +0.000 A 
ATOM     21  C   UNL     1      56.227 -33.285  73.657  0.00  0.00    +0.000 C 
ATOM     22  C   UNL     1      50.449 -33.154  74.172  0.00  0.00    +0.000 A 
ATOM     23  C   UNL     1      57.404 -35.136  74.496  0.00  0.00    +0.000 C 
ATOM     24  C   UNL     1      54.514 -39.462  77.003  0.00  0.00    +0.000 A 
ATOM     25  C   UNL     1      52.955 -32.176  73.335  0.00  0.00    +0.000 A 
ATOM     26  C   UNL     1      56.833 -38.182  76.023  0.00  0.00    +0.000 A 
ATOM     27  C   UNL     1      50.546 -32.017  73.371  0.00  0.00    +0.000 A 
ATOM     28  C   UNL     1      51.777 -31.529  72.962  0.00  0.00    +0.000 A 
ATOM     29  C   UNL     1      55.752 -40.104  77.011  0.00  0.00    +0.000 A 
ATOM     30  C   UNL     1      56.893 -39.479  76.531  0.00  0.00    +0.000 A 
ATOM     31  H   UNL     1      58.267 -33.569  73.394  0.00  0.00    +0.000 HD
ENDROOT
BRANCH   7  32
ATOM     32  O   UNL     1      50.345 -36.846  73.783  0.00  0.00    +0.000 OA
ATOM     33  H   UNL     1      51.269 -36.556  73.622  0.00  0.00    +0.000 HD
ENDBRANCH   7  32
BRANCH   7  35
ATOM     34  O   UNL     1      48.482 -37.944  76.601  0.00  0.00    +0.000 OA
ATOM     35  C   UNL     1      48.746 -37.370  75.543  0.00  0.00    +0.000 C 
BRANCH  35  36
ATOM     36  O   UNL     1      47.872 -36.942  74.582  0.00  0.00    +0.000 OA
ATOM     37  C   UNL     1      46.913 -37.855  74.121  0.00  0.00    +0.000 C 
ENDBRANCH  35  36
ENDBRANCH   7  35
TORSDOF 3
ENDMDL
MODEL 7
REMARK VINA RESULT:      -6.8     16.100     20.125
REMARK  Name = 490561_Nocardiopsis.pdbqt.pdb
REMARK  3 active torsions:
REMARK  status: ('A' for Active; 'I' for Inactive)
REMARK    1  A    between atoms: C_7  and  O_32
REMARK    2  A    between atoms: C_7  and  C_35
REMARK    3  A    between atoms: C_35  and  O_36
REMARK                            x       y       z     vdW  Elec       q    Type
REMARK                         _______ _______ _______ _____ _____    ______ ____
ROOT
ATOM      1  O   UNL     1      43.020 -57.138  59.220  0.00  0.00    +0.000 OA
ATOM      2  O   UNL     1      50.133 -54.806  58.378  0.00  0.00    +0.000 OA
ATOM      3  N   UNL     1      43.575 -55.910  57.277  0.00  0.00    +0.000 N 
ATOM      4  N   UNL     1      45.314 -57.544  59.098  0.00  0.00    +0.000 N 
ATOM      5  N   UNL     1      48.996 -53.424  56.897  0.00  0.00    +0.000 N 
ATOM      6  C   UNL     1      42.614 -56.887  57.829  0.00  0.00    +0.000 C 
ATOM      7  C   UNL     1      42.705 -58.316  57.138  0.00  0.00    +0.000 C 
ATOM      8  C   UNL     1      44.045 -58.095  59.114  0.00  0.00    +0.000 C 
ATOM      9  C   UNL     1      43.696 -58.924  58.021  0.00  0.00    +0.000 C 
ATOM     10  C   UNL     1      44.893 -55.676  57.581  0.00  0.00    +0.000 A 
ATOM     11  C   UNL     1      45.705 -56.419  58.437  0.00  0.00    +0.000 A 
ATOM     12  C   UNL     1      45.570 -54.643  56.926  0.00  0.00    +0.000 A 
ATOM     13  C   UNL     1      47.045 -56.019  58.496  0.00  0.00    +0.000 A 
ATOM     14  C   UNL     1      41.166 -56.302  57.922  0.00  0.00    +0.000 C 
ATOM     15  C   UNL     1      43.397 -54.960  56.241  0.00  0.00    +0.000 A 
ATOM     16  C   UNL     1      46.549 -57.971  59.621  0.00  0.00    +0.000 A 
ATOM     17  C   UNL     1      44.587 -54.165  56.040  0.00  0.00    +0.000 A 
ATOM     18  C   UNL     1      46.900 -54.209  56.986  0.00  0.00    +0.000 A 
ATOM     19  C   UNL     1      47.736 -54.969  57.858  0.00  0.00    +0.000 A 
ATOM     20  C   UNL     1      47.608 -57.044  59.289  0.00  0.00    +0.000 A 
ATOM     21  C   UNL     1      47.780 -53.188  56.362  0.00  0.00    +0.000 C 
ATOM     22  C   UNL     1      42.264 -54.736  55.441  0.00  0.00    +0.000 A 
ATOM     23  C   UNL     1      49.097 -54.478  57.817  0.00  0.00    +0.000 C 
ATOM     24  C   UNL     1      46.810 -59.118  60.385  0.00  0.00    +0.000 A 
ATOM     25  C   UNL     1      44.569 -53.165  55.047  0.00  0.00    +0.000 A 
ATOM     26  C   UNL     1      48.907 -57.336  59.750  0.00  0.00    +0.000 A 
ATOM     27  C   UNL     1      42.294 -53.733  54.472  0.00  0.00    +0.000 A 
ATOM     28  C   UNL     1      43.424 -52.954  54.279  0.00  0.00    +0.000 A 
ATOM     29  C   UNL     1      48.114 -59.353  60.820  0.00  0.00    +0.000 A 
ATOM     30  C   UNL     1      49.146 -58.479  60.510  0.00  0.00    +0.000 A 
ATOM     31  H   UNL     1      49.811 -52.878  56.658  0.00  0.00    +0.000 HD
ENDROOT
BRANCH   7  32
ATOM     32  O   UNL     1      43.220 -58.306  55.798  0.00  0.00    +0.000 OA
ATOM     33  H   UNL     1      42.732 -57.612  55.303  0.00  0.00    +0.000 HD
ENDBRANCH   7  32
BRANCH   7  35
ATOM     34  O   UNL     1      40.997 -59.596  58.236  0.00  0.00    +0.000 OA
ATOM     35  C   UNL     1      41.371 -59.059  57.192  0.00  0.00    +0.000 C 
BRANCH  35  36
ATOM     36  O   UNL     1      40.700 -58.980  56.004  0.00  0.00    +0.000 OA
ATOM     37  C   UNL     1      39.540 -59.753  55.858  0.00  0.00    +0.000 C 
ENDBRANCH  35  36
ENDBRANCH   7  35
TORSDOF 3
ENDMDL
MODEL 8
REMARK VINA RESULT:      -6.8     13.062     17.322
REMARK  Name = 490561_Nocardiopsis.pdbqt.pdb
REMARK  3 active torsions:
REMARK  status: ('A' for Active; 'I' for Inactive)
REMARK    1  A    between atoms: C_7  and  O_32
REMARK    2  A    between atoms: C_7  and  C_35
REMARK    3  A    between atoms: C_35  and  O_36
REMARK                            x       y       z     vdW  Elec       q    Type
REMARK                         _______ _______ _______ _____ _____    ______ ____
ROOT
ATOM      1  O   UNL     1      51.947 -24.121  48.694  0.00  0.00    +0.000 OA
ATOM      2  O   UNL     1      46.850 -28.114  44.845  0.00  0.00    +0.000 OA
ATOM      3  N   UNL     1      49.669 -23.520  48.892  0.00  0.00    +0.000 N 
ATOM      4  N   UNL     1      50.921 -26.138  48.124  0.00  0.00    +0.000 N 
ATOM      5  N   UNL     1      45.674 -26.170  45.323  0.00  0.00    +0.000 N 
ATOM      6  C   UNL     1      50.978 -23.449  49.573  0.00  0.00    +0.000 C 
ATOM      7  C   UNL     1      51.032 -24.290  50.921  0.00  0.00    +0.000 C 
ATOM      8  C   UNL     1      51.788 -25.487  48.985  0.00  0.00    +0.000 C 
ATOM      9  C   UNL     1      51.488 -25.562  50.367  0.00  0.00    +0.000 C 
ATOM     10  C   UNL     1      49.160 -24.448  48.019  0.00  0.00    +0.000 A 
ATOM     11  C   UNL     1      49.740 -25.659  47.643  0.00  0.00    +0.000 A 
ATOM     12  C   UNL     1      47.885 -24.249  47.480  0.00  0.00    +0.000 A 
ATOM     13  C   UNL     1      48.962 -26.466  46.805  0.00  0.00    +0.000 A 
ATOM     14  C   UNL     1      51.495 -21.978  49.704  0.00  0.00    +0.000 C 
ATOM     15  C   UNL     1      48.554 -22.650  48.992  0.00  0.00    +0.000 A 
ATOM     16  C   UNL     1      50.906 -27.436  47.582  0.00  0.00    +0.000 A 
ATOM     17  C   UNL     1      47.480 -23.063  48.118  0.00  0.00    +0.000 A 
ATOM     18  C   UNL     1      47.098 -25.030  46.624  0.00  0.00    +0.000 A 
ATOM     19  C   UNL     1      47.686 -26.271  46.239  0.00  0.00    +0.000 A 
ATOM     20  C   UNL     1      49.738 -27.646  46.756  0.00  0.00    +0.000 A 
ATOM     21  C   UNL     1      45.753 -25.000  45.993  0.00  0.00    +0.000 C 
ATOM     22  C   UNL     1      48.398 -21.514  49.804  0.00  0.00    +0.000 A 
ATOM     23  C   UNL     1      46.783 -27.026  45.398  0.00  0.00    +0.000 C 
ATOM     24  C   UNL     1      51.860 -28.451  47.752  0.00  0.00    +0.000 A 
ATOM     25  C   UNL     1      46.299 -22.293  48.094  0.00  0.00    +0.000 A 
ATOM     26  C   UNL     1      49.587 -28.904  46.139  0.00  0.00    +0.000 A 
ATOM     27  C   UNL     1      47.211 -20.784  49.743  0.00  0.00    +0.000 A 
ATOM     28  C   UNL     1      46.179 -21.160  48.899  0.00  0.00    +0.000 A 
ATOM     29  C   UNL     1      51.661 -29.674  47.111  0.00  0.00    +0.000 A 
ATOM     30  C   UNL     1      50.546 -29.899  46.317  0.00  0.00    +0.000 A 
ATOM     31  H   UNL     1      44.861 -26.436  44.789  0.00  0.00    +0.000 HD
ENDROOT
BRANCH   7  32
ATOM     32  O   UNL     1      49.762 -24.489  51.559  0.00  0.00    +0.000 OA
ATOM     33  H   UNL     1      49.159 -24.883  50.891  0.00  0.00    +0.000 HD
ENDBRANCH   7  32
BRANCH   7  35
ATOM     34  O   UNL     1      53.245 -23.953  51.788  0.00  0.00    +0.000 OA
ATOM     35  C   UNL     1      52.042 -23.712  51.910  0.00  0.00    +0.000 C 
BRANCH  35  36
ATOM     36  O   UNL     1      51.440 -22.907  52.836  0.00  0.00    +0.000 OA
ATOM     37  C   UNL     1      52.164 -21.804  53.310  0.00  0.00    +0.000 C 
ENDBRANCH  35  36
ENDBRANCH   7  35
TORSDOF 3
ENDMDL
MODEL 9
REMARK VINA RESULT:      -6.7     27.921     29.763
REMARK  Name = 490561_Nocardiopsis.pdbqt.pdb
REMARK  3 active torsions:
REMARK  status: ('A' for Active; 'I' for Inactive)
REMARK    1  A    between atoms: C_7  and  O_32
REMARK    2  A    between atoms: C_7  and  C_35
REMARK    3  A    between atoms: C_35  and  O_36
REMARK                            x       y       z     vdW  Elec       q    Type
REMARK                         _______ _______ _______ _____ _____    ______ ____
ROOT
ATOM      1  O   UNL     1      50.953 -37.126  74.118  0.00  0.00    +0.000 OA
ATOM      2  O   UNL     1      58.197 -35.417  75.272  0.00  0.00    +0.000 OA
ATOM      3  N   UNL     1      52.046 -38.080  75.985  0.00  0.00    +0.000 N 
ATOM      4  N   UNL     1      52.673 -35.584  74.441  0.00  0.00    +0.000 N 
ATOM      5  N   UNL     1      57.951 -37.344  76.545  0.00  0.00    +0.000 N 
ATOM      6  C   UNL     1      50.721 -37.705  75.451  0.00  0.00    +0.000 C 
ATOM      7  C   UNL     1      50.024 -36.532  76.265  0.00  0.00    +0.000 C 
ATOM      8  C   UNL     1      51.306 -35.791  74.379  0.00  0.00    +0.000 C 
ATOM      9  C   UNL     1      50.551 -35.398  75.510  0.00  0.00    +0.000 C 
ATOM     10  C   UNL     1      53.290 -37.546  75.759  0.00  0.00    +0.000 A 
ATOM     11  C   UNL     1      53.594 -36.396  75.030  0.00  0.00    +0.000 A 
ATOM     12  C   UNL     1      54.403 -38.129  76.371  0.00  0.00    +0.000 A 
ATOM     13  C   UNL     1      54.941 -36.018  75.034  0.00  0.00    +0.000 A 
ATOM     14  C   UNL     1      49.811 -38.954  75.203  0.00  0.00    +0.000 C 
ATOM     15  C   UNL     1      52.387 -39.088  76.922  0.00  0.00    +0.000 A 
ATOM     16  C   UNL     1      53.497 -34.514  74.047  0.00  0.00    +0.000 A 
ATOM     17  C   UNL     1      53.814 -39.149  77.140  0.00  0.00    +0.000 A 
ATOM     18  C   UNL     1      55.761 -37.783  76.371  0.00  0.00    +0.000 A 
ATOM     19  C   UNL     1      56.076 -36.605  75.630  0.00  0.00    +0.000 A 
ATOM     20  C   UNL     1      54.882 -34.770  74.374  0.00  0.00    +0.000 A 
ATOM     21  C   UNL     1      57.040 -38.245  76.969  0.00  0.00    +0.000 C 
ATOM     22  C   UNL     1      51.535 -39.964  77.616  0.00  0.00    +0.000 A 
ATOM     23  C   UNL     1      57.487 -36.302  75.727  0.00  0.00    +0.000 C 
ATOM     24  C   UNL     1      53.118 -33.326  73.403  0.00  0.00    +0.000 A 
ATOM     25  C   UNL     1      54.316 -40.110  78.041  0.00  0.00    +0.000 A 
ATOM     26  C   UNL     1      55.832 -33.786  74.035  0.00  0.00    +0.000 A 
ATOM     27  C   UNL     1      52.081 -40.899  78.496  0.00  0.00    +0.000 A 
ATOM     28  C   UNL     1      53.448 -40.978  78.703  0.00  0.00    +0.000 A 
ATOM     29  C   UNL     1      54.102 -32.390  73.085  0.00  0.00    +0.000 A 
ATOM     30  C   UNL     1      55.436 -32.613  73.394  0.00  0.00    +0.000 A 
ATOM     31  H   UNL     1      58.927 -37.399  76.795  0.00  0.00    +0.000 HD
ENDROOT
BRANCH   7  32
ATOM     32  O   UNL     1      50.443 -36.415  77.633  0.00  0.00    +0.000 OA
ATOM     33  H   UNL     1      49.690 -36.705  78.194  0.00  0.00    +0.000 HD
ENDBRANCH   7  32
BRANCH   7  35
ATOM     34  O   UNL     1      47.917 -36.283  75.141  0.00  0.00    +0.000 OA
ATOM     35  C   UNL     1      48.501 -36.607  76.178  0.00  0.00    +0.000 C 
BRANCH  35  36
ATOM     36  O   UNL     1      47.952 -37.106  77.326  0.00  0.00    +0.000 OA
ATOM     37  C   UNL     1      46.772 -37.855  77.212  0.00  0.00    +0.000 C 
ENDBRANCH  35  36
ENDBRANCH   7  35
TORSDOF 3
ENDMDL
