MODEL 1
REMARK VINA RESULT:      -7.8      0.000      0.000
REMARK  Name = 5109870_Ethoxyphenyl.pdbqt.pdb
REMARK  6 active torsions:
REMARK  status: ('A' for Active; 'I' for Inactive)
REMARK    1  A    between atoms: N_2  and  C_22
REMARK    2  A    between atoms: C_3  and  O_11
REMARK    3  A    between atoms: C_3  and  C_13
REMARK    4  A    between atoms: C_16  and  N_19
REMARK    5  A    between atoms: C_25  and  O_28
REMARK    6  A    between atoms: O_28  and  C_29
REMARK                            x       y       z     vdW  Elec       q    Type
REMARK                         _______ _______ _______ _____ _____    ______ ____
ROOT
ATOM      1  N   UNL     1      46.922 -47.079  51.058  0.00  0.00    +0.000 N 
ATOM      2  N   UNL     1      47.174 -44.730  50.637  0.00  0.00    +0.000 N 
ATOM      3  C   UNL     1      45.887 -46.437  51.902  0.00  0.00    +0.000 C 
ATOM      4  C   UNL     1      47.751 -45.975  50.478  0.00  0.00    +0.000 C 
ATOM      5  C   UNL     1      46.046 -45.045  51.474  0.00  0.00    +0.000 C 
ATOM      6  C   UNL     1      47.740 -48.138  51.649  0.00  0.00    +0.000 C 
ATOM      7  C   UNL     1      49.147 -46.156  50.250  0.00  0.00    +0.000 C 
ATOM      8  C   UNL     1      49.105 -48.815  51.861  0.00  0.00    +0.000 C 
ATOM      9  C   UNL     1      50.404 -47.002  50.510  0.00  0.00    +0.000 C 
ATOM     10  C   UNL     1      50.430 -48.302  51.308  0.00  0.00    +0.000 C 
ENDROOT
BRANCH   3  11
ATOM     11  C   UNL     1      44.519 -47.025  51.648  0.00  0.00    +0.000 A 
ATOM     12  C   UNL     1      43.351 -46.276  51.848  0.00  0.00    +0.000 A 
ATOM     13  C   UNL     1      42.096 -46.812  51.570  0.00  0.00    +0.000 A 
ATOM     14  C   UNL     1      42.012 -48.110  51.074  0.00  0.00    +0.000 A 
ATOM     15  C   UNL     1      43.152 -48.876  50.849  0.00  0.00    +0.000 A 
ATOM     16  C   UNL     1      44.398 -48.325  51.132  0.00  0.00    +0.000 A 
BRANCH  14  17
ATOM     17  N   UNL     1      40.709 -48.675  50.784  0.00  0.00    +0.000 N 
ATOM     18  O   UNL     1      40.155 -49.329  51.678  0.00  0.00    +0.000 OA
ATOM     19  O   UNL     1      40.228 -48.468  49.661  0.00  0.00    +0.000 OA
ENDBRANCH  14  17
ENDBRANCH   3  11
BRANCH   2  20
ATOM     20  C   UNL     1      47.676 -43.431  50.463  0.00  0.00    +0.000 A 
ATOM     21  C   UNL     1      48.044 -42.940  49.206  0.00  0.00    +0.000 A 
ATOM     22  C   UNL     1      48.521 -41.640  49.040  0.00  0.00    +0.000 A 
ATOM     23  C   UNL     1      48.632 -40.791  50.139  0.00  0.00    +0.000 A 
ATOM     24  C   UNL     1      48.261 -41.253  51.397  0.00  0.00    +0.000 A 
ATOM     25  C   UNL     1      47.786 -42.555  51.552  0.00  0.00    +0.000 A 
BRANCH  23  26
ATOM     26  O   UNL     1      49.087 -39.498  50.084  0.00  0.00    +0.000 OA
BRANCH  26  27
ATOM     27  C   UNL     1      48.249 -38.588  50.575  0.00  0.00    +0.000 C 
ATOM     28  C   UNL     1      47.296 -37.529  51.142  0.00  0.00    +0.000 C 
ENDBRANCH  26  27
ENDBRANCH  23  26
ENDBRANCH   2  20
BRANCH   3  29
ATOM     29  O   UNL     1      46.180 -46.500  53.292  0.00  0.00    +0.000 OA
ATOM     30  H   UNL     1      45.489 -47.068  53.671  0.00  0.00    +0.000 HD
ENDBRANCH   3  29
TORSDOF 6
ENDMDL
MODEL 2
REMARK VINA RESULT:      -7.7      4.034      9.430
REMARK  Name = 5109870_Ethoxyphenyl.pdbqt.pdb
REMARK  6 active torsions:
REMARK  status: ('A' for Active; 'I' for Inactive)
REMARK    1  A    between atoms: N_2  and  C_22
REMARK    2  A    between atoms: C_3  and  O_11
REMARK    3  A    between atoms: C_3  and  C_13
REMARK    4  A    between atoms: C_16  and  N_19
REMARK    5  A    between atoms: C_25  and  O_28
REMARK    6  A    between atoms: O_28  and  C_29
REMARK                            x       y       z     vdW  Elec       q    Type
REMARK                         _______ _______ _______ _____ _____    ______ ____
ROOT
ATOM      1  N   UNL     1      47.199 -47.545  50.593  0.00  0.00    +0.000 N 
ATOM      2  N   UNL     1      47.741 -49.433  51.972  0.00  0.00    +0.000 N 
ATOM      3  C   UNL     1      48.382 -47.109  51.372  0.00  0.00    +0.000 C 
ATOM      4  C   UNL     1      46.786 -48.875  51.144  0.00  0.00    +0.000 C 
ATOM      5  C   UNL     1      48.694 -48.360  52.069  0.00  0.00    +0.000 C 
ATOM      6  C   UNL     1      46.073 -46.620  50.468  0.00  0.00    +0.000 C 
ATOM      7  C   UNL     1      45.410 -49.247  51.190  0.00  0.00    +0.000 C 
ATOM      8  C   UNL     1      44.560 -46.345  50.469  0.00  0.00    +0.000 C 
ATOM      9  C   UNL     1      43.943 -48.803  51.085  0.00  0.00    +0.000 C 
ATOM     10  C   UNL     1      43.482 -47.387  50.751  0.00  0.00    +0.000 C 
ENDROOT
BRANCH   3  11
ATOM     11  C   UNL     1      49.481 -46.593  50.473  0.00  0.00    +0.000 A 
ATOM     12  C   UNL     1      49.381 -45.347  49.838  0.00  0.00    +0.000 A 
ATOM     13  C   UNL     1      50.417 -44.859  49.045  0.00  0.00    +0.000 A 
ATOM     14  C   UNL     1      51.571 -45.623  48.899  0.00  0.00    +0.000 A 
ATOM     15  C   UNL     1      51.710 -46.856  49.528  0.00  0.00    +0.000 A 
ATOM     16  C   UNL     1      50.665 -47.329  50.317  0.00  0.00    +0.000 A 
BRANCH  14  17
ATOM     17  N   UNL     1      52.653 -45.122  48.074  0.00  0.00    +0.000 N 
ATOM     18  O   UNL     1      53.801 -45.180  48.536  0.00  0.00    +0.000 OA
ATOM     19  O   UNL     1      52.364 -44.668  46.958  0.00  0.00    +0.000 OA
ENDBRANCH  14  17
ENDBRANCH   3  11
BRANCH   2  20
ATOM     20  C   UNL     1      47.697 -50.519  52.860  0.00  0.00    +0.000 A 
ATOM     21  C   UNL     1      48.369 -51.718  52.599  0.00  0.00    +0.000 A 
ATOM     22  C   UNL     1      48.338 -52.783  53.499  0.00  0.00    +0.000 A 
ATOM     23  C   UNL     1      47.635 -52.668  54.695  0.00  0.00    +0.000 A 
ATOM     24  C   UNL     1      46.967 -51.481  54.982  0.00  0.00    +0.000 A 
ATOM     25  C   UNL     1      47.004 -50.422  54.075  0.00  0.00    +0.000 A 
BRANCH  23  26
ATOM     26  O   UNL     1      47.542 -53.653  55.645  0.00  0.00    +0.000 OA
BRANCH  26  27
ATOM     27  C   UNL     1      48.558 -53.699  56.504  0.00  0.00    +0.000 C 
ATOM     28  C   UNL     1      49.727 -53.736  57.495  0.00  0.00    +0.000 C 
ENDBRANCH  26  27
ENDBRANCH  23  26
ENDBRANCH   2  20
BRANCH   3  29
ATOM     29  O   UNL     1      48.075 -46.130  52.357  0.00  0.00    +0.000 OA
ATOM     30  H   UNL     1      48.617 -45.358  52.124  0.00  0.00    +0.000 HD
ENDBRANCH   3  29
TORSDOF 6
ENDMDL
MODEL 3
REMARK VINA RESULT:      -7.4      1.452      2.108
REMARK  Name = 5109870_Ethoxyphenyl.pdbqt.pdb
REMARK  6 active torsions:
REMARK  status: ('A' for Active; 'I' for Inactive)
REMARK    1  A    between atoms: N_2  and  C_22
REMARK    2  A    between atoms: C_3  and  O_11
REMARK    3  A    between atoms: C_3  and  C_13
REMARK    4  A    between atoms: C_16  and  N_19
REMARK    5  A    between atoms: C_25  and  O_28
REMARK    6  A    between atoms: O_28  and  C_29
REMARK                            x       y       z     vdW  Elec       q    Type
REMARK                         _______ _______ _______ _____ _____    ______ ____
ROOT
ATOM      1  N   UNL     1      48.212 -45.882  50.139  0.00  0.00    +0.000 N 
ATOM      2  N   UNL     1      48.003 -43.492  50.131  0.00  0.00    +0.000 N 
ATOM      3  C   UNL     1      47.337 -45.581  51.297  0.00  0.00    +0.000 C 
ATOM      4  C   UNL     1      48.698 -44.567  49.613  0.00  0.00    +0.000 C 
ATOM      5  C   UNL     1      47.179 -44.136  51.119  0.00  0.00    +0.000 C 
ATOM      6  C   UNL     1      49.297 -46.845  50.322  0.00  0.00    +0.000 C 
ATOM      7  C   UNL     1      50.003 -44.446  49.053  0.00  0.00    +0.000 C 
ATOM      8  C   UNL     1      50.755 -47.278  50.094  0.00  0.00    +0.000 C 
ATOM      9  C   UNL     1      51.395 -45.070  48.862  0.00  0.00    +0.000 C 
ATOM     10  C   UNL     1      51.811 -46.447  49.371  0.00  0.00    +0.000 C 
ENDROOT
BRANCH   3  11
ATOM     11  C   UNL     1      46.050 -46.371  51.244  0.00  0.00    +0.000 A 
ATOM     12  C   UNL     1      46.053 -47.773  51.217  0.00  0.00    +0.000 A 
ATOM     13  C   UNL     1      44.862 -48.494  51.211  0.00  0.00    +0.000 A 
ATOM     14  C   UNL     1      43.655 -47.802  51.246  0.00  0.00    +0.000 A 
ATOM     15  C   UNL     1      43.616 -46.412  51.288  0.00  0.00    +0.000 A 
ATOM     16  C   UNL     1      44.815 -45.706  51.294  0.00  0.00    +0.000 A 
BRANCH  14  17
ATOM     17  N   UNL     1      42.411 -48.546  51.238  0.00  0.00    +0.000 N 
ATOM     18  O   UNL     1      41.373 -47.932  51.523  0.00  0.00    +0.000 OA
ATOM     19  O   UNL     1      42.461 -49.750  50.946  0.00  0.00    +0.000 OA
ENDBRANCH  14  17
ENDBRANCH   3  11
BRANCH   2  20
ATOM     20  C   UNL     1      48.250 -42.110  50.102  0.00  0.00    +0.000 A 
ATOM     21  C   UNL     1      48.615 -41.446  48.927  0.00  0.00    +0.000 A 
ATOM     22  C   UNL     1      48.836 -40.069  48.904  0.00  0.00    +0.000 A 
ATOM     23  C   UNL     1      48.686 -39.317  50.067  0.00  0.00    +0.000 A 
ATOM     24  C   UNL     1      48.312 -39.954  51.246  0.00  0.00    +0.000 A 
ATOM     25  C   UNL     1      48.094 -41.332  51.258  0.00  0.00    +0.000 A 
BRANCH  23  26
ATOM     26  O   UNL     1      48.877 -37.962  50.152  0.00  0.00    +0.000 OA
BRANCH  26  27
ATOM     27  C   UNL     1      47.854 -37.282  50.664  0.00  0.00    +0.000 C 
ATOM     28  C   UNL     1      46.665 -36.508  51.245  0.00  0.00    +0.000 C 
ENDBRANCH  26  27
ENDBRANCH  23  26
ENDBRANCH   2  20
BRANCH   3  29
ATOM     29  O   UNL     1      47.974 -45.796  52.550  0.00  0.00    +0.000 OA
ATOM     30  H   UNL     1      48.866 -45.425  52.448  0.00  0.00    +0.000 HD
ENDBRANCH   3  29
TORSDOF 6
ENDMDL
MODEL 4
REMARK VINA RESULT:      -7.3      7.470      9.729
REMARK  Name = 5109870_Ethoxyphenyl.pdbqt.pdb
REMARK  6 active torsions:
REMARK  status: ('A' for Active; 'I' for Inactive)
REMARK    1  A    between atoms: N_2  and  C_22
REMARK    2  A    between atoms: C_3  and  O_11
REMARK    3  A    between atoms: C_3  and  C_13
REMARK    4  A    between atoms: C_16  and  N_19
REMARK    5  A    between atoms: C_25  and  O_28
REMARK    6  A    between atoms: O_28  and  C_29
REMARK                            x       y       z     vdW  Elec       q    Type
REMARK                         _______ _______ _______ _____ _____    ______ ____
ROOT
ATOM      1  N   UNL     1      47.265 -54.945  56.430  0.00  0.00    +0.000 N 
ATOM      2  N   UNL     1      47.149 -53.071  54.935  0.00  0.00    +0.000 N 
ATOM      3  C   UNL     1      46.249 -54.050  57.033  0.00  0.00    +0.000 C 
ATOM      4  C   UNL     1      47.869 -54.198  55.281  0.00  0.00    +0.000 C 
ATOM      5  C   UNL     1      46.172 -53.024  55.990  0.00  0.00    +0.000 C 
ATOM      6  C   UNL     1      48.277 -55.534  57.305  0.00  0.00    +0.000 C 
ATOM      7  C   UNL     1      49.243 -54.371  54.944  0.00  0.00    +0.000 C 
ATOM      8  C   UNL     1      49.735 -55.934  57.586  0.00  0.00    +0.000 C 
ATOM      9  C   UNL     1      50.624 -54.902  55.362  0.00  0.00    +0.000 C 
ATOM     10  C   UNL     1      50.912 -55.659  56.655  0.00  0.00    +0.000 C 
ENDROOT
BRANCH   3  11
ATOM     11  C   UNL     1      44.953 -54.779  57.301  0.00  0.00    +0.000 A 
ATOM     12  C   UNL     1      44.689 -55.368  58.546  0.00  0.00    +0.000 A 
ATOM     13  C   UNL     1      43.475 -56.002  58.799  0.00  0.00    +0.000 A 
ATOM     14  C   UNL     1      42.510 -56.033  57.797  0.00  0.00    +0.000 A 
ATOM     15  C   UNL     1      42.733 -55.446  56.556  0.00  0.00    +0.000 A 
ATOM     16  C   UNL     1      43.952 -54.816  56.319  0.00  0.00    +0.000 A 
BRANCH  14  17
ATOM     17  N   UNL     1      41.244 -56.692  58.053  0.00  0.00    +0.000 N 
ATOM     18  O   UNL     1      40.754 -57.368  57.137  0.00  0.00    +0.000 OA
ATOM     19  O   UNL     1      40.732 -56.540  59.170  0.00  0.00    +0.000 OA
ENDBRANCH  14  17
ENDBRANCH   3  11
BRANCH   2  20
ATOM     20  C   UNL     1      47.450 -51.981  54.103  0.00  0.00    +0.000 A 
ATOM     21  C   UNL     1      48.259 -52.115  52.969  0.00  0.00    +0.000 A 
ATOM     22  C   UNL     1      48.532 -51.030  52.135  0.00  0.00    +0.000 A 
ATOM     23  C   UNL     1      47.990 -49.778  52.415  0.00  0.00    +0.000 A 
ATOM     24  C   UNL     1      47.173 -49.624  53.531  0.00  0.00    +0.000 A 
ATOM     25  C   UNL     1      46.906 -50.715  54.358  0.00  0.00    +0.000 A 
BRANCH  23  26
ATOM     26  O   UNL     1      48.196 -48.652  51.661  0.00  0.00    +0.000 OA
BRANCH  26  27
ATOM     27  C   UNL     1      49.469 -48.280  51.545  0.00  0.00    +0.000 C 
ATOM     28  C   UNL     1      50.940 -47.868  51.413  0.00  0.00    +0.000 C 
ENDBRANCH  26  27
ENDBRANCH  23  26
ENDBRANCH   2  20
BRANCH   3  29
ATOM     29  O   UNL     1      46.696 -53.422  58.228  0.00  0.00    +0.000 OA
ATOM     30  H   UNL     1      46.373 -52.507  58.169  0.00  0.00    +0.000 HD
ENDBRANCH   3  29
TORSDOF 6
ENDMDL
MODEL 5
REMARK VINA RESULT:      -7.2      3.262      8.922
REMARK  Name = 5109870_Ethoxyphenyl.pdbqt.pdb
REMARK  6 active torsions:
REMARK  status: ('A' for Active; 'I' for Inactive)
REMARK    1  A    between atoms: N_2  and  C_22
REMARK    2  A    between atoms: C_3  and  O_11
REMARK    3  A    between atoms: C_3  and  C_13
REMARK    4  A    between atoms: C_16  and  N_19
REMARK    5  A    between atoms: C_25  and  O_28
REMARK    6  A    between atoms: O_28  and  C_29
REMARK                            x       y       z     vdW  Elec       q    Type
REMARK                         _______ _______ _______ _____ _____    ______ ____
ROOT
ATOM      1  N   UNL     1      45.348 -47.702  51.219  0.00  0.00    +0.000 N 
ATOM      2  N   UNL     1      46.715 -49.352  52.299  0.00  0.00    +0.000 N 
ATOM      3  C   UNL     1      46.161 -46.933  52.191  0.00  0.00    +0.000 C 
ATOM      4  C   UNL     1      45.622 -49.151  51.480  0.00  0.00    +0.000 C 
ATOM      5  C   UNL     1      47.029 -48.002  52.689  0.00  0.00    +0.000 C 
ATOM      6  C   UNL     1      43.917 -47.413  51.131  0.00  0.00    +0.000 C 
ATOM      7  C   UNL     1      44.598 -50.127  51.305  0.00  0.00    +0.000 C 
ATOM      8  C   UNL     1      42.460 -47.890  51.010  0.00  0.00    +0.000 C 
ATOM      9  C   UNL     1      43.100 -50.416  51.114  0.00  0.00    +0.000 C 
ATOM     10  C   UNL     1      42.017 -49.349  50.982  0.00  0.00    +0.000 C 
ENDROOT
BRANCH   3  11
ATOM     11  C   UNL     1      46.886 -45.787  51.525  0.00  0.00    +0.000 A 
ATOM     12  C   UNL     1      46.832 -45.594  50.137  0.00  0.00    +0.000 A 
ATOM     13  C   UNL     1      47.467 -44.509  49.536  0.00  0.00    +0.000 A 
ATOM     14  C   UNL     1      48.152 -43.601  50.338  0.00  0.00    +0.000 A 
ATOM     15  C   UNL     1      48.213 -43.754  51.720  0.00  0.00    +0.000 A 
ATOM     16  C   UNL     1      47.573 -44.843  52.304  0.00  0.00    +0.000 A 
BRANCH  14  17
ATOM     17  N   UNL     1      48.817 -42.471  49.719  0.00  0.00    +0.000 N 
ATOM     18  O   UNL     1      48.454 -41.336  50.058  0.00  0.00    +0.000 OA
ATOM     19  O   UNL     1      49.708 -42.709  48.891  0.00  0.00    +0.000 OA
ENDBRANCH  14  17
ENDBRANCH   3  11
BRANCH   2  20
ATOM     20  C   UNL     1      47.190 -50.488  52.974  0.00  0.00    +0.000 A 
ATOM     21  C   UNL     1      46.816 -50.779  54.290  0.00  0.00    +0.000 A 
ATOM     22  C   UNL     1      47.275 -51.923  54.943  0.00  0.00    +0.000 A 
ATOM     23  C   UNL     1      48.120 -52.813  54.285  0.00  0.00    +0.000 A 
ATOM     24  C   UNL     1      48.497 -52.550  52.971  0.00  0.00    +0.000 A 
ATOM     25  C   UNL     1      48.032 -51.403  52.327  0.00  0.00    +0.000 A 
BRANCH  23  26
ATOM     26  O   UNL     1      48.625 -53.963  54.835  0.00  0.00    +0.000 OA
BRANCH  26  27
ATOM     27  C   UNL     1      49.224 -53.804  56.013  0.00  0.00    +0.000 C 
ATOM     28  C   UNL     1      49.901 -53.628  57.377  0.00  0.00    +0.000 C 
ENDBRANCH  26  27
ENDBRANCH  23  26
ENDBRANCH   2  20
BRANCH   3  29
ATOM     29  O   UNL     1      45.404 -46.442  53.289  0.00  0.00    +0.000 OA
ATOM     30  H   UNL     1      44.516 -46.278  52.932  0.00  0.00    +0.000 HD
ENDBRANCH   3  29
TORSDOF 6
ENDMDL
MODEL 6
REMARK VINA RESULT:      -7.2      1.774      7.929
REMARK  Name = 5109870_Ethoxyphenyl.pdbqt.pdb
REMARK  6 active torsions:
REMARK  status: ('A' for Active; 'I' for Inactive)
REMARK    1  A    between atoms: N_2  and  C_22
REMARK    2  A    between atoms: C_3  and  O_11
REMARK    3  A    between atoms: C_3  and  C_13
REMARK    4  A    between atoms: C_16  and  N_19
REMARK    5  A    between atoms: C_25  and  O_28
REMARK    6  A    between atoms: O_28  and  C_29
REMARK                            x       y       z     vdW  Elec       q    Type
REMARK                         _______ _______ _______ _____ _____    ______ ____
ROOT
ATOM      1  N   UNL     1      47.939 -45.934  51.164  0.00  0.00    +0.000 N 
ATOM      2  N   UNL     1      45.604 -46.485  51.193  0.00  0.00    +0.000 N 
ATOM      3  C   UNL     1      47.348 -45.104  50.088  0.00  0.00    +0.000 C 
ATOM      4  C   UNL     1      46.857 -46.849  51.646  0.00  0.00    +0.000 C 
ATOM      5  C   UNL     1      45.931 -45.422  50.280  0.00  0.00    +0.000 C 
ATOM      6  C   UNL     1      49.187 -46.644  50.886  0.00  0.00    +0.000 C 
ATOM      7  C   UNL     1      47.165 -48.169  52.089  0.00  0.00    +0.000 C 
ATOM      8  C   UNL     1      50.059 -47.907  50.985  0.00  0.00    +0.000 C 
ATOM      9  C   UNL     1      48.196 -49.307  52.156  0.00  0.00    +0.000 C 
ATOM     10  C   UNL     1      49.620 -49.226  51.612  0.00  0.00    +0.000 C 
ENDROOT
BRANCH   3  11
ATOM     11  C   UNL     1      47.698 -43.644  50.255  0.00  0.00    +0.000 A 
ATOM     12  C   UNL     1      47.954 -42.821  49.148  0.00  0.00    +0.000 A 
ATOM     13  C   UNL     1      48.234 -41.467  49.308  0.00  0.00    +0.000 A 
ATOM     14  C   UNL     1      48.245 -40.928  50.592  0.00  0.00    +0.000 A 
ATOM     15  C   UNL     1      47.981 -41.712  51.710  0.00  0.00    +0.000 A 
ATOM     16  C   UNL     1      47.703 -43.064  51.533  0.00  0.00    +0.000 A 
BRANCH  14  17
ATOM     17  N   UNL     1      48.538 -39.519  50.766  0.00  0.00    +0.000 N 
ATOM     18  O   UNL     1      47.642 -38.800  51.232  0.00  0.00    +0.000 OA
ATOM     19  O   UNL     1      49.665 -39.120  50.440  0.00  0.00    +0.000 OA
ENDBRANCH  14  17
ENDBRANCH   3  11
BRANCH   2  20
ATOM     20  C   UNL     1      44.370 -47.154  51.200  0.00  0.00    +0.000 A 
ATOM     21  C   UNL     1      43.191 -46.530  51.620  0.00  0.00    +0.000 A 
ATOM     22  C   UNL     1      41.965 -47.195  51.602  0.00  0.00    +0.000 A 
ATOM     23  C   UNL     1      41.890 -48.511  51.150  0.00  0.00    +0.000 A 
ATOM     24  C   UNL     1      43.048 -49.149  50.716  0.00  0.00    +0.000 A 
ATOM     25  C   UNL     1      44.269 -48.474  50.739  0.00  0.00    +0.000 A 
BRANCH  23  26
ATOM     26  O   UNL     1      40.739 -49.252  51.091  0.00  0.00    +0.000 OA
BRANCH  26  27
ATOM     27  C   UNL     1      39.669 -48.592  50.653  0.00  0.00    +0.000 C 
ATOM     28  C   UNL     1      38.445 -47.817  50.150  0.00  0.00    +0.000 C 
ENDBRANCH  26  27
ENDBRANCH  23  26
ENDBRANCH   2  20
BRANCH   3  29
ATOM     29  O   UNL     1      47.716 -45.534  48.784  0.00  0.00    +0.000 OA
ATOM     30  H   UNL     1      46.932 -45.992  48.438  0.00  0.00    +0.000 HD
ENDBRANCH   3  29
TORSDOF 6
ENDMDL
MODEL 7
REMARK VINA RESULT:      -7.1      3.993      7.726
REMARK  Name = 5109870_Ethoxyphenyl.pdbqt.pdb
REMARK  6 active torsions:
REMARK  status: ('A' for Active; 'I' for Inactive)
REMARK    1  A    between atoms: N_2  and  C_22
REMARK    2  A    between atoms: C_3  and  O_11
REMARK    3  A    between atoms: C_3  and  C_13
REMARK    4  A    between atoms: C_16  and  N_19
REMARK    5  A    between atoms: C_25  and  O_28
REMARK    6  A    between atoms: O_28  and  C_29
REMARK                            x       y       z     vdW  Elec       q    Type
REMARK                         _______ _______ _______ _____ _____    ______ ____
ROOT
ATOM      1  N   UNL     1      46.038 -47.942  51.315  0.00  0.00    +0.000 N 
ATOM      2  N   UNL     1      46.509 -49.910  52.605  0.00  0.00    +0.000 N 
ATOM      3  C   UNL     1      45.047 -48.940  50.847  0.00  0.00    +0.000 C 
ATOM      4  C   UNL     1      46.974 -48.663  52.234  0.00  0.00    +0.000 C 
ATOM      5  C   UNL     1      45.341 -50.035  51.774  0.00  0.00    +0.000 C 
ATOM      6  C   UNL     1      46.744 -47.144  50.313  0.00  0.00    +0.000 C 
ATOM      7  C   UNL     1      48.352 -48.303  52.296  0.00  0.00    +0.000 C 
ATOM      8  C   UNL     1      48.037 -46.504  49.780  0.00  0.00    +0.000 C 
ATOM      9  C   UNL     1      49.522 -47.536  51.659  0.00  0.00    +0.000 C 
ATOM     10  C   UNL     1      49.415 -46.657  50.416  0.00  0.00    +0.000 C 
ENDROOT
BRANCH   3  11
ATOM     11  C   UNL     1      43.637 -48.404  50.925  0.00  0.00    +0.000 A 
ATOM     12  C   UNL     1      43.375 -47.093  51.348  0.00  0.00    +0.000 A 
ATOM     13  C   UNL     1      42.076 -46.592  51.375  0.00  0.00    +0.000 A 
ATOM     14  C   UNL     1      41.029 -47.411  50.962  0.00  0.00    +0.000 A 
ATOM     15  C   UNL     1      41.255 -48.711  50.521  0.00  0.00    +0.000 A 
ATOM     16  C   UNL     1      42.559 -49.196  50.500  0.00  0.00    +0.000 A 
BRANCH  14  17
ATOM     17  N   UNL     1      39.674 -46.897  50.990  0.00  0.00    +0.000 N 
ATOM     18  O   UNL     1      39.436 -45.871  50.337  0.00  0.00    +0.000 OA
ATOM     19  O   UNL     1      38.837 -47.515  51.663  0.00  0.00    +0.000 OA
ENDBRANCH  14  17
ENDBRANCH   3  11
BRANCH   2  20
ATOM     20  C   UNL     1      47.130 -50.994  53.245  0.00  0.00    +0.000 A 
ATOM     21  C   UNL     1      46.869 -51.316  54.581  0.00  0.00    +0.000 A 
ATOM     22  C   UNL     1      47.474 -52.409  55.201  0.00  0.00    +0.000 A 
ATOM     23  C   UNL     1      48.356 -53.218  54.487  0.00  0.00    +0.000 A 
ATOM     24  C   UNL     1      48.622 -52.924  53.154  0.00  0.00    +0.000 A 
ATOM     25  C   UNL     1      48.012 -51.828  52.544  0.00  0.00    +0.000 A 
BRANCH  23  26
ATOM     26  O   UNL     1      49.001 -54.313  55.001  0.00  0.00    +0.000 OA
BRANCH  26  27
ATOM     27  C   UNL     1      49.475 -54.157  56.235  0.00  0.00    +0.000 C 
ATOM     28  C   UNL     1      50.006 -53.969  57.661  0.00  0.00    +0.000 C 
ENDBRANCH  26  27
ENDBRANCH  23  26
ENDBRANCH   2  20
BRANCH   3  29
ATOM     29  O   UNL     1      45.304 -49.408  49.529  0.00  0.00    +0.000 OA
ATOM     30  H   UNL     1      45.782 -48.684  49.092  0.00  0.00    +0.000 HD
ENDBRANCH   3  29
TORSDOF 6
ENDMDL
MODEL 8
REMARK VINA RESULT:      -7.0      2.330      8.265
REMARK  Name = 5109870_Ethoxyphenyl.pdbqt.pdb
REMARK  6 active torsions:
REMARK  status: ('A' for Active; 'I' for Inactive)
REMARK    1  A    between atoms: N_2  and  C_22
REMARK    2  A    between atoms: C_3  and  O_11
REMARK    3  A    between atoms: C_3  and  C_13
REMARK    4  A    between atoms: C_16  and  N_19
REMARK    5  A    between atoms: C_25  and  O_28
REMARK    6  A    between atoms: O_28  and  C_29
REMARK                            x       y       z     vdW  Elec       q    Type
REMARK                         _______ _______ _______ _____ _____    ______ ____
ROOT
ATOM      1  N   UNL     1      49.526 -43.814  49.828  0.00  0.00    +0.000 N 
ATOM      2  N   UNL     1      47.392 -44.757  50.389  0.00  0.00    +0.000 N 
ATOM      3  C   UNL     1      48.544 -42.960  49.119  0.00  0.00    +0.000 C 
ATOM      4  C   UNL     1      48.758 -44.959  50.413  0.00  0.00    +0.000 C 
ATOM      5  C   UNL     1      47.299 -43.539  49.628  0.00  0.00    +0.000 C 
ATOM      6  C   UNL     1      50.715 -44.255  49.099  0.00  0.00    +0.000 C 
ATOM      7  C   UNL     1      49.346 -46.254  50.511  0.00  0.00    +0.000 C 
ATOM      8  C   UNL     1      51.728 -45.352  48.729  0.00  0.00    +0.000 C 
ATOM      9  C   UNL     1      50.485 -47.196  50.090  0.00  0.00    +0.000 C 
ATOM     10  C   UNL     1      51.663 -46.800  49.204  0.00  0.00    +0.000 C 
ENDROOT
BRANCH   3  11
ATOM     11  C   UNL     1      48.742 -41.498  49.444  0.00  0.00    +0.000 A 
ATOM     12  C   UNL     1      49.587 -40.685  48.675  0.00  0.00    +0.000 A 
ATOM     13  C   UNL     1      49.731 -39.329  48.954  0.00  0.00    +0.000 A 
ATOM     14  C   UNL     1      49.009 -38.778  50.009  0.00  0.00    +0.000 A 
ATOM     15  C   UNL     1      48.150 -39.552  50.783  0.00  0.00    +0.000 A 
ATOM     16  C   UNL     1      48.018 -40.906  50.490  0.00  0.00    +0.000 A 
BRANCH  14  17
ATOM     17  N   UNL     1      49.155 -37.367  50.308  0.00  0.00    +0.000 N 
ATOM     18  O   UNL     1      49.523 -37.056  51.449  0.00  0.00    +0.000 OA
ATOM     19  O   UNL     1      48.904 -36.558  49.403  0.00  0.00    +0.000 OA
ENDBRANCH  14  17
ENDBRANCH   3  11
BRANCH   2  20
ATOM     20  C   UNL     1      46.309 -45.622  50.611  0.00  0.00    +0.000 A 
ATOM     21  C   UNL     1      45.906 -45.992  51.898  0.00  0.00    +0.000 A 
ATOM     22  C   UNL     1      44.814 -46.834  52.108  0.00  0.00    +0.000 A 
ATOM     23  C   UNL     1      44.088 -47.322  51.024  0.00  0.00    +0.000 A 
ATOM     24  C   UNL     1      44.463 -46.959  49.735  0.00  0.00    +0.000 A 
ATOM     25  C   UNL     1      45.557 -46.117  49.536  0.00  0.00    +0.000 A 
BRANCH  23  26
ATOM     26  O   UNL     1      43.002 -48.153  51.122  0.00  0.00    +0.000 OA
BRANCH  26  27
ATOM     27  C   UNL     1      41.827 -47.565  50.908  0.00  0.00    +0.000 C 
ATOM     28  C   UNL     1      40.479 -46.875  50.670  0.00  0.00    +0.000 C 
ENDBRANCH  26  27
ENDBRANCH  23  26
ENDBRANCH   2  20
BRANCH   3  29
ATOM     29  O   UNL     1      48.561 -43.139  47.709  0.00  0.00    +0.000 OA
ATOM     30  H   UNL     1      47.705 -43.545  47.495  0.00  0.00    +0.000 HD
ENDBRANCH   3  29
TORSDOF 6
ENDMDL
MODEL 9
REMARK VINA RESULT:      -7.0      4.282      7.961
REMARK  Name = 5109870_Ethoxyphenyl.pdbqt.pdb
REMARK  6 active torsions:
REMARK  status: ('A' for Active; 'I' for Inactive)
REMARK    1  A    between atoms: N_2  and  C_22
REMARK    2  A    between atoms: C_3  and  O_11
REMARK    3  A    between atoms: C_3  and  C_13
REMARK    4  A    between atoms: C_16  and  N_19
REMARK    5  A    between atoms: C_25  and  O_28
REMARK    6  A    between atoms: O_28  and  C_29
REMARK                            x       y       z     vdW  Elec       q    Type
REMARK                         _______ _______ _______ _____ _____    ______ ____
ROOT
ATOM      1  N   UNL     1      48.617 -39.811  49.890  0.00  0.00    +0.000 N 
ATOM      2  N   UNL     1      48.895 -39.626  47.513  0.00  0.00    +0.000 N 
ATOM      3  C   UNL     1      47.696 -40.827  49.327  0.00  0.00    +0.000 C 
ATOM      4  C   UNL     1      49.155 -39.029  48.732  0.00  0.00    +0.000 C 
ATOM      5  C   UNL     1      48.039 -40.713  47.908  0.00  0.00    +0.000 C 
ATOM      6  C   UNL     1      48.126 -38.949  50.964  0.00  0.00    +0.000 C 
ATOM      7  C   UNL     1      49.446 -37.639  48.865  0.00  0.00    +0.000 C 
ATOM      8  C   UNL     1      48.010 -37.563  51.621  0.00  0.00    +0.000 C 
ATOM      9  C   UNL     1      49.288 -36.356  49.695  0.00  0.00    +0.000 C 
ATOM     10  C   UNL     1      48.577 -36.270  51.042  0.00  0.00    +0.000 C 
ENDROOT
BRANCH   3  11
ATOM     11  C   UNL     1      47.937 -42.191  49.931  0.00  0.00    +0.000 A 
ATOM     12  C   UNL     1      47.570 -42.482  51.252  0.00  0.00    +0.000 A 
ATOM     13  C   UNL     1      47.755 -43.754  51.787  0.00  0.00    +0.000 A 
ATOM     14  C   UNL     1      48.304 -44.749  50.984  0.00  0.00    +0.000 A 
ATOM     15  C   UNL     1      48.665 -44.499  49.663  0.00  0.00    +0.000 A 
ATOM     16  C   UNL     1      48.472 -43.222  49.144  0.00  0.00    +0.000 A 
BRANCH  14  17
ATOM     17  N   UNL     1      48.502 -46.076  51.534  0.00  0.00    +0.000 N 
ATOM     18  O   UNL     1      49.479 -46.723  51.134  0.00  0.00    +0.000 OA
ATOM     19  O   UNL     1      47.683 -46.480  52.371  0.00  0.00    +0.000 OA
ENDBRANCH  14  17
ENDBRANCH   3  11
BRANCH   2  20
ATOM     20  C   UNL     1      49.003 -39.159  46.194  0.00  0.00    +0.000 A 
ATOM     21  C   UNL     1      48.014 -38.363  45.606  0.00  0.00    +0.000 A 
ATOM     22  C   UNL     1      48.142 -37.885  44.302  0.00  0.00    +0.000 A 
ATOM     23  C   UNL     1      49.277 -38.188  43.554  0.00  0.00    +0.000 A 
ATOM     24  C   UNL     1      50.279 -38.968  44.122  0.00  0.00    +0.000 A 
ATOM     25  C   UNL     1      50.141 -39.441  45.427  0.00  0.00    +0.000 A 
BRANCH  23  26
ATOM     26  O   UNL     1      49.500 -37.768  42.268  0.00  0.00    +0.000 OA
BRANCH  26  27
ATOM     27  C   UNL     1      50.335 -36.738  42.151  0.00  0.00    +0.000 C 
ATOM     28  C   UNL     1      51.310 -35.562  42.016  0.00  0.00    +0.000 C 
ENDBRANCH  26  27
ENDBRANCH  23  26
ENDBRANCH   2  20
BRANCH   3  29
ATOM     29  O   UNL     1      46.325 -40.480  49.472  0.00  0.00    +0.000 OA
ATOM     30  H   UNL     1      46.233 -40.191  50.395  0.00  0.00    +0.000 HD
ENDBRANCH   3  29
TORSDOF 6
ENDMDL
