MODEL 1
REMARK VINA RESULT:      -7.4      0.000      0.000
REMARK  Name = 5280445_Luteolin.pdbqt.pdb
REMARK  5 active torsions:
REMARK  status: ('A' for Active; 'I' for Inactive)
REMARK    1  A    between atoms: C_5  and  C_12
REMARK    2  A    between atoms: C_8  and  O_22
REMARK    3  A    between atoms: C_10  and  O_24
REMARK    4  A    between atoms: C_15  and  O_18
REMARK    5  A    between atoms: C_17  and  O_20
REMARK                            x       y       z     vdW  Elec       q    Type
REMARK                         _______ _______ _______ _____ _____    ______ ____
ROOT
ATOM      1  O   UNL     1      48.663 -40.718  50.561  0.00  0.00    +0.000 OA
ATOM      2  O   UNL     1      50.080 -40.341  46.718  0.00  0.00    +0.000 OA
ATOM      3  C   UNL     1      49.427 -41.841  48.475  0.00  0.00    +0.000 A 
ATOM      4  C   UNL     1      48.938 -41.861  49.805  0.00  0.00    +0.000 A 
ATOM      5  C   UNL     1      48.880 -39.460  49.987  0.00  0.00    +0.000 A 
ATOM      6  C   UNL     1      49.664 -40.527  47.847  0.00  0.00    +0.000 A 
ATOM      7  C   UNL     1      49.325 -39.512  48.776  0.00  0.00    +0.000 A 
ATOM      8  C   UNL     1      49.674 -43.030  47.790  0.00  0.00    +0.000 A 
ATOM      9  C   UNL     1      48.702 -43.081  50.430  0.00  0.00    +0.000 A 
ATOM     10  C   UNL     1      48.953 -44.261  49.733  0.00  0.00    +0.000 A 
ATOM     11  C   UNL     1      49.436 -44.246  48.423  0.00  0.00    +0.000 A 
ENDROOT
BRANCH   5  12
ATOM     12  C   UNL     1      48.592 -38.270  50.778  0.00  0.00    +0.000 A 
ATOM     13  C   UNL     1      47.298 -37.743  50.818  0.00  0.00    +0.000 A 
ATOM     14  C   UNL     1      49.605 -37.635  51.510  0.00  0.00    +0.000 A 
ATOM     15  C   UNL     1      47.035 -36.608  51.574  0.00  0.00    +0.000 A 
ATOM     16  C   UNL     1      49.341 -36.495  52.269  0.00  0.00    +0.000 A 
ATOM     17  C   UNL     1      48.049 -35.988  52.296  0.00  0.00    +0.000 A 
BRANCH  15  18
ATOM     18  O   UNL     1      45.766 -36.104  51.606  0.00  0.00    +0.000 OA
ATOM     19  H   UNL     1      45.286 -36.578  50.897  0.00  0.00    +0.000 HD
ENDBRANCH  15  18
BRANCH  17  20
ATOM     20  O   UNL     1      47.738 -34.873  53.026  0.00  0.00    +0.000 OA
ATOM     21  H   UNL     1      47.881 -34.096  52.454  0.00  0.00    +0.000 HD
ENDBRANCH  17  20
ENDBRANCH   5  12
BRANCH   8  22
ATOM     22  O   UNL     1      50.146 -43.074  46.508  0.00  0.00    +0.000 OA
ATOM     23  H   UNL     1      49.961 -42.220  46.059  0.00  0.00    +0.000 HD
ENDBRANCH   8  22
BRANCH  10  24
ATOM     24  O   UNL     1      48.716 -45.447  50.367  0.00  0.00    +0.000 OA
ATOM     25  H   UNL     1      47.961 -45.324  50.969  0.00  0.00    +0.000 HD
ENDBRANCH  10  24
TORSDOF 5
ENDMDL
MODEL 2
REMARK VINA RESULT:      -7.4      1.682      6.505
REMARK  Name = 5280445_Luteolin.pdbqt.pdb
REMARK  5 active torsions:
REMARK  status: ('A' for Active; 'I' for Inactive)
REMARK    1  A    between atoms: C_5  and  C_12
REMARK    2  A    between atoms: C_8  and  O_22
REMARK    3  A    between atoms: C_10  and  O_24
REMARK    4  A    between atoms: C_15  and  O_18
REMARK    5  A    between atoms: C_17  and  O_20
REMARK                            x       y       z     vdW  Elec       q    Type
REMARK                         _______ _______ _______ _____ _____    ______ ____
ROOT
ATOM      1  O   UNL     1      48.347 -40.726  50.779  0.00  0.00    +0.000 OA
ATOM      2  O   UNL     1      50.152 -40.254  47.113  0.00  0.00    +0.000 OA
ATOM      3  C   UNL     1      49.151 -39.172  49.009  0.00  0.00    +0.000 A 
ATOM      4  C   UNL     1      48.540 -39.444  50.258  0.00  0.00    +0.000 A 
ATOM      5  C   UNL     1      48.775 -41.831  50.033  0.00  0.00    +0.000 A 
ATOM      6  C   UNL     1      49.611 -40.319  48.202  0.00  0.00    +0.000 A 
ATOM      7  C   UNL     1      49.322 -41.515  48.907  0.00  0.00    +0.000 A 
ATOM      8  C   UNL     1      49.307 -37.860  48.563  0.00  0.00    +0.000 A 
ATOM      9  C   UNL     1      48.094 -38.389  51.047  0.00  0.00    +0.000 A 
ATOM     10  C   UNL     1      48.256 -37.083  50.588  0.00  0.00    +0.000 A 
ATOM     11  C   UNL     1      48.856 -36.811  49.358  0.00  0.00    +0.000 A 
ENDROOT
BRANCH   5  12
ATOM     12  C   UNL     1      48.572 -43.167  50.578  0.00  0.00    +0.000 A 
ATOM     13  C   UNL     1      48.188 -43.336  51.912  0.00  0.00    +0.000 A 
ATOM     14  C   UNL     1      48.757 -44.302  49.778  0.00  0.00    +0.000 A 
ATOM     15  C   UNL     1      47.998 -44.614  52.422  0.00  0.00    +0.000 A 
ATOM     16  C   UNL     1      48.566 -45.586  50.290  0.00  0.00    +0.000 A 
ATOM     17  C   UNL     1      48.185 -45.732  51.617  0.00  0.00    +0.000 A 
BRANCH  15  18
ATOM     18  O   UNL     1      47.623 -44.764  53.726  0.00  0.00    +0.000 OA
ATOM     19  H   UNL     1      46.660 -44.935  53.696  0.00  0.00    +0.000 HD
ENDBRANCH  15  18
BRANCH  17  20
ATOM     20  O   UNL     1      47.985 -46.968  52.167  0.00  0.00    +0.000 OA
ATOM     21  H   UNL     1      47.352 -47.445  51.600  0.00  0.00    +0.000 HD
ENDBRANCH  17  20
ENDBRANCH   5  12
BRANCH   8  22
ATOM     22  O   UNL     1      49.886 -37.537  47.368  0.00  0.00    +0.000 OA
ATOM     23  H   UNL     1      50.083 -36.575  47.348  0.00  0.00    +0.000 HD
ENDBRANCH   8  22
BRANCH  10  24
ATOM     24  O   UNL     1      47.810 -36.063  51.378  0.00  0.00    +0.000 OA
ATOM     25  H   UNL     1      48.466 -35.344  51.348  0.00  0.00    +0.000 HD
ENDBRANCH  10  24
TORSDOF 5
ENDMDL
MODEL 3
REMARK VINA RESULT:      -7.1      2.175      6.682
REMARK  Name = 5280445_Luteolin.pdbqt.pdb
REMARK  5 active torsions:
REMARK  status: ('A' for Active; 'I' for Inactive)
REMARK    1  A    between atoms: C_5  and  C_12
REMARK    2  A    between atoms: C_8  and  O_22
REMARK    3  A    between atoms: C_10  and  O_24
REMARK    4  A    between atoms: C_15  and  O_18
REMARK    5  A    between atoms: C_17  and  O_20
REMARK                            x       y       z     vdW  Elec       q    Type
REMARK                         _______ _______ _______ _____ _____    ______ ____
ROOT
ATOM      1  O   UNL     1      49.015 -41.185  48.991  0.00  0.00    +0.000 OA
ATOM      2  O   UNL     1      47.873 -38.269  51.659  0.00  0.00    +0.000 OA
ATOM      3  C   UNL     1      48.717 -38.759  49.465  0.00  0.00    +0.000 A 
ATOM      4  C   UNL     1      49.086 -39.838  48.623  0.00  0.00    +0.000 A 
ATOM      5  C   UNL     1      48.553 -41.513  50.272  0.00  0.00    +0.000 A 
ATOM      6  C   UNL     1      48.227 -39.077  50.820  0.00  0.00    +0.000 A 
ATOM      7  C   UNL     1      48.235 -40.486  50.986  0.00  0.00    +0.000 A 
ATOM      8  C   UNL     1      48.818 -37.442  49.018  0.00  0.00    +0.000 A 
ATOM      9  C   UNL     1      49.552 -39.578  47.339  0.00  0.00    +0.000 A 
ATOM     10  C   UNL     1      49.647 -38.256  46.907  0.00  0.00    +0.000 A 
ATOM     11  C   UNL     1      49.286 -37.190  47.732  0.00  0.00    +0.000 A 
ENDROOT
BRANCH   5  12
ATOM     12  C   UNL     1      48.480 -42.917  50.652  0.00  0.00    +0.000 A 
ATOM     13  C   UNL     1      48.070 -43.281  51.938  0.00  0.00    +0.000 A 
ATOM     14  C   UNL     1      48.818 -43.925  49.739  0.00  0.00    +0.000 A 
ATOM     15  C   UNL     1      48.005 -44.623  52.291  0.00  0.00    +0.000 A 
ATOM     16  C   UNL     1      48.753 -45.273  50.093  0.00  0.00    +0.000 A 
ATOM     17  C   UNL     1      48.343 -45.613  51.375  0.00  0.00    +0.000 A 
BRANCH  15  18
ATOM     18  O   UNL     1      47.602 -44.965  53.550  0.00  0.00    +0.000 OA
ATOM     19  H   UNL     1      48.154 -45.735  53.795  0.00  0.00    +0.000 HD
ENDBRANCH  15  18
BRANCH  17  20
ATOM     20  O   UNL     1      48.261 -46.920  51.772  0.00  0.00    +0.000 OA
ATOM     21  H   UNL     1      48.260 -46.934  52.746  0.00  0.00    +0.000 HD
ENDBRANCH  17  20
ENDBRANCH   5  12
BRANCH   8  22
ATOM     22  O   UNL     1      48.478 -36.361  49.784  0.00  0.00    +0.000 OA
ATOM     23  H   UNL     1      47.601 -36.514  50.198  0.00  0.00    +0.000 HD
ENDBRANCH   8  22
BRANCH  10  24
ATOM     24  O   UNL     1      50.108 -38.024  45.643  0.00  0.00    +0.000 OA
ATOM     25  H   UNL     1      49.533 -38.499  45.016  0.00  0.00    +0.000 HD
ENDBRANCH  10  24
TORSDOF 5
ENDMDL
MODEL 4
REMARK VINA RESULT:      -6.9      2.873      7.963
REMARK  Name = 5280445_Luteolin.pdbqt.pdb
REMARK  5 active torsions:
REMARK  status: ('A' for Active; 'I' for Inactive)
REMARK    1  A    between atoms: C_5  and  C_12
REMARK    2  A    between atoms: C_8  and  O_22
REMARK    3  A    between atoms: C_10  and  O_24
REMARK    4  A    between atoms: C_15  and  O_18
REMARK    5  A    between atoms: C_17  and  O_20
REMARK                            x       y       z     vdW  Elec       q    Type
REMARK                         _______ _______ _______ _____ _____    ______ ____
ROOT
ATOM      1  O   UNL     1      49.142 -44.134  49.501  0.00  0.00    +0.000 OA
ATOM      2  O   UNL     1      46.856 -41.833  52.030  0.00  0.00    +0.000 OA
ATOM      3  C   UNL     1      48.176 -41.901  50.026  0.00  0.00    +0.000 A 
ATOM      4  C   UNL     1      48.944 -42.779  49.222  0.00  0.00    +0.000 A 
ATOM      5  C   UNL     1      48.551 -44.682  50.646  0.00  0.00    +0.000 A 
ATOM      6  C   UNL     1      47.543 -42.453  51.239  0.00  0.00    +0.000 A 
ATOM      7  C   UNL     1      47.866 -43.830  51.334  0.00  0.00    +0.000 A 
ATOM      8  C   UNL     1      48.028 -40.560  49.674  0.00  0.00    +0.000 A 
ATOM      9  C   UNL     1      49.556 -42.296  48.070  0.00  0.00    +0.000 A 
ATOM     10  C   UNL     1      49.400 -40.953  47.732  0.00  0.00    +0.000 A 
ATOM     11  C   UNL     1      48.644 -40.084  48.521  0.00  0.00    +0.000 A 
ENDROOT
BRANCH   5  12
ATOM     12  C   UNL     1      48.759 -46.095  50.935  0.00  0.00    +0.000 A 
ATOM     13  C   UNL     1      47.909 -46.769  51.817  0.00  0.00    +0.000 A 
ATOM     14  C   UNL     1      49.809 -46.802  50.334  0.00  0.00    +0.000 A 
ATOM     15  C   UNL     1      48.116 -48.116  52.086  0.00  0.00    +0.000 A 
ATOM     16  C   UNL     1      50.017 -48.155  50.603  0.00  0.00    +0.000 A 
ATOM     17  C   UNL     1      49.162 -48.805  51.483  0.00  0.00    +0.000 A 
BRANCH  15  18
ATOM     18  O   UNL     1      47.279 -48.762  52.949  0.00  0.00    +0.000 OA
ATOM     19  H   UNL     1      46.855 -48.052  53.473  0.00  0.00    +0.000 HD
ENDBRANCH  15  18
BRANCH  17  20
ATOM     20  O   UNL     1      49.323 -50.131  51.780  0.00  0.00    +0.000 OA
ATOM     21  H   UNL     1      48.588 -50.618  51.366  0.00  0.00    +0.000 HD
ENDBRANCH  17  20
ENDBRANCH   5  12
BRANCH   8  22
ATOM     22  O   UNL     1      47.301 -39.666  50.410  0.00  0.00    +0.000 OA
ATOM     23  H   UNL     1      47.733 -39.528  51.281  0.00  0.00    +0.000 HD
ENDBRANCH   8  22
BRANCH  10  24
ATOM     24  O   UNL     1      50.010 -40.499  46.597  0.00  0.00    +0.000 OA
ATOM     25  H   UNL     1      50.432 -41.257  46.154  0.00  0.00    +0.000 HD
ENDBRANCH  10  24
TORSDOF 5
ENDMDL
MODEL 5
REMARK VINA RESULT:      -6.9      4.181      6.950
REMARK  Name = 5280445_Luteolin.pdbqt.pdb
REMARK  5 active torsions:
REMARK  status: ('A' for Active; 'I' for Inactive)
REMARK    1  A    between atoms: C_5  and  C_12
REMARK    2  A    between atoms: C_8  and  O_22
REMARK    3  A    between atoms: C_10  and  O_24
REMARK    4  A    between atoms: C_15  and  O_18
REMARK    5  A    between atoms: C_17  and  O_20
REMARK                            x       y       z     vdW  Elec       q    Type
REMARK                         _______ _______ _______ _____ _____    ______ ____
ROOT
ATOM      1  O   UNL     1      48.227 -36.058  48.383  0.00  0.00    +0.000 OA
ATOM      2  O   UNL     1      50.772 -39.192  49.170  0.00  0.00    +0.000 OA
ATOM      3  C   UNL     1      49.307 -37.522  50.081  0.00  0.00    +0.000 A 
ATOM      4  C   UNL     1      48.452 -36.457  49.703  0.00  0.00    +0.000 A 
ATOM      5  C   UNL     1      48.880 -36.740  47.349  0.00  0.00    +0.000 A 
ATOM      6  C   UNL     1      50.008 -38.258  49.011  0.00  0.00    +0.000 A 
ATOM      7  C   UNL     1      49.643 -37.697  47.761  0.00  0.00    +0.000 A 
ATOM      8  C   UNL     1      49.476 -37.857  51.424  0.00  0.00    +0.000 A 
ATOM      9  C   UNL     1      47.775 -35.740  50.684  0.00  0.00    +0.000 A 
ATOM     10  C   UNL     1      47.953 -36.087  52.022  0.00  0.00    +0.000 A 
ATOM     11  C   UNL     1      48.795 -37.134  52.399  0.00  0.00    +0.000 A 
ENDROOT
BRANCH   5  12
ATOM     12  C   UNL     1      48.643 -36.322  45.974  0.00  0.00    +0.000 A 
ATOM     13  C   UNL     1      48.493 -34.967  45.662  0.00  0.00    +0.000 A 
ATOM     14  C   UNL     1      48.563 -37.267  44.942  0.00  0.00    +0.000 A 
ATOM     15  C   UNL     1      48.267 -34.579  44.348  0.00  0.00    +0.000 A 
ATOM     16  C   UNL     1      48.336 -36.877  43.622  0.00  0.00    +0.000 A 
ATOM     17  C   UNL     1      48.190 -35.527  43.333  0.00  0.00    +0.000 A 
BRANCH  15  18
ATOM     18  O   UNL     1      48.122 -33.253  44.057  0.00  0.00    +0.000 OA
ATOM     19  H   UNL     1      47.635 -32.877  44.818  0.00  0.00    +0.000 HD
ENDBRANCH  15  18
BRANCH  17  20
ATOM     20  O   UNL     1      47.966 -35.094  42.055  0.00  0.00    +0.000 OA
ATOM     21  H   UNL     1      48.536 -35.615  41.462  0.00  0.00    +0.000 HD
ENDBRANCH  17  20
ENDBRANCH   5  12
BRANCH   8  22
ATOM     22  O   UNL     1      50.287 -38.872  51.850  0.00  0.00    +0.000 OA
ATOM     23  H   UNL     1      50.915 -38.531  52.523  0.00  0.00    +0.000 HD
ENDBRANCH   8  22
BRANCH  10  24
ATOM     24  O   UNL     1      47.279 -35.369  52.968  0.00  0.00    +0.000 OA
ATOM     25  H   UNL     1      47.836 -35.315  53.765  0.00  0.00    +0.000 HD
ENDBRANCH  10  24
TORSDOF 5
ENDMDL
MODEL 6
REMARK VINA RESULT:      -6.9      2.831      4.232
REMARK  Name = 5280445_Luteolin.pdbqt.pdb
REMARK  5 active torsions:
REMARK  status: ('A' for Active; 'I' for Inactive)
REMARK    1  A    between atoms: C_5  and  C_12
REMARK    2  A    between atoms: C_8  and  O_22
REMARK    3  A    between atoms: C_10  and  O_24
REMARK    4  A    between atoms: C_15  and  O_18
REMARK    5  A    between atoms: C_17  and  O_20
REMARK                            x       y       z     vdW  Elec       q    Type
REMARK                         _______ _______ _______ _____ _____    ______ ____
ROOT
ATOM      1  O   UNL     1      49.522 -41.935  48.980  0.00  0.00    +0.000 OA
ATOM      2  O   UNL     1      46.919 -41.953  52.164  0.00  0.00    +0.000 OA
ATOM      3  C   UNL     1      48.342 -43.252  50.732  0.00  0.00    +0.000 A 
ATOM      4  C   UNL     1      49.223 -43.137  49.628  0.00  0.00    +0.000 A 
ATOM      5  C   UNL     1      48.922 -40.754  49.434  0.00  0.00    +0.000 A 
ATOM      6  C   UNL     1      47.697 -42.022  51.230  0.00  0.00    +0.000 A 
ATOM      7  C   UNL     1      48.132 -40.928  50.440  0.00  0.00    +0.000 A 
ATOM      8  C   UNL     1      48.100 -44.491  51.322  0.00  0.00    +0.000 A 
ATOM      9  C   UNL     1      49.851 -44.273  49.130  0.00  0.00    +0.000 A 
ATOM     10  C   UNL     1      49.599 -45.505  49.730  0.00  0.00    +0.000 A 
ATOM     11  C   UNL     1      48.731 -45.624  50.817  0.00  0.00    +0.000 A 
ENDROOT
BRANCH   5  12
ATOM     12  C   UNL     1      49.236 -39.502  48.757  0.00  0.00    +0.000 A 
ATOM     13  C   UNL     1      49.497 -39.487  47.384  0.00  0.00    +0.000 A 
ATOM     14  C   UNL     1      49.280 -38.295  49.468  0.00  0.00    +0.000 A 
ATOM     15  C   UNL     1      49.796 -38.289  46.748  0.00  0.00    +0.000 A 
ATOM     16  C   UNL     1      49.580 -37.092  48.830  0.00  0.00    +0.000 A 
ATOM     17  C   UNL     1      49.836 -37.098  47.465  0.00  0.00    +0.000 A 
BRANCH  15  18
ATOM     18  O   UNL     1      50.049 -38.288  45.406  0.00  0.00    +0.000 OA
ATOM     19  H   UNL     1      49.705 -37.432  45.082  0.00  0.00    +0.000 HD
ENDBRANCH  15  18
BRANCH  17  20
ATOM     20  O   UNL     1      50.135 -35.945  46.793  0.00  0.00    +0.000 OA
ATOM     21  H   UNL     1      50.193 -35.227  47.449  0.00  0.00    +0.000 HD
ENDBRANCH  17  20
ENDBRANCH   5  12
BRANCH   8  22
ATOM     22  O   UNL     1      47.260 -44.665  52.387  0.00  0.00    +0.000 OA
ATOM     23  H   UNL     1      46.495 -44.055  52.306  0.00  0.00    +0.000 HD
ENDBRANCH   8  22
BRANCH  10  24
ATOM     24  O   UNL     1      50.225 -46.608  49.224  0.00  0.00    +0.000 OA
ATOM     25  H   UNL     1      51.185 -46.496  49.345  0.00  0.00    +0.000 HD
ENDBRANCH  10  24
TORSDOF 5
ENDMDL
MODEL 7
REMARK VINA RESULT:      -6.5      3.482      4.660
REMARK  Name = 5280445_Luteolin.pdbqt.pdb
REMARK  5 active torsions:
REMARK  status: ('A' for Active; 'I' for Inactive)
REMARK    1  A    between atoms: C_5  and  C_12
REMARK    2  A    between atoms: C_8  and  O_22
REMARK    3  A    between atoms: C_10  and  O_24
REMARK    4  A    between atoms: C_15  and  O_18
REMARK    5  A    between atoms: C_17  and  O_20
REMARK                            x       y       z     vdW  Elec       q    Type
REMARK                         _______ _______ _______ _____ _____    ______ ____
ROOT
ATOM      1  O   UNL     1      49.534 -38.380  47.701  0.00  0.00    +0.000 OA
ATOM      2  O   UNL     1      48.393 -35.231  45.313  0.00  0.00    +0.000 OA
ATOM      3  C   UNL     1      49.275 -37.463  45.402  0.00  0.00    +0.000 A 
ATOM      4  C   UNL     1      49.640 -38.486  46.311  0.00  0.00    +0.000 A 
ATOM      5  C   UNL     1      49.038 -37.192  48.253  0.00  0.00    +0.000 A 
ATOM      6  C   UNL     1      48.749 -36.201  45.957  0.00  0.00    +0.000 A 
ATOM      7  C   UNL     1      48.725 -36.303  47.371  0.00  0.00    +0.000 A 
ATOM      8  C   UNL     1      49.411 -37.651  44.027  0.00  0.00    +0.000 A 
ATOM      9  C   UNL     1      50.139 -39.690  45.826  0.00  0.00    +0.000 A 
ATOM     10  C   UNL     1      50.270 -39.863  44.449  0.00  0.00    +0.000 A 
ATOM     11  C   UNL     1      49.912 -38.858  43.549  0.00  0.00    +0.000 A 
ENDROOT
BRANCH   5  12
ATOM     12  C   UNL     1      48.929 -37.084  49.702  0.00  0.00    +0.000 A 
ATOM     13  C   UNL     1      47.905 -36.329  50.280  0.00  0.00    +0.000 A 
ATOM     14  C   UNL     1      49.845 -37.735  50.539  0.00  0.00    +0.000 A 
ATOM     15  C   UNL     1      47.810 -36.232  51.662  0.00  0.00    +0.000 A 
ATOM     16  C   UNL     1      49.750 -37.638  51.928  0.00  0.00    +0.000 A 
ATOM     17  C   UNL     1      48.725 -36.882  52.481  0.00  0.00    +0.000 A 
BRANCH  15  18
ATOM     18  O   UNL     1      46.804 -35.491  52.213  0.00  0.00    +0.000 OA
ATOM     19  H   UNL     1      46.076 -36.125  52.369  0.00  0.00    +0.000 HD
ENDBRANCH  15  18
BRANCH  17  20
ATOM     20  O   UNL     1      48.589 -36.756  53.837  0.00  0.00    +0.000 OA
ATOM     21  H   UNL     1      49.421 -36.389  54.185  0.00  0.00    +0.000 HD
ENDBRANCH  17  20
ENDBRANCH   5  12
BRANCH   8  22
ATOM     22  O   UNL     1      49.077 -36.702  43.101  0.00  0.00    +0.000 OA
ATOM     23  H   UNL     1      48.422 -36.081  43.489  0.00  0.00    +0.000 HD
ENDBRANCH   8  22
BRANCH  10  24
ATOM     24  O   UNL     1      50.763 -41.053  43.994  0.00  0.00    +0.000 OA
ATOM     25  H   UNL     1      51.275 -40.881  43.184  0.00  0.00    +0.000 HD
ENDBRANCH  10  24
TORSDOF 5
ENDMDL
MODEL 8
REMARK VINA RESULT:      -6.5      4.753      8.563
REMARK  Name = 5280445_Luteolin.pdbqt.pdb
REMARK  5 active torsions:
REMARK  status: ('A' for Active; 'I' for Inactive)
REMARK    1  A    between atoms: C_5  and  C_12
REMARK    2  A    between atoms: C_8  and  O_22
REMARK    3  A    between atoms: C_10  and  O_24
REMARK    4  A    between atoms: C_15  and  O_18
REMARK    5  A    between atoms: C_17  and  O_20
REMARK                            x       y       z     vdW  Elec       q    Type
REMARK                         _______ _______ _______ _____ _____    ______ ____
ROOT
ATOM      1  O   UNL     1      50.373 -44.685  49.443  0.00  0.00    +0.000 OA
ATOM      2  O   UNL     1      49.214 -48.243  51.150  0.00  0.00    +0.000 OA
ATOM      3  C   UNL     1      48.814 -45.883  50.969  0.00  0.00    +0.000 A 
ATOM      4  C   UNL     1      49.293 -44.712  50.330  0.00  0.00    +0.000 A 
ATOM      5  C   UNL     1      51.042 -45.881  49.155  0.00  0.00    +0.000 A 
ATOM      6  C   UNL     1      49.501 -47.156  50.683  0.00  0.00    +0.000 A 
ATOM      7  C   UNL     1      50.557 -46.907  49.769  0.00  0.00    +0.000 A 
ATOM      8  C   UNL     1      47.727 -45.823  51.841  0.00  0.00    +0.000 A 
ATOM      9  C   UNL     1      48.670 -43.493  50.575  0.00  0.00    +0.000 A 
ATOM     10  C   UNL     1      47.586 -43.449  51.448  0.00  0.00    +0.000 A 
ATOM     11  C   UNL     1      47.111 -44.599  52.082  0.00  0.00    +0.000 A 
ENDROOT
BRANCH   5  12
ATOM     12  C   UNL     1      52.168 -45.849  48.230  0.00  0.00    +0.000 A 
ATOM     13  C   UNL     1      52.103 -45.083  47.062  0.00  0.00    +0.000 A 
ATOM     14  C   UNL     1      53.332 -46.583  48.494  0.00  0.00    +0.000 A 
ATOM     15  C   UNL     1      53.181 -45.060  46.187  0.00  0.00    +0.000 A 
ATOM     16  C   UNL     1      54.415 -46.560  47.615  0.00  0.00    +0.000 A 
ATOM     17  C   UNL     1      54.330 -45.793  46.461  0.00  0.00    +0.000 A 
BRANCH  15  18
ATOM     18  O   UNL     1      53.104 -44.307  45.051  0.00  0.00    +0.000 OA
ATOM     19  H   UNL     1      52.566 -43.528  45.297  0.00  0.00    +0.000 HD
ENDBRANCH  15  18
BRANCH  17  20
ATOM     20  O   UNL     1      55.365 -45.736  45.568  0.00  0.00    +0.000 OA
ATOM     21  H   UNL     1      55.162 -45.033  44.924  0.00  0.00    +0.000 HD
ENDBRANCH  17  20
ENDBRANCH   5  12
BRANCH   8  22
ATOM     22  O   UNL     1      47.222 -46.916  52.488  0.00  0.00    +0.000 OA
ATOM     23  H   UNL     1      46.654 -47.429  51.872  0.00  0.00    +0.000 HD
ENDBRANCH   8  22
BRANCH  10  24
ATOM     24  O   UNL     1      46.990 -42.241  51.675  0.00  0.00    +0.000 OA
ATOM     25  H   UNL     1      46.171 -42.202  51.150  0.00  0.00    +0.000 HD
ENDBRANCH  10  24
TORSDOF 5
ENDMDL
MODEL 9
REMARK VINA RESULT:      -6.5      4.848      8.183
REMARK  Name = 5280445_Luteolin.pdbqt.pdb
REMARK  5 active torsions:
REMARK  status: ('A' for Active; 'I' for Inactive)
REMARK    1  A    between atoms: C_5  and  C_12
REMARK    2  A    between atoms: C_8  and  O_22
REMARK    3  A    between atoms: C_10  and  O_24
REMARK    4  A    between atoms: C_15  and  O_18
REMARK    5  A    between atoms: C_17  and  O_20
REMARK                            x       y       z     vdW  Elec       q    Type
REMARK                         _______ _______ _______ _____ _____    ______ ____
ROOT
ATOM      1  O   UNL     1      50.168 -46.230  49.822  0.00  0.00    +0.000 OA
ATOM      2  O   UNL     1      48.748 -42.374  50.000  0.00  0.00    +0.000 OA
ATOM      3  C   UNL     1      48.491 -44.641  50.748  0.00  0.00    +0.000 A 
ATOM      4  C   UNL     1      49.058 -45.933  50.617  0.00  0.00    +0.000 A 
ATOM      5  C   UNL     1      50.776 -45.198  49.098  0.00  0.00    +0.000 A 
ATOM      6  C   UNL     1      49.113 -43.535  49.995  0.00  0.00    +0.000 A 
ATOM      7  C   UNL     1      50.213 -44.048  49.261  0.00  0.00    +0.000 A 
ATOM      8  C   UNL     1      47.381 -44.430  51.565  0.00  0.00    +0.000 A 
ATOM      9  C   UNL     1      48.499 -47.001  51.312  0.00  0.00    +0.000 A 
ATOM     10  C   UNL     1      47.390 -46.775  52.125  0.00  0.00    +0.000 A 
ATOM     11  C   UNL     1      46.828 -45.504  52.256  0.00  0.00    +0.000 A 
ENDROOT
BRANCH   5  12
ATOM     12  C   UNL     1      51.934 -45.510  48.270  0.00  0.00    +0.000 A 
ATOM     13  C   UNL     1      52.124 -44.862  47.046  0.00  0.00    +0.000 A 
ATOM     14  C   UNL     1      52.876 -46.461  48.685  0.00  0.00    +0.000 A 
ATOM     15  C   UNL     1      53.231 -45.168  46.264  0.00  0.00    +0.000 A 
ATOM     16  C   UNL     1      53.988 -46.768  47.901  0.00  0.00    +0.000 A 
ATOM     17  C   UNL     1      54.157 -46.114  46.688  0.00  0.00    +0.000 A 
BRANCH  15  18
ATOM     18  O   UNL     1      53.404 -44.528  45.070  0.00  0.00    +0.000 OA
ATOM     19  H   UNL     1      54.175 -43.941  45.205  0.00  0.00    +0.000 HD
ENDBRANCH  15  18
BRANCH  17  20
ATOM     20  O   UNL     1      55.230 -46.379  45.882  0.00  0.00    +0.000 OA
ATOM     21  H   UNL     1      55.569 -47.260  46.121  0.00  0.00    +0.000 HD
ENDBRANCH  17  20
ENDBRANCH   5  12
BRANCH   8  22
ATOM     22  O   UNL     1      46.790 -43.208  51.731  0.00  0.00    +0.000 OA
ATOM     23  H   UNL     1      46.289 -42.973  50.920  0.00  0.00    +0.000 HD
ENDBRANCH   8  22
BRANCH  10  24
ATOM     24  O   UNL     1      46.857 -47.837  52.797  0.00  0.00    +0.000 OA
ATOM     25  H   UNL     1      46.358 -47.496  53.561  0.00  0.00    +0.000 HD
ENDBRANCH  10  24
TORSDOF 5
ENDMDL
