MODEL 1
REMARK VINA RESULT:      -7.5      0.000      0.000
REMARK  Name = 5281698_sexangularetin.pdbqt.pdb
REMARK  6 active torsions:
REMARK  status: ('A' for Active; 'I' for Inactive)
REMARK    1  A    between atoms: C_5  and  C_12
REMARK    2  A    between atoms: C_6  and  O_20
REMARK    3  A    between atoms: C_8  and  O_22
REMARK    4  A    between atoms: C_9  and  O_24
REMARK    5  A    between atoms: C_10  and  O_26
REMARK    6  A    between atoms: C_17  and  O_18
REMARK                            x       y       z     vdW  Elec       q    Type
REMARK                         _______ _______ _______ _____ _____    ______ ____
ROOT
ATOM      1  O   UNL     1      48.517 -39.880  50.048  0.00  0.00    +0.000 OA
ATOM      2  O   UNL     1      50.556 -39.709  46.551  0.00  0.00    +0.000 OA
ATOM      3  C   UNL     1      49.270 -41.003  48.038  0.00  0.00    +0.000 A 
ATOM      4  C   UNL     1      48.595 -40.999  49.258  0.00  0.00    +0.000 A 
ATOM      5  C   UNL     1      49.177 -38.717  49.663  0.00  0.00    +0.000 A 
ATOM      6  C   UNL     1      47.951 -42.165  49.694  0.00  0.00    +0.000 A 
ATOM      7  C   UNL     1      49.946 -39.775  47.615  0.00  0.00    +0.000 A 
ATOM      8  C   UNL     1      49.866 -38.601  48.513  0.00  0.00    +0.000 A 
ATOM      9  C   UNL     1      49.287 -42.154  47.242  0.00  0.00    +0.000 A 
ATOM     10  C   UNL     1      47.939 -43.298  48.873  0.00  0.00    +0.000 A 
ATOM     11  C   UNL     1      48.615 -43.299  47.656  0.00  0.00    +0.000 A 
ENDROOT
BRANCH   5  12
ATOM     12  C   UNL     1      49.023 -37.620  50.641  0.00  0.00    +0.000 A 
ATOM     13  C   UNL     1      47.931 -36.750  50.540  0.00  0.00    +0.000 A 
ATOM     14  C   UNL     1      49.901 -37.458  51.717  0.00  0.00    +0.000 A 
ATOM     15  C   UNL     1      47.732 -35.732  51.469  0.00  0.00    +0.000 A 
ATOM     16  C   UNL     1      49.715 -36.442  52.653  0.00  0.00    +0.000 A 
ATOM     17  C   UNL     1      48.629 -35.586  52.521  0.00  0.00    +0.000 A 
BRANCH  17  18
ATOM     18  O   UNL     1      48.463 -34.599  53.448  0.00  0.00    +0.000 OA
ATOM     19  H   UNL     1      49.279 -34.538  53.976  0.00  0.00    +0.000 HD
ENDBRANCH  17  18
ENDBRANCH   5  12
BRANCH   6  20
ATOM     20  O   UNL     1      47.249 -42.193  50.875  0.00  0.00    +0.000 OA
ATOM     21  C   UNL     1      48.074 -42.585  51.947  0.00  0.00    +0.000 C 
ENDBRANCH   6  20
BRANCH   8  22
ATOM     22  O   UNL     1      50.496 -37.446  48.092  0.00  0.00    +0.000 OA
ATOM     23  H   UNL     1      51.389 -37.723  47.795  0.00  0.00    +0.000 HD
ENDBRANCH   8  22
BRANCH   9  24
ATOM     24  O   UNL     1      49.928 -42.222  46.036  0.00  0.00    +0.000 OA
ATOM     25  H   UNL     1      49.272 -42.446  45.338  0.00  0.00    +0.000 HD
ENDBRANCH   9  24
BRANCH  10  26
ATOM     26  O   UNL     1      47.245 -44.411  49.258  0.00  0.00    +0.000 OA
ATOM     27  H   UNL     1      47.236 -45.044  48.517  0.00  0.00    +0.000 HD
ENDBRANCH  10  26
TORSDOF 6
ENDMDL
MODEL 2
REMARK VINA RESULT:      -7.2      2.448      4.840
REMARK  Name = 5281698_sexangularetin.pdbqt.pdb
REMARK  6 active torsions:
REMARK  status: ('A' for Active; 'I' for Inactive)
REMARK    1  A    between atoms: C_5  and  C_12
REMARK    2  A    between atoms: C_6  and  O_20
REMARK    3  A    between atoms: C_8  and  O_22
REMARK    4  A    between atoms: C_9  and  O_24
REMARK    5  A    between atoms: C_10  and  O_26
REMARK    6  A    between atoms: C_17  and  O_18
REMARK                            x       y       z     vdW  Elec       q    Type
REMARK                         _______ _______ _______ _____ _____    ______ ____
ROOT
ATOM      1  O   UNL     1      48.882 -36.785  48.310  0.00  0.00    +0.000 OA
ATOM      2  O   UNL     1      50.085 -40.622  47.819  0.00  0.00    +0.000 OA
ATOM      3  C   UNL     1      49.584 -38.554  46.812  0.00  0.00    +0.000 A 
ATOM      4  C   UNL     1      49.154 -37.249  47.048  0.00  0.00    +0.000 A 
ATOM      5  C   UNL     1      48.975 -37.646  49.397  0.00  0.00    +0.000 A 
ATOM      6  C   UNL     1      49.012 -36.364  45.970  0.00  0.00    +0.000 A 
ATOM      7  C   UNL     1      49.709 -39.460  47.956  0.00  0.00    +0.000 A 
ATOM      8  C   UNL     1      49.372 -38.929  49.295  0.00  0.00    +0.000 A 
ATOM      9  C   UNL     1      49.894 -38.974  45.514  0.00  0.00    +0.000 A 
ATOM     10  C   UNL     1      49.363 -36.781  44.681  0.00  0.00    +0.000 A 
ATOM     11  C   UNL     1      49.791 -38.085  44.449  0.00  0.00    +0.000 A 
ENDROOT
BRANCH   5  12
ATOM     12  C   UNL     1      48.612 -37.000  50.675  0.00  0.00    +0.000 A 
ATOM     13  C   UNL     1      49.559 -36.919  51.703  0.00  0.00    +0.000 A 
ATOM     14  C   UNL     1      47.366 -36.398  50.874  0.00  0.00    +0.000 A 
ATOM     15  C   UNL     1      49.265 -36.279  52.905  0.00  0.00    +0.000 A 
ATOM     16  C   UNL     1      47.058 -35.756  52.072  0.00  0.00    +0.000 A 
ATOM     17  C   UNL     1      48.013 -35.701  53.079  0.00  0.00    +0.000 A 
BRANCH  17  18
ATOM     18  O   UNL     1      47.694 -35.067  54.244  0.00  0.00    +0.000 OA
ATOM     19  H   UNL     1      48.513 -34.706  54.627  0.00  0.00    +0.000 HD
ENDBRANCH  17  18
ENDBRANCH   5  12
BRANCH   6  20
ATOM     20  O   UNL     1      48.621 -35.061  46.163  0.00  0.00    +0.000 OA
ATOM     21  C   UNL     1      49.734 -34.223  46.370  0.00  0.00    +0.000 C 
ENDBRANCH   6  20
BRANCH   8  22
ATOM     22  O   UNL     1      49.510 -39.792  50.365  0.00  0.00    +0.000 OA
ATOM     23  H   UNL     1      50.161 -39.371  50.964  0.00  0.00    +0.000 HD
ENDBRANCH   8  22
BRANCH   9  24
ATOM     24  O   UNL     1      50.322 -40.239  45.217  0.00  0.00    +0.000 OA
ATOM     25  H   UNL     1      51.193 -40.182  44.763  0.00  0.00    +0.000 HD
ENDBRANCH   9  24
BRANCH  10  26
ATOM     26  O   UNL     1      49.302 -35.898  43.640  0.00  0.00    +0.000 OA
ATOM     27  H   UNL     1      48.379 -35.843  43.331  0.00  0.00    +0.000 HD
ENDBRANCH  10  26
TORSDOF 6
ENDMDL
MODEL 3
REMARK VINA RESULT:      -7.1      1.660      3.987
REMARK  Name = 5281698_sexangularetin.pdbqt.pdb
REMARK  6 active torsions:
REMARK  status: ('A' for Active; 'I' for Inactive)
REMARK    1  A    between atoms: C_5  and  C_12
REMARK    2  A    between atoms: C_6  and  O_20
REMARK    3  A    between atoms: C_8  and  O_22
REMARK    4  A    between atoms: C_9  and  O_24
REMARK    5  A    between atoms: C_10  and  O_26
REMARK    6  A    between atoms: C_17  and  O_18
REMARK                            x       y       z     vdW  Elec       q    Type
REMARK                         _______ _______ _______ _____ _____    ______ ____
ROOT
ATOM      1  O   UNL     1      49.144 -38.084  48.679  0.00  0.00    +0.000 OA
ATOM      2  O   UNL     1      49.184 -42.102  49.196  0.00  0.00    +0.000 OA
ATOM      3  C   UNL     1      49.384 -40.290  47.708  0.00  0.00    +0.000 A 
ATOM      4  C   UNL     1      49.347 -38.901  47.595  0.00  0.00    +0.000 A 
ATOM      5  C   UNL     1      48.907 -38.644  49.930  0.00  0.00    +0.000 A 
ATOM      6  C   UNL     1      49.543 -38.304  46.342  0.00  0.00    +0.000 A 
ATOM      7  C   UNL     1      49.161 -40.885  49.026  0.00  0.00    +0.000 A 
ATOM      8  C   UNL     1      48.912 -39.970  50.162  0.00  0.00    +0.000 A 
ATOM      9  C   UNL     1      49.639 -41.085  46.584  0.00  0.00    +0.000 A 
ATOM     10  C   UNL     1      49.837 -39.105  45.232  0.00  0.00    +0.000 A 
ATOM     11  C   UNL     1      49.873 -40.492  45.348  0.00  0.00    +0.000 A 
ENDROOT
BRANCH   5  12
ATOM     12  C   UNL     1      48.672 -37.629  50.977  0.00  0.00    +0.000 A 
ATOM     13  C   UNL     1      49.734 -37.212  51.790  0.00  0.00    +0.000 A 
ATOM     14  C   UNL     1      47.429 -37.012  51.146  0.00  0.00    +0.000 A 
ATOM     15  C   UNL     1      49.557 -36.227  52.758  0.00  0.00    +0.000 A 
ATOM     16  C   UNL     1      47.237 -36.026  52.112  0.00  0.00    +0.000 A 
ATOM     17  C   UNL     1      48.306 -35.641  52.912  0.00  0.00    +0.000 A 
BRANCH  17  18
ATOM     18  O   UNL     1      48.099 -34.673  53.851  0.00  0.00    +0.000 OA
ATOM     19  H   UNL     1      48.133 -35.091  54.729  0.00  0.00    +0.000 HD
ENDBRANCH  17  18
ENDBRANCH   5  12
BRANCH   6  20
ATOM     20  O   UNL     1      49.545 -36.938  46.194  0.00  0.00    +0.000 OA
ATOM     21  C   UNL     1      48.260 -36.461  45.872  0.00  0.00    +0.000 C 
ENDBRANCH   6  20
BRANCH   8  22
ATOM     22  O   UNL     1      48.718 -40.547  51.402  0.00  0.00    +0.000 OA
ATOM     23  H   UNL     1      49.230 -41.384  51.388  0.00  0.00    +0.000 HD
ENDBRANCH   8  22
BRANCH   9  24
ATOM     24  O   UNL     1      49.691 -42.451  46.628  0.00  0.00    +0.000 OA
ATOM     25  H   UNL     1      50.379 -42.723  47.277  0.00  0.00    +0.000 HD
ENDBRANCH   9  24
BRANCH  10  26
ATOM     26  O   UNL     1      50.108 -38.523  44.026  0.00  0.00    +0.000 OA
ATOM     27  H   UNL     1      49.615 -37.684  43.967  0.00  0.00    +0.000 HD
ENDBRANCH  10  26
TORSDOF 6
ENDMDL
MODEL 4
REMARK VINA RESULT:      -6.8      2.714      4.632
REMARK  Name = 5281698_sexangularetin.pdbqt.pdb
REMARK  6 active torsions:
REMARK  status: ('A' for Active; 'I' for Inactive)
REMARK    1  A    between atoms: C_5  and  C_12
REMARK    2  A    between atoms: C_6  and  O_20
REMARK    3  A    between atoms: C_8  and  O_22
REMARK    4  A    between atoms: C_9  and  O_24
REMARK    5  A    between atoms: C_10  and  O_26
REMARK    6  A    between atoms: C_17  and  O_18
REMARK                            x       y       z     vdW  Elec       q    Type
REMARK                         _______ _______ _______ _____ _____    ______ ____
ROOT
ATOM      1  O   UNL     1      49.400 -41.911  48.924  0.00  0.00    +0.000 OA
ATOM      2  O   UNL     1      46.854 -41.989  52.075  0.00  0.00    +0.000 OA
ATOM      3  C   UNL     1      48.290 -43.195  50.652  0.00  0.00    +0.000 A 
ATOM      4  C   UNL     1      49.146 -43.102  49.556  0.00  0.00    +0.000 A 
ATOM      5  C   UNL     1      48.747 -40.757  49.340  0.00  0.00    +0.000 A 
ATOM      6  C   UNL     1      49.792 -44.254  49.085  0.00  0.00    +0.000 A 
ATOM      7  C   UNL     1      47.618 -41.978  51.112  0.00  0.00    +0.000 A 
ATOM      8  C   UNL     1      47.894 -40.722  50.382  0.00  0.00    +0.000 A 
ATOM      9  C   UNL     1      48.093 -44.422  51.295  0.00  0.00    +0.000 A 
ATOM     10  C   UNL     1      49.620 -45.469  49.759  0.00  0.00    +0.000 A 
ATOM     11  C   UNL     1      48.764 -45.558  50.853  0.00  0.00    +0.000 A 
ENDROOT
BRANCH   5  12
ATOM     12  C   UNL     1      49.104 -39.572  48.533  0.00  0.00    +0.000 A 
ATOM     13  C   UNL     1      48.657 -39.476  47.209  0.00  0.00    +0.000 A 
ATOM     14  C   UNL     1      49.823 -38.499  49.068  0.00  0.00    +0.000 A 
ATOM     15  C   UNL     1      48.939 -38.353  46.434  0.00  0.00    +0.000 A 
ATOM     16  C   UNL     1      50.113 -37.371  48.303  0.00  0.00    +0.000 A 
ATOM     17  C   UNL     1      49.667 -37.308  46.989  0.00  0.00    +0.000 A 
BRANCH  17  18
ATOM     18  O   UNL     1      49.960 -36.195  46.256  0.00  0.00    +0.000 OA
ATOM     19  H   UNL     1      49.123 -35.754  46.027  0.00  0.00    +0.000 HD
ENDBRANCH  17  18
ENDBRANCH   5  12
BRANCH   6  20
ATOM     20  O   UNL     1      50.666 -44.200  48.027  0.00  0.00    +0.000 OA
ATOM     21  C   UNL     1      49.996 -44.397  46.804  0.00  0.00    +0.000 C 
ENDBRANCH   6  20
BRANCH   8  22
ATOM     22  O   UNL     1      47.264 -39.580  50.838  0.00  0.00    +0.000 OA
ATOM     23  H   UNL     1      47.540 -38.863  50.229  0.00  0.00    +0.000 HD
ENDBRANCH   8  22
BRANCH   9  24
ATOM     24  O   UNL     1      47.270 -44.579  52.376  0.00  0.00    +0.000 OA
ATOM     25  H   UNL     1      46.430 -44.095  52.210  0.00  0.00    +0.000 HD
ENDBRANCH   9  24
BRANCH  10  26
ATOM     26  O   UNL     1      50.310 -46.576  49.352  0.00  0.00    +0.000 OA
ATOM     27  H   UNL     1      50.402 -46.547  48.382  0.00  0.00    +0.000 HD
ENDBRANCH  10  26
TORSDOF 6
ENDMDL
MODEL 5
REMARK VINA RESULT:      -6.7      2.521      6.590
REMARK  Name = 5281698_sexangularetin.pdbqt.pdb
REMARK  6 active torsions:
REMARK  status: ('A' for Active; 'I' for Inactive)
REMARK    1  A    between atoms: C_5  and  C_12
REMARK    2  A    between atoms: C_6  and  O_20
REMARK    3  A    between atoms: C_8  and  O_22
REMARK    4  A    between atoms: C_9  and  O_24
REMARK    5  A    between atoms: C_10  and  O_26
REMARK    6  A    between atoms: C_17  and  O_18
REMARK                            x       y       z     vdW  Elec       q    Type
REMARK                         _______ _______ _______ _____ _____    ______ ____
ROOT
ATOM      1  O   UNL     1      48.978 -42.406  49.215  0.00  0.00    +0.000 OA
ATOM      2  O   UNL     1      47.858 -39.112  51.290  0.00  0.00    +0.000 OA
ATOM      3  C   UNL     1      48.786 -39.993  49.315  0.00  0.00    +0.000 A 
ATOM      4  C   UNL     1      49.161 -41.165  48.659  0.00  0.00    +0.000 A 
ATOM      5  C   UNL     1      48.457 -42.516  50.499  0.00  0.00    +0.000 A 
ATOM      6  C   UNL     1      49.725 -41.088  47.378  0.00  0.00    +0.000 A 
ATOM      7  C   UNL     1      48.212 -40.104  50.658  0.00  0.00    +0.000 A 
ATOM      8  C   UNL     1      48.065 -41.458  51.234  0.00  0.00    +0.000 A 
ATOM      9  C   UNL     1      48.948 -38.751  48.693  0.00  0.00    +0.000 A 
ATOM     10  C   UNL     1      49.847 -39.845  46.748  0.00  0.00    +0.000 A 
ATOM     11  C   UNL     1      49.472 -38.676  47.406  0.00  0.00    +0.000 A 
ENDROOT
BRANCH   5  12
ATOM     12  C   UNL     1      48.361 -43.916  50.962  0.00  0.00    +0.000 A 
ATOM     13  C   UNL     1      48.955 -44.937  50.209  0.00  0.00    +0.000 A 
ATOM     14  C   UNL     1      47.750 -44.257  52.172  0.00  0.00    +0.000 A 
ATOM     15  C   UNL     1      48.921 -46.262  50.638  0.00  0.00    +0.000 A 
ATOM     16  C   UNL     1      47.706 -45.579  52.612  0.00  0.00    +0.000 A 
ATOM     17  C   UNL     1      48.294 -46.572  51.839  0.00  0.00    +0.000 A 
BRANCH  17  18
ATOM     18  O   UNL     1      48.243 -47.860  52.287  0.00  0.00    +0.000 OA
ATOM     19  H   UNL     1      47.507 -47.932  52.920  0.00  0.00    +0.000 HD
ENDBRANCH  17  18
ENDBRANCH   5  12
BRANCH   6  20
ATOM     20  O   UNL     1      50.080 -42.221  46.685  0.00  0.00    +0.000 OA
ATOM     21  C   UNL     1      48.994 -42.718  45.938  0.00  0.00    +0.000 C 
ENDBRANCH   6  20
BRANCH   8  22
ATOM     22  O   UNL     1      47.508 -41.546  52.496  0.00  0.00    +0.000 OA
ATOM     23  H   UNL     1      46.986 -40.724  52.613  0.00  0.00    +0.000 HD
ENDBRANCH   8  22
BRANCH   9  24
ATOM     24  O   UNL     1      48.599 -37.566  49.281  0.00  0.00    +0.000 OA
ATOM     25  H   UNL     1      48.815 -37.610  50.240  0.00  0.00    +0.000 HD
ENDBRANCH   9  24
BRANCH  10  26
ATOM     26  O   UNL     1      50.322 -39.773  45.469  0.00  0.00    +0.000 OA
ATOM     27  H   UNL     1      50.342 -38.837  45.196  0.00  0.00    +0.000 HD
ENDBRANCH  10  26
TORSDOF 6
ENDMDL
MODEL 6
REMARK VINA RESULT:      -6.7      3.271      4.527
REMARK  Name = 5281698_sexangularetin.pdbqt.pdb
REMARK  6 active torsions:
REMARK  status: ('A' for Active; 'I' for Inactive)
REMARK    1  A    between atoms: C_5  and  C_12
REMARK    2  A    between atoms: C_6  and  O_20
REMARK    3  A    between atoms: C_8  and  O_22
REMARK    4  A    between atoms: C_9  and  O_24
REMARK    5  A    between atoms: C_10  and  O_26
REMARK    6  A    between atoms: C_17  and  O_18
REMARK                            x       y       z     vdW  Elec       q    Type
REMARK                         _______ _______ _______ _____ _____    ______ ____
ROOT
ATOM      1  O   UNL     1      49.004 -37.351  47.941  0.00  0.00    +0.000 OA
ATOM      2  O   UNL     1      50.241 -40.387  45.560  0.00  0.00    +0.000 OA
ATOM      3  C   UNL     1      49.454 -39.717  47.675  0.00  0.00    +0.000 A 
ATOM      4  C   UNL     1      49.049 -38.627  48.445  0.00  0.00    +0.000 A 
ATOM      5  C   UNL     1      49.426 -37.109  46.639  0.00  0.00    +0.000 A 
ATOM      6  C   UNL     1      48.654 -38.830  49.774  0.00  0.00    +0.000 A 
ATOM      7  C   UNL     1      49.876 -39.472  46.295  0.00  0.00    +0.000 A 
ATOM      8  C   UNL     1      49.844 -38.077  45.802  0.00  0.00    +0.000 A 
ATOM      9  C   UNL     1      49.443 -41.008  48.214  0.00  0.00    +0.000 A 
ATOM     10  C   UNL     1      48.608 -40.130  50.292  0.00  0.00    +0.000 A 
ATOM     11  C   UNL     1      49.012 -41.215  49.521  0.00  0.00    +0.000 A 
ENDROOT
BRANCH   5  12
ATOM     12  C   UNL     1      49.349 -35.681  46.267  0.00  0.00    +0.000 A 
ATOM     13  C   UNL     1      48.315 -35.238  45.434  0.00  0.00    +0.000 A 
ATOM     14  C   UNL     1      50.240 -34.732  46.777  0.00  0.00    +0.000 A 
ATOM     15  C   UNL     1      48.186 -33.892  45.098  0.00  0.00    +0.000 A 
ATOM     16  C   UNL     1      50.124 -33.383  46.447  0.00  0.00    +0.000 A 
ATOM     17  C   UNL     1      49.095 -32.974  45.609  0.00  0.00    +0.000 A 
BRANCH  17  18
ATOM     18  O   UNL     1      48.997 -31.648  45.299  0.00  0.00    +0.000 OA
ATOM     19  H   UNL     1      48.349 -31.243  45.902  0.00  0.00    +0.000 HD
ENDBRANCH  17  18
ENDBRANCH   5  12
BRANCH   6  20
ATOM     20  O   UNL     1      48.219 -37.788  50.557  0.00  0.00    +0.000 OA
ATOM     21  C   UNL     1      49.279 -37.237  51.303  0.00  0.00    +0.000 C 
ENDBRANCH   6  20
BRANCH   8  22
ATOM     22  O   UNL     1      50.232 -37.865  44.493  0.00  0.00    +0.000 OA
ATOM     23  H   UNL     1      51.128 -37.471  44.541  0.00  0.00    +0.000 HD
ENDBRANCH   8  22
BRANCH   9  24
ATOM     24  O   UNL     1      49.825 -42.117  47.512  0.00  0.00    +0.000 OA
ATOM     25  H   UNL     1      49.858 -42.887  48.124  0.00  0.00    +0.000 HD
ENDBRANCH   9  24
BRANCH  10  26
ATOM     26  O   UNL     1      48.146 -40.341  51.561  0.00  0.00    +0.000 OA
ATOM     27  H   UNL     1      48.881 -40.203  52.187  0.00  0.00    +0.000 HD
ENDBRANCH  10  26
TORSDOF 6
ENDMDL
MODEL 7
REMARK VINA RESULT:      -6.7      3.734      8.280
REMARK  Name = 5281698_sexangularetin.pdbqt.pdb
REMARK  6 active torsions:
REMARK  status: ('A' for Active; 'I' for Inactive)
REMARK    1  A    between atoms: C_5  and  C_12
REMARK    2  A    between atoms: C_6  and  O_20
REMARK    3  A    between atoms: C_8  and  O_22
REMARK    4  A    between atoms: C_9  and  O_24
REMARK    5  A    between atoms: C_10  and  O_26
REMARK    6  A    between atoms: C_17  and  O_18
REMARK                            x       y       z     vdW  Elec       q    Type
REMARK                         _______ _______ _______ _____ _____    ______ ____
ROOT
ATOM      1  O   UNL     1      49.047 -45.131  49.807  0.00  0.00    +0.000 OA
ATOM      2  O   UNL     1      47.671 -42.363  52.425  0.00  0.00    +0.000 OA
ATOM      3  C   UNL     1      48.585 -42.806  50.302  0.00  0.00    +0.000 A 
ATOM      4  C   UNL     1      49.055 -43.806  49.453  0.00  0.00    +0.000 A 
ATOM      5  C   UNL     1      48.613 -45.503  51.075  0.00  0.00    +0.000 A 
ATOM      6  C   UNL     1      49.537 -43.462  48.182  0.00  0.00    +0.000 A 
ATOM      7  C   UNL     1      48.102 -43.193  51.629  0.00  0.00    +0.000 A 
ATOM      8  C   UNL     1      48.143 -44.629  51.984  0.00  0.00    +0.000 A 
ATOM      9  C   UNL     1      48.570 -41.470  49.883  0.00  0.00    +0.000 A 
ATOM     10  C   UNL     1      49.481 -42.130  47.757  0.00  0.00    +0.000 A 
ATOM     11  C   UNL     1      49.010 -41.133  48.608  0.00  0.00    +0.000 A 
ENDROOT
BRANCH   5  12
ATOM     12  C   UNL     1      48.703 -46.959  51.308  0.00  0.00    +0.000 A 
ATOM     13  C   UNL     1      47.534 -47.728  51.348  0.00  0.00    +0.000 A 
ATOM     14  C   UNL     1      49.931 -47.617  51.425  0.00  0.00    +0.000 A 
ATOM     15  C   UNL     1      47.585 -49.109  51.523  0.00  0.00    +0.000 A 
ATOM     16  C   UNL     1      49.997 -48.998  51.603  0.00  0.00    +0.000 A 
ATOM     17  C   UNL     1      48.820 -49.734  51.650  0.00  0.00    +0.000 A 
BRANCH  17  18
ATOM     18  O   UNL     1      48.904 -51.084  51.822  0.00  0.00    +0.000 OA
ATOM     19  H   UNL     1      48.800 -51.276  52.771  0.00  0.00    +0.000 HD
ENDBRANCH  17  18
ENDBRANCH   5  12
BRANCH   6  20
ATOM     20  O   UNL     1      49.980 -44.421  47.303  0.00  0.00    +0.000 OA
ATOM     21  C   UNL     1      51.331 -44.742  47.542  0.00  0.00    +0.000 C 
ENDBRANCH   6  20
BRANCH   8  22
ATOM     22  O   UNL     1      47.669 -44.979  53.234  0.00  0.00    +0.000 OA
ATOM     23  H   UNL     1      46.734 -44.685  53.256  0.00  0.00    +0.000 HD
ENDBRANCH   8  22
BRANCH   9  24
ATOM     24  O   UNL     1      48.119 -40.444  50.667  0.00  0.00    +0.000 OA
ATOM     25  H   UNL     1      48.740 -40.322  51.421  0.00  0.00    +0.000 HD
ENDBRANCH   9  24
BRANCH  10  26
ATOM     26  O   UNL     1      49.874 -41.802  46.490  0.00  0.00    +0.000 OA
ATOM     27  H   UNL     1      50.828 -41.985  46.403  0.00  0.00    +0.000 HD
ENDBRANCH  10  26
TORSDOF 6
ENDMDL
MODEL 8
REMARK VINA RESULT:      -6.5      2.959      5.413
REMARK  Name = 5281698_sexangularetin.pdbqt.pdb
REMARK  6 active torsions:
REMARK  status: ('A' for Active; 'I' for Inactive)
REMARK    1  A    between atoms: C_5  and  C_12
REMARK    2  A    between atoms: C_6  and  O_20
REMARK    3  A    between atoms: C_8  and  O_22
REMARK    4  A    between atoms: C_9  and  O_24
REMARK    5  A    between atoms: C_10  and  O_26
REMARK    6  A    between atoms: C_17  and  O_18
REMARK                            x       y       z     vdW  Elec       q    Type
REMARK                         _______ _______ _______ _____ _____    ______ ____
ROOT
ATOM      1  O   UNL     1      48.153 -40.518  47.839  0.00  0.00    +0.000 OA
ATOM      2  O   UNL     1      50.741 -37.421  48.196  0.00  0.00    +0.000 OA
ATOM      3  C   UNL     1      49.118 -38.512  46.885  0.00  0.00    +0.000 A 
ATOM      4  C   UNL     1      48.257 -39.606  46.820  0.00  0.00    +0.000 A 
ATOM      5  C   UNL     1      48.969 -40.397  48.959  0.00  0.00    +0.000 A 
ATOM      6  C   UNL     1      47.448 -39.780  45.688  0.00  0.00    +0.000 A 
ATOM      7  C   UNL     1      49.962 -38.364  48.073  0.00  0.00    +0.000 A 
ATOM      8  C   UNL     1      49.844 -39.389  49.133  0.00  0.00    +0.000 A 
ATOM      9  C   UNL     1      49.160 -37.580  45.842  0.00  0.00    +0.000 A 
ATOM     10  C   UNL     1      47.467 -38.822  44.668  0.00  0.00    +0.000 A 
ATOM     11  C   UNL     1      48.328 -37.731  44.737  0.00  0.00    +0.000 A 
ENDROOT
BRANCH   5  12
ATOM     12  C   UNL     1      48.759 -41.479  49.942  0.00  0.00    +0.000 A 
ATOM     13  C   UNL     1      48.064 -41.212  51.128  0.00  0.00    +0.000 A 
ATOM     14  C   UNL     1      49.173 -42.792  49.700  0.00  0.00    +0.000 A 
ATOM     15  C   UNL     1      47.810 -42.218  52.057  0.00  0.00    +0.000 A 
ATOM     16  C   UNL     1      48.928 -43.808  50.622  0.00  0.00    +0.000 A 
ATOM     17  C   UNL     1      48.247 -43.511  51.796  0.00  0.00    +0.000 A 
BRANCH  17  18
ATOM     18  O   UNL     1      48.014 -44.520  52.685  0.00  0.00    +0.000 OA
ATOM     19  H   UNL     1      47.190 -44.968  52.427  0.00  0.00    +0.000 HD
ENDBRANCH  17  18
ENDBRANCH   5  12
BRANCH   6  20
ATOM     20  O   UNL     1      46.563 -40.828  45.598  0.00  0.00    +0.000 OA
ATOM     21  C   UNL     1      47.161 -41.946  44.985  0.00  0.00    +0.000 C 
ENDBRANCH   6  20
BRANCH   8  22
ATOM     22  O   UNL     1      50.636 -39.226  50.253  0.00  0.00    +0.000 OA
ATOM     23  H   UNL     1      50.952 -40.124  50.488  0.00  0.00    +0.000 HD
ENDBRANCH   8  22
BRANCH   9  24
ATOM     24  O   UNL     1      49.980 -36.485  45.847  0.00  0.00    +0.000 OA
ATOM     25  H   UNL     1      50.911 -36.784  45.734  0.00  0.00    +0.000 HD
ENDBRANCH   9  24
BRANCH  10  26
ATOM     26  O   UNL     1      46.622 -38.946  43.602  0.00  0.00    +0.000 OA
ATOM     27  H   UNL     1      46.687 -39.856  43.256  0.00  0.00    +0.000 HD
ENDBRANCH  10  26
TORSDOF 6
ENDMDL
MODEL 9
REMARK VINA RESULT:      -6.3      3.123      7.968
REMARK  Name = 5281698_sexangularetin.pdbqt.pdb
REMARK  6 active torsions:
REMARK  status: ('A' for Active; 'I' for Inactive)
REMARK    1  A    between atoms: C_5  and  C_12
REMARK    2  A    between atoms: C_6  and  O_20
REMARK    3  A    between atoms: C_8  and  O_22
REMARK    4  A    between atoms: C_9  and  O_24
REMARK    5  A    between atoms: C_10  and  O_26
REMARK    6  A    between atoms: C_17  and  O_18
REMARK                            x       y       z     vdW  Elec       q    Type
REMARK                         _______ _______ _______ _____ _____    ______ ____
ROOT
ATOM      1  O   UNL     1      49.981 -43.310  48.533  0.00  0.00    +0.000 OA
ATOM      2  O   UNL     1      47.765 -44.227  51.799  0.00  0.00    +0.000 OA
ATOM      3  C   UNL     1      48.452 -42.579  50.264  0.00  0.00    +0.000 A 
ATOM      4  C   UNL     1      49.244 -42.327  49.145  0.00  0.00    +0.000 A 
ATOM      5  C   UNL     1      49.996 -44.593  49.067  0.00  0.00    +0.000 A 
ATOM      6  C   UNL     1      49.282 -41.034  48.604  0.00  0.00    +0.000 A 
ATOM      7  C   UNL     1      48.443 -43.935  50.816  0.00  0.00    +0.000 A 
ATOM      8  C   UNL     1      49.279 -44.957  50.147  0.00  0.00    +0.000 A 
ATOM      9  C   UNL     1      47.681 -41.558  50.831  0.00  0.00    +0.000 A 
ATOM     10  C   UNL     1      48.477 -40.030  49.153  0.00  0.00    +0.000 A 
ATOM     11  C   UNL     1      47.687 -40.285  50.270  0.00  0.00    +0.000 A 
ENDROOT
BRANCH   5  12
ATOM     12  C   UNL     1      50.866 -45.518  48.312  0.00  0.00    +0.000 A 
ATOM     13  C   UNL     1      50.402 -46.088  47.119  0.00  0.00    +0.000 A 
ATOM     14  C   UNL     1      52.176 -45.798  48.712  0.00  0.00    +0.000 A 
ATOM     15  C   UNL     1      51.212 -46.930  46.360  0.00  0.00    +0.000 A 
ATOM     16  C   UNL     1      52.996 -46.641  47.964  0.00  0.00    +0.000 A 
ATOM     17  C   UNL     1      52.505 -47.200  46.791  0.00  0.00    +0.000 A 
BRANCH  17  18
ATOM     18  O   UNL     1      53.323 -48.021  46.070  0.00  0.00    +0.000 OA
ATOM     19  H   UNL     1      54.153 -47.544  45.896  0.00  0.00    +0.000 HD
ENDBRANCH  17  18
ENDBRANCH   5  12
BRANCH   6  20
ATOM     20  O   UNL     1      50.026 -40.752  47.484  0.00  0.00    +0.000 OA
ATOM     21  C   UNL     1      49.290 -41.005  46.309  0.00  0.00    +0.000 C 
ENDBRANCH   6  20
BRANCH   8  22
ATOM     22  O   UNL     1      49.248 -46.234  50.672  0.00  0.00    +0.000 OA
ATOM     23  H   UNL     1      48.430 -46.280  51.210  0.00  0.00    +0.000 HD
ENDBRANCH   8  22
BRANCH   9  24
ATOM     24  O   UNL     1      46.882 -41.741  51.926  0.00  0.00    +0.000 OA
ATOM     25  H   UNL     1      45.954 -41.518  51.685  0.00  0.00    +0.000 HD
ENDBRANCH   9  24
BRANCH  10  26
ATOM     26  O   UNL     1      48.450 -38.790  48.579  0.00  0.00    +0.000 OA
ATOM     27  H   UNL     1      48.124 -38.149  49.238  0.00  0.00    +0.000 HD
ENDBRANCH  10  26
TORSDOF 6
ENDMDL
