MODEL 1
REMARK VINA RESULT:      -5.8      0.000      0.000
REMARK  Name = 5281416_Esculetin.pdbqt.pdb
REMARK  2 active torsions:
REMARK  status: ('A' for Active; 'I' for Inactive)
REMARK    1  A    between atoms: C_7  and  O_12
REMARK    2  A    between atoms: C_8  and  O_14
REMARK                            x       y       z     vdW  Elec       q    Type
REMARK                         _______ _______ _______ _____ _____    ______ ____
ROOT
ATOM      1  O   UNL     1      47.511 -40.821  51.303  0.00  0.00    +0.000 OA
ATOM      2  O   UNL     1      46.932 -43.044  51.783  0.00  0.00    +0.000 OA
ATOM      3  C   UNL     1      49.201 -40.484  49.501  0.00  0.00    +0.000 A 
ATOM      4  C   UNL     1      48.323 -39.948  50.483  0.00  0.00    +0.000 A 
ATOM      5  C   UNL     1      49.982 -39.654  48.712  0.00  0.00    +0.000 A 
ATOM      6  C   UNL     1      48.216 -38.580  50.689  0.00  0.00    +0.000 A 
ATOM      7  C   UNL     1      49.871 -38.282  48.921  0.00  0.00    +0.000 A 
ATOM      8  C   UNL     1      49.004 -37.757  49.891  0.00  0.00    +0.000 A 
ATOM      9  C   UNL     1      49.188 -41.899  49.424  0.00  0.00    +0.000 A 
ATOM     10  C   UNL     1      48.509 -42.601  50.110  0.00  0.00    +0.000 A 
ATOM     11  C   UNL     1      47.577 -42.232  51.140  0.00  0.00    +0.000 A 
ENDROOT
BRANCH   7  12
ATOM     12  O   UNL     1      50.610 -37.395  48.182  0.00  0.00    +0.000 OA
ATOM     13  H   UNL     1      49.989 -36.800  47.723  0.00  0.00    +0.000 HD
ENDBRANCH   7  12
BRANCH   8  14
ATOM     14  O   UNL     1      48.927 -36.402  50.063  0.00  0.00    +0.000 OA
ATOM     15  H   UNL     1      48.162 -36.117  49.523  0.00  0.00    +0.000 HD
ENDBRANCH   8  14
TORSDOF 2
ENDMDL
MODEL 2
REMARK VINA RESULT:      -5.3      2.316      4.991
REMARK  Name = 5281416_Esculetin.pdbqt.pdb
REMARK  2 active torsions:
REMARK  status: ('A' for Active; 'I' for Inactive)
REMARK    1  A    between atoms: C_7  and  O_12
REMARK    2  A    between atoms: C_8  and  O_14
REMARK                            x       y       z     vdW  Elec       q    Type
REMARK                         _______ _______ _______ _____ _____    ______ ____
ROOT
ATOM      1  O   UNL     1      48.701 -35.748  47.978  0.00  0.00    +0.000 OA
ATOM      2  O   UNL     1      48.853 -35.073  45.736  0.00  0.00    +0.000 OA
ATOM      3  C   UNL     1      49.175 -38.152  48.443  0.00  0.00    +0.000 A 
ATOM      4  C   UNL     1      48.823 -36.853  48.904  0.00  0.00    +0.000 A 
ATOM      5  C   UNL     1      49.293 -39.214  49.324  0.00  0.00    +0.000 A 
ATOM      6  C   UNL     1      48.586 -36.602  50.248  0.00  0.00    +0.000 A 
ATOM      7  C   UNL     1      49.055 -38.959  50.672  0.00  0.00    +0.000 A 
ATOM      8  C   UNL     1      48.707 -37.676  51.123  0.00  0.00    +0.000 A 
ATOM      9  C   UNL     1      49.382 -38.231  47.043  0.00  0.00    +0.000 A 
ATOM     10  C   UNL     1      49.276 -37.307  46.296  0.00  0.00    +0.000 A 
ATOM     11  C   UNL     1      48.932 -35.942  46.588  0.00  0.00    +0.000 A 
ENDROOT
BRANCH   7  12
ATOM     12  O   UNL     1      49.151 -39.957  51.605  0.00  0.00    +0.000 OA
ATOM     13  H   UNL     1      48.747 -40.760  51.228  0.00  0.00    +0.000 HD
ENDBRANCH   7  12
BRANCH   8  14
ATOM     14  O   UNL     1      48.482 -37.470  52.456  0.00  0.00    +0.000 OA
ATOM     15  H   UNL     1      49.320 -37.710  52.900  0.00  0.00    +0.000 HD
ENDBRANCH   8  14
TORSDOF 2
ENDMDL
MODEL 3
REMARK VINA RESULT:      -5.2      2.635      5.355
REMARK  Name = 5281416_Esculetin.pdbqt.pdb
REMARK  2 active torsions:
REMARK  status: ('A' for Active; 'I' for Inactive)
REMARK    1  A    between atoms: C_7  and  O_12
REMARK    2  A    between atoms: C_8  and  O_14
REMARK                            x       y       z     vdW  Elec       q    Type
REMARK                         _______ _______ _______ _____ _____    ______ ____
ROOT
ATOM      1  O   UNL     1      48.777 -38.234  46.048  0.00  0.00    +0.000 OA
ATOM      2  O   UNL     1      48.294 -36.710  44.331  0.00  0.00    +0.000 OA
ATOM      3  C   UNL     1      49.338 -37.253  48.271  0.00  0.00    +0.000 A 
ATOM      4  C   UNL     1      49.145 -38.390  47.439  0.00  0.00    +0.000 A 
ATOM      5  C   UNL     1      49.690 -37.394  49.603  0.00  0.00    +0.000 A 
ATOM      6  C   UNL     1      49.302 -39.679  47.928  0.00  0.00    +0.000 A 
ATOM      7  C   UNL     1      49.846 -38.690  50.091  0.00  0.00    +0.000 A 
ATOM      8  C   UNL     1      49.655 -39.810  49.267  0.00  0.00    +0.000 A 
ATOM      9  C   UNL     1      49.138 -36.014  47.612  0.00  0.00    +0.000 A 
ATOM     10  C   UNL     1      48.835 -35.908  46.463  0.00  0.00    +0.000 A 
ATOM     11  C   UNL     1      48.602 -36.939  45.489  0.00  0.00    +0.000 A 
ENDROOT
BRANCH   7  12
ATOM     12  O   UNL     1      50.193 -38.913  51.397  0.00  0.00    +0.000 OA
ATOM     13  H   UNL     1      50.326 -39.873  51.511  0.00  0.00    +0.000 HD
ENDBRANCH   7  12
BRANCH   8  14
ATOM     14  O   UNL     1      49.819 -41.064  49.787  0.00  0.00    +0.000 OA
ATOM     15  H   UNL     1      50.704 -41.354  49.488  0.00  0.00    +0.000 HD
ENDBRANCH   8  14
TORSDOF 2
ENDMDL
MODEL 4
REMARK VINA RESULT:      -5.1      1.547      5.082
REMARK  Name = 5281416_Esculetin.pdbqt.pdb
REMARK  2 active torsions:
REMARK  status: ('A' for Active; 'I' for Inactive)
REMARK    1  A    between atoms: C_7  and  O_12
REMARK    2  A    between atoms: C_8  and  O_14
REMARK                            x       y       z     vdW  Elec       q    Type
REMARK                         _______ _______ _______ _____ _____    ______ ____
ROOT
ATOM      1  O   UNL     1      49.323 -38.423  47.551  0.00  0.00    +0.000 OA
ATOM      2  O   UNL     1      49.586 -36.317  46.549  0.00  0.00    +0.000 OA
ATOM      3  C   UNL     1      48.600 -38.429  49.937  0.00  0.00    +0.000 A 
ATOM      4  C   UNL     1      48.970 -39.135  48.759  0.00  0.00    +0.000 A 
ATOM      5  C   UNL     1      48.261 -39.104  51.098  0.00  0.00    +0.000 A 
ATOM      6  C   UNL     1      49.006 -40.522  48.729  0.00  0.00    +0.000 A 
ATOM      7  C   UNL     1      48.298 -40.496  51.064  0.00  0.00    +0.000 A 
ATOM      8  C   UNL     1      48.664 -41.190  49.900  0.00  0.00    +0.000 A 
ATOM      9  C   UNL     1      48.616 -37.019  49.794  0.00  0.00    +0.000 A 
ATOM     10  C   UNL     1      48.911 -36.451  48.787  0.00  0.00    +0.000 A 
ATOM     11  C   UNL     1      49.305 -37.001  47.520  0.00  0.00    +0.000 A 
ENDROOT
BRANCH   7  12
ATOM     12  O   UNL     1      47.976 -41.237  52.171  0.00  0.00    +0.000 OA
ATOM     13  H   UNL     1      48.667 -41.915  52.287  0.00  0.00    +0.000 HD
ENDBRANCH   7  12
BRANCH   8  14
ATOM     14  O   UNL     1      48.686 -42.557  49.911  0.00  0.00    +0.000 OA
ATOM     15  H   UNL     1      49.579 -42.798  50.233  0.00  0.00    +0.000 HD
ENDBRANCH   8  14
TORSDOF 2
ENDMDL
MODEL 5
REMARK VINA RESULT:      -5.0      2.935      4.623
REMARK  Name = 5281416_Esculetin.pdbqt.pdb
REMARK  2 active torsions:
REMARK  status: ('A' for Active; 'I' for Inactive)
REMARK    1  A    between atoms: C_7  and  O_12
REMARK    2  A    between atoms: C_8  and  O_14
REMARK                            x       y       z     vdW  Elec       q    Type
REMARK                         _______ _______ _______ _____ _____    ______ ____
ROOT
ATOM      1  O   UNL     1      49.644 -42.752  47.411  0.00  0.00    +0.000 OA
ATOM      2  O   UNL     1      51.103 -44.133  46.197  0.00  0.00    +0.000 OA
ATOM      3  C   UNL     1      49.140 -43.461  49.748  0.00  0.00    +0.000 A 
ATOM      4  C   UNL     1      48.968 -42.545  48.673  0.00  0.00    +0.000 A 
ATOM      5  C   UNL     1      48.496 -43.269  50.959  0.00  0.00    +0.000 A 
ATOM      6  C   UNL     1      48.153 -41.429  48.797  0.00  0.00    +0.000 A 
ATOM      7  C   UNL     1      47.678 -42.148  51.080  0.00  0.00    +0.000 A 
ATOM      8  C   UNL     1      47.511 -41.246  50.017  0.00  0.00    +0.000 A 
ATOM      9  C   UNL     1      50.006 -44.543  49.452  0.00  0.00    +0.000 A 
ATOM     10  C   UNL     1      50.554 -44.695  48.403  0.00  0.00    +0.000 A 
ATOM     11  C   UNL     1      50.494 -43.877  47.223  0.00  0.00    +0.000 A 
ENDROOT
BRANCH   7  12
ATOM     12  O   UNL     1      47.007 -41.888  52.246  0.00  0.00    +0.000 OA
ATOM     13  H   UNL     1      46.240 -42.488  52.289  0.00  0.00    +0.000 HD
ENDBRANCH   7  12
BRANCH   8  14
ATOM     14  O   UNL     1      46.698 -40.159  50.180  0.00  0.00    +0.000 OA
ATOM     15  H   UNL     1      46.567 -39.798  49.280  0.00  0.00    +0.000 HD
ENDBRANCH   8  14
TORSDOF 2
ENDMDL
MODEL 6
REMARK VINA RESULT:      -4.9      2.626      4.100
REMARK  Name = 5281416_Esculetin.pdbqt.pdb
REMARK  2 active torsions:
REMARK  status: ('A' for Active; 'I' for Inactive)
REMARK    1  A    between atoms: C_7  and  O_12
REMARK    2  A    between atoms: C_8  and  O_14
REMARK                            x       y       z     vdW  Elec       q    Type
REMARK                         _______ _______ _______ _____ _____    ______ ____
ROOT
ATOM      1  O   UNL     1      47.656 -44.931  49.687  0.00  0.00    +0.000 OA
ATOM      2  O   UNL     1      47.625 -47.200  50.284  0.00  0.00    +0.000 OA
ATOM      3  C   UNL     1      47.911 -43.300  51.556  0.00  0.00    +0.000 A 
ATOM      4  C   UNL     1      47.760 -43.570  50.168  0.00  0.00    +0.000 A 
ATOM      5  C   UNL     1      48.010 -41.999  52.023  0.00  0.00    +0.000 A 
ATOM      6  C   UNL     1      47.706 -42.547  49.233  0.00  0.00    +0.000 A 
ATOM      7  C   UNL     1      47.956 -40.974  51.082  0.00  0.00    +0.000 A 
ATOM      8  C   UNL     1      47.807 -41.245  49.713  0.00  0.00    +0.000 A 
ATOM      9  C   UNL     1      47.946 -44.459  52.370  0.00  0.00    +0.000 A 
ATOM     10  C   UNL     1      47.859 -45.574  51.953  0.00  0.00    +0.000 A 
ATOM     11  C   UNL     1      47.704 -46.023  50.597  0.00  0.00    +0.000 A 
ENDROOT
BRANCH   7  12
ATOM     12  O   UNL     1      48.048 -39.662  51.464  0.00  0.00    +0.000 OA
ATOM     13  H   UNL     1      48.690 -39.223  50.875  0.00  0.00    +0.000 HD
ENDBRANCH   7  12
BRANCH   8  14
ATOM     14  O   UNL     1      47.759 -40.207  48.823  0.00  0.00    +0.000 OA
ATOM     15  H   UNL     1      46.913 -40.317  48.344  0.00  0.00    +0.000 HD
ENDBRANCH   8  14
TORSDOF 2
ENDMDL
MODEL 7
REMARK VINA RESULT:      -4.9     13.199     15.537
REMARK  Name = 5281416_Esculetin.pdbqt.pdb
REMARK  2 active torsions:
REMARK  status: ('A' for Active; 'I' for Inactive)
REMARK    1  A    between atoms: C_7  and  O_12
REMARK    2  A    between atoms: C_8  and  O_14
REMARK                            x       y       z     vdW  Elec       q    Type
REMARK                         _______ _______ _______ _____ _____    ______ ____
ROOT
ATOM      1  O   UNL     1      47.324 -52.426  56.484  0.00  0.00    +0.000 OA
ATOM      2  O   UNL     1      45.966 -51.150  55.058  0.00  0.00    +0.000 OA
ATOM      3  C   UNL     1      49.157 -53.721  55.397  0.00  0.00    +0.000 A 
ATOM      4  C   UNL     1      48.451 -53.329  56.568  0.00  0.00    +0.000 A 
ATOM      5  C   UNL     1      50.237 -54.585  55.471  0.00  0.00    +0.000 A 
ATOM      6  C   UNL     1      48.815 -53.796  57.823  0.00  0.00    +0.000 A 
ATOM      7  C   UNL     1      50.600 -55.052  56.732  0.00  0.00    +0.000 A 
ATOM      8  C   UNL     1      49.901 -54.663  57.885  0.00  0.00    +0.000 A 
ATOM      9  C   UNL     1      48.653 -53.152  54.202  0.00  0.00    +0.000 A 
ATOM     10  C   UNL     1      47.721 -52.408  54.154  0.00  0.00    +0.000 A 
ATOM     11  C   UNL     1      46.902 -51.914  55.226  0.00  0.00    +0.000 A 
ENDROOT
BRANCH   7  12
ATOM     12  O   UNL     1      51.657 -55.910  56.888  0.00  0.00    +0.000 OA
ATOM     13  H   UNL     1      52.281 -55.751  56.155  0.00  0.00    +0.000 HD
ENDBRANCH   7  12
BRANCH   8  14
ATOM     14  O   UNL     1      50.292 -55.146  59.103  0.00  0.00    +0.000 OA
ATOM     15  H   UNL     1      51.265 -55.044  59.121  0.00  0.00    +0.000 HD
ENDBRANCH   8  14
TORSDOF 2
ENDMDL
MODEL 8
REMARK VINA RESULT:      -4.8     13.482     15.774
REMARK  Name = 5281416_Esculetin.pdbqt.pdb
REMARK  2 active torsions:
REMARK  status: ('A' for Active; 'I' for Inactive)
REMARK    1  A    between atoms: C_7  and  O_12
REMARK    2  A    between atoms: C_8  and  O_14
REMARK                            x       y       z     vdW  Elec       q    Type
REMARK                         _______ _______ _______ _____ _____    ______ ____
ROOT
ATOM      1  O   UNL     1      48.059 -52.867  54.609  0.00  0.00    +0.000 OA
ATOM      2  O   UNL     1      48.825 -52.426  52.435  0.00  0.00    +0.000 OA
ATOM      3  C   UNL     1      49.587 -54.188  56.072  0.00  0.00    +0.000 A 
ATOM      4  C   UNL     1      48.359 -53.498  55.876  0.00  0.00    +0.000 A 
ATOM      5  C   UNL     1      49.881 -54.794  57.282  0.00  0.00    +0.000 A 
ATOM      6  C   UNL     1      47.412 -53.406  56.886  0.00  0.00    +0.000 A 
ATOM      7  C   UNL     1      48.928 -54.700  58.294  0.00  0.00    +0.000 A 
ATOM      8  C   UNL     1      47.717 -54.019  58.097  0.00  0.00    +0.000 A 
ATOM      9  C   UNL     1      50.438 -54.184  54.939  0.00  0.00    +0.000 A 
ATOM     10  C   UNL     1      50.172 -53.657  53.902  0.00  0.00    +0.000 A 
ATOM     11  C   UNL     1      48.990 -52.926  53.536  0.00  0.00    +0.000 A 
ENDROOT
BRANCH   7  12
ATOM     12  O   UNL     1      49.144 -55.273  59.520  0.00  0.00    +0.000 OA
ATOM     13  H   UNL     1      48.475 -54.920  60.136  0.00  0.00    +0.000 HD
ENDBRANCH   7  12
BRANCH   8  14
ATOM     14  O   UNL     1      46.810 -53.951  59.119  0.00  0.00    +0.000 OA
ATOM     15  H   UNL     1      47.116 -53.217  59.688  0.00  0.00    +0.000 HD
ENDBRANCH   8  14
TORSDOF 2
ENDMDL
MODEL 9
REMARK VINA RESULT:      -4.7     23.849     24.048
REMARK  Name = 5281416_Esculetin.pdbqt.pdb
REMARK  2 active torsions:
REMARK  status: ('A' for Active; 'I' for Inactive)
REMARK    1  A    between atoms: C_7  and  O_12
REMARK    2  A    between atoms: C_8  and  O_14
REMARK                            x       y       z     vdW  Elec       q    Type
REMARK                         _______ _______ _______ _____ _____    ______ ____
ROOT
ATOM      1  O   UNL     1      42.774 -54.650  68.196  0.00  0.00    +0.000 OA
ATOM      2  O   UNL     1      41.202 -55.653  66.772  0.00  0.00    +0.000 OA
ATOM      3  C   UNL     1      45.162 -55.253  67.805  0.00  0.00    +0.000 A 
ATOM      4  C   UNL     1      44.176 -54.532  68.534  0.00  0.00    +0.000 A 
ATOM      5  C   UNL     1      46.506 -55.145  68.122  0.00  0.00    +0.000 A 
ATOM      6  C   UNL     1      44.522 -53.696  69.586  0.00  0.00    +0.000 A 
ATOM      7  C   UNL     1      46.850 -54.305  69.179  0.00  0.00    +0.000 A 
ATOM      8  C   UNL     1      45.874 -53.595  69.896  0.00  0.00    +0.000 A 
ATOM      9  C   UNL     1      44.637 -56.058  66.764  0.00  0.00    +0.000 A 
ATOM     10  C   UNL     1      43.475 -56.142  66.502  0.00  0.00    +0.000 A 
ATOM     11  C   UNL     1      42.358 -55.491  67.128  0.00  0.00    +0.000 A 
ENDROOT
BRANCH   7  12
ATOM     12  O   UNL     1      48.157 -54.144  69.554  0.00  0.00    +0.000 OA
ATOM     13  H   UNL     1      48.492 -55.011  69.852  0.00  0.00    +0.000 HD
ENDBRANCH   7  12
BRANCH   8  14
ATOM     14  O   UNL     1      46.256 -52.782  70.927  0.00  0.00    +0.000 OA
ATOM     15  H   UNL     1      45.495 -52.186  71.082  0.00  0.00    +0.000 HD
ENDBRANCH   8  14
TORSDOF 2
ENDMDL
