MODEL 1
REMARK VINA RESULT:      -7.5      0.000      0.000
REMARK  Name = 5281239_Fucoxanthin.pdbqt.pdb
REMARK  19 active torsions:
REMARK  status: ('A' for Active; 'I' for Inactive)
REMARK    1  A    between atoms: C_1  and  C_5
REMARK    2  A    between atoms: C_2  and  C_26
REMARK    3  A    between atoms: C_3  and  C_5
REMARK    4  A    between atoms: C_3  and  C_7
REMARK    5  A    between atoms: C_6  and  C_10
REMARK    6  A    between atoms: C_8  and  C_10
REMARK    7  A    between atoms: C_8  and  C_12
REMARK    8  A    between atoms: C_12  and  C_13
REMARK    9  A    between atoms: C_13  and  C_15
REMARK   10  A    between atoms: C_20  and  O_24
REMARK   11  A    between atoms: C_26  and  C_27
REMARK   12  A    between atoms: C_27  and  C_30
REMARK   13  A    between atoms: C_29  and  C_33
REMARK   14  A    between atoms: C_31  and  C_33
REMARK   15  A    between atoms: C_31  and  C_44
REMARK   16  A    between atoms: C_35  and  O_45
REMARK   17  A    between atoms: C_37  and  O_47
REMARK   18  A    between atoms: C_39  and  C_43
REMARK   19  A    between atoms: O_47  and  C_49
REMARK                            x       y       z     vdW  Elec       q    Type
REMARK                         _______ _______ _______ _____ _____    ______ ____
ROOT
ATOM      1  C   UNL     1      50.047 -53.712  54.230  0.00  0.00    +0.000 C 
ATOM      2  C   UNL     1      51.126 -54.213  54.069  0.00  0.00    +0.000 C 
ENDROOT
BRANCH   2   3
ATOM      3  C   UNL     1      52.504 -54.854  53.871  0.00  0.00    +0.000 C 
BRANCH   3   4
ATOM      4  C   UNL     1      53.669 -55.398  53.699  0.00  0.00    +0.000 C 
ATOM      5  C   UNL     1      54.035 -55.975  52.366  0.00  0.00    +0.000 C 
BRANCH   4   7
ATOM      6  C   UNL     1      55.407 -55.401  55.655  0.00  0.00    +0.000 C 
ATOM      7  C   UNL     1      54.610 -55.398  54.757  0.00  0.00    +0.000 C 
BRANCH   6   8
ATOM      8  C   UNL     1      56.424 -55.410  56.801  0.00  0.00    +0.000 C 
BRANCH   8   9
ATOM      9  C   UNL     1      57.280 -55.426  57.775  0.00  0.00    +0.000 C 
ATOM     10  C   UNL     1      57.858 -56.724  58.250  0.00  0.00    +0.000 C 
BRANCH   9  12
ATOM     11  C   UNL     1      57.831 -53.207  59.056  0.00  0.00    +0.000 C 
ATOM     12  C   UNL     1      57.581 -54.227  58.468  0.00  0.00    +0.000 C 
BRANCH  11  18
ATOM     13  C   UNL     1      58.971 -50.976  59.082  0.00  0.00    +0.000 C 
ATOM     14  C   UNL     1      57.612 -51.857  61.117  0.00  0.00    +0.000 C 
ATOM     15  C   UNL     1      58.874 -49.733  59.858  0.00  0.00    +0.000 C 
ATOM     16  C   UNL     1      58.299 -49.265  61.056  0.00  0.00    +0.000 C 
ATOM     17  C   UNL     1      57.717 -50.460  61.524  0.00  0.00    +0.000 C 
ATOM     18  C   UNL     1      58.102 -52.088  59.697  0.00  0.00    +0.000 C 
ATOM     19  C   UNL     1      60.444 -51.465  59.044  0.00  0.00    +0.000 C 
ATOM     20  C   UNL     1      58.474 -50.683  57.633  0.00  0.00    +0.000 C 
ATOM     21  C   UNL     1      58.336 -52.781  62.102  0.00  0.00    +0.000 C 
BRANCH  14  22
ATOM     22  O   UNL     1      56.254 -52.227  61.204  0.00  0.00    +0.000 OA
ATOM     23  H   UNL     1      55.969 -52.133  60.276  0.00  0.00    +0.000 HD
ENDBRANCH  14  22
BRANCH  16  24
ATOM     24  O   UNL     1      59.059 -48.472  61.906  0.00  0.00    +0.000 OA
BRANCH  24  26
ATOM     25  O   UNL     1      59.781 -46.666  60.594  0.00  0.00    +0.000 OA
ATOM     26  C   UNL     1      59.092 -47.197  61.445  0.00  0.00    +0.000 C 
ATOM     27  C   UNL     1      58.120 -46.286  62.108  0.00  0.00    +0.000 C 
ENDBRANCH  24  26
ENDBRANCH  16  24
ENDBRANCH  11  18
ENDBRANCH   9  12
ENDBRANCH   8   9
ENDBRANCH   6   8
ENDBRANCH   4   7
ENDBRANCH   3   4
ENDBRANCH   2   3
BRANCH   1  28
ATOM     28  C   UNL     1      48.671 -53.074  54.446  0.00  0.00    +0.000 C 
BRANCH  28  29
ATOM     29  C   UNL     1      47.504 -52.543  54.634  0.00  0.00    +0.000 C 
ATOM     30  C   UNL     1      46.463 -53.282  55.419  0.00  0.00    +0.000 C 
BRANCH  29  32
ATOM     31  C   UNL     1      46.936 -50.219  53.576  0.00  0.00    +0.000 C 
ATOM     32  C   UNL     1      47.203 -51.283  54.064  0.00  0.00    +0.000 C 
BRANCH  31  33
ATOM     33  C   UNL     1      46.581 -48.867  52.946  0.00  0.00    +0.000 C 
BRANCH  33  34
ATOM     34  C   UNL     1      46.272 -47.720  52.417  0.00  0.00    +0.000 C 
ATOM     35  C   UNL     1      45.830 -46.627  53.368  0.00  0.00    +0.000 C 
BRANCH  34  37
ATOM     36  O   UNL     1      45.351 -47.766  50.213  0.00  0.00    +0.000 OA
ATOM     37  C   UNL     1      46.316 -47.535  50.933  0.00  0.00    +0.000 C 
BRANCH  37  38
ATOM     38  C   UNL     1      47.514 -47.065  50.279  0.00  0.00    +0.000 C 
BRANCH  38  40
ATOM     39  O   UNL     1      48.382 -45.856  48.427  0.00  0.00    +0.000 OA
ATOM     40  C   UNL     1      48.725 -46.626  49.612  0.00  0.00    +0.000 C 
ATOM     41  C   UNL     1      49.004 -45.114  49.474  0.00  0.00    +0.000 C 
ATOM     42  C   UNL     1      49.937 -47.617  49.478  0.00  0.00    +0.000 C 
ATOM     43  C   UNL     1      50.336 -44.724  49.140  0.00  0.00    +0.000 C 
ATOM     44  C   UNL     1      51.090 -46.824  49.046  0.00  0.00    +0.000 C 
ATOM     45  C   UNL     1      51.485 -45.485  48.863  0.00  0.00    +0.000 C 
ATOM     46  C   UNL     1      48.096 -44.041  50.081  0.00  0.00    +0.000 C 
ATOM     47  C   UNL     1      50.157 -48.195  50.897  0.00  0.00    +0.000 C 
ATOM     48  C   UNL     1      49.495 -48.694  48.463  0.00  0.00    +0.000 C 
BRANCH  45  49
ATOM     49  O   UNL     1      52.741 -45.064  49.179  0.00  0.00    +0.000 OA
ATOM     50  H   UNL     1      53.144 -44.531  48.471  0.00  0.00    +0.000 HD
ENDBRANCH  45  49
ENDBRANCH  38  40
ENDBRANCH  37  38
ENDBRANCH  34  37
ENDBRANCH  33  34
ENDBRANCH  31  33
ENDBRANCH  29  32
ENDBRANCH  28  29
ENDBRANCH   1  28
TORSDOF 19
ENDMDL
MODEL 2
REMARK VINA RESULT:      -7.4      1.911     13.412
REMARK  Name = 5281239_Fucoxanthin.pdbqt.pdb
REMARK  19 active torsions:
REMARK  status: ('A' for Active; 'I' for Inactive)
REMARK    1  A    between atoms: C_1  and  C_5
REMARK    2  A    between atoms: C_2  and  C_26
REMARK    3  A    between atoms: C_3  and  C_5
REMARK    4  A    between atoms: C_3  and  C_7
REMARK    5  A    between atoms: C_6  and  C_10
REMARK    6  A    between atoms: C_8  and  C_10
REMARK    7  A    between atoms: C_8  and  C_12
REMARK    8  A    between atoms: C_12  and  C_13
REMARK    9  A    between atoms: C_13  and  C_15
REMARK   10  A    between atoms: C_20  and  O_24
REMARK   11  A    between atoms: C_26  and  C_27
REMARK   12  A    between atoms: C_27  and  C_30
REMARK   13  A    between atoms: C_29  and  C_33
REMARK   14  A    between atoms: C_31  and  C_33
REMARK   15  A    between atoms: C_31  and  C_44
REMARK   16  A    between atoms: C_35  and  O_45
REMARK   17  A    between atoms: C_37  and  O_47
REMARK   18  A    between atoms: C_39  and  C_43
REMARK   19  A    between atoms: O_47  and  C_49
REMARK                            x       y       z     vdW  Elec       q    Type
REMARK                         _______ _______ _______ _____ _____    ______ ____
ROOT
ATOM      1  C   UNL     1      54.160 -55.459  54.426  0.00  0.00    +0.000 C 
ATOM      2  C   UNL     1      53.060 -55.435  53.946  0.00  0.00    +0.000 C 
ENDROOT
BRANCH   2   3
ATOM      3  C   UNL     1      51.656 -55.396  53.331  0.00  0.00    +0.000 C 
BRANCH   3   4
ATOM      4  C   UNL     1      50.471 -55.362  52.808  0.00  0.00    +0.000 C 
ATOM      5  C   UNL     1      49.998 -56.498  51.953  0.00  0.00    +0.000 C 
BRANCH   4   7
ATOM      6  C   UNL     1      48.873 -53.355  53.322  0.00  0.00    +0.000 C 
ATOM      7  C   UNL     1      49.608 -54.275  53.086  0.00  0.00    +0.000 C 
BRANCH   6   8
ATOM      8  C   UNL     1      47.933 -52.183  53.625  0.00  0.00    +0.000 C 
BRANCH   8   9
ATOM      9  C   UNL     1      47.129 -51.199  53.883  0.00  0.00    +0.000 C 
ATOM     10  C   UNL     1      45.955 -51.402  54.790  0.00  0.00    +0.000 C 
BRANCH   9  12
ATOM     11  C   UNL     1      47.440 -48.912  52.641  0.00  0.00    +0.000 C 
ATOM     12  C   UNL     1      47.295 -49.961  53.213  0.00  0.00    +0.000 C 
BRANCH  11  18
ATOM     13  C   UNL     1      46.415 -46.900  51.555  0.00  0.00    +0.000 C 
ATOM     14  C   UNL     1      48.991 -47.251  51.664  0.00  0.00    +0.000 C 
ATOM     15  C   UNL     1      46.856 -45.554  51.165  0.00  0.00    +0.000 C 
ATOM     16  C   UNL     1      48.051 -44.830  50.991  0.00  0.00    +0.000 C 
ATOM     17  C   UNL     1      48.987 -45.841  51.292  0.00  0.00    +0.000 C 
ATOM     18  C   UNL     1      47.603 -47.763  52.017  0.00  0.00    +0.000 C 
ATOM     19  C   UNL     1      45.730 -47.604  50.354  0.00  0.00    +0.000 C 
ATOM     20  C   UNL     1      45.403 -46.755  52.732  0.00  0.00    +0.000 C 
ATOM     21  C   UNL     1      49.631 -48.114  50.573  0.00  0.00    +0.000 C 
BRANCH  14  22
ATOM     22  O   UNL     1      49.835 -47.395  52.784  0.00  0.00    +0.000 OA
ATOM     23  H   UNL     1      49.472 -46.722  53.389  0.00  0.00    +0.000 HD
ENDBRANCH  14  22
BRANCH  16  24
ATOM     24  O   UNL     1      48.207 -44.042  49.858  0.00  0.00    +0.000 OA
BRANCH  24  26
ATOM     25  O   UNL     1      47.460 -41.853  49.464  0.00  0.00    +0.000 OA
ATOM     26  C   UNL     1      47.917 -42.750  50.149  0.00  0.00    +0.000 C 
ATOM     27  C   UNL     1      48.225 -42.358  51.551  0.00  0.00    +0.000 C 
ENDBRANCH  24  26
ENDBRANCH  16  24
ENDBRANCH  11  18
ENDBRANCH   9  12
ENDBRANCH   8   9
ENDBRANCH   6   8
ENDBRANCH   4   7
ENDBRANCH   3   4
ENDBRANCH   2   3
BRANCH   1  28
ATOM     28  C   UNL     1      55.566 -55.480  55.037  0.00  0.00    +0.000 C 
BRANCH  28  29
ATOM     29  C   UNL     1      56.753 -55.487  55.555  0.00  0.00    +0.000 C 
ATOM     30  C   UNL     1      57.801 -56.411  55.015  0.00  0.00    +0.000 C 
BRANCH  29  32
ATOM     31  C   UNL     1      57.301 -53.928  57.583  0.00  0.00    +0.000 C 
ATOM     32  C   UNL     1      57.045 -54.648  56.657  0.00  0.00    +0.000 C 
BRANCH  31  33
ATOM     33  C   UNL     1      57.639 -53.000  58.757  0.00  0.00    +0.000 C 
BRANCH  33  34
ATOM     34  C   UNL     1      57.929 -52.208  59.746  0.00  0.00    +0.000 C 
ATOM     35  C   UNL     1      56.848 -51.989  60.785  0.00  0.00    +0.000 C 
BRANCH  34  37
ATOM     36  O   UNL     1      60.315 -52.126  59.658  0.00  0.00    +0.000 OA
ATOM     37  C   UNL     1      59.257 -51.522  59.802  0.00  0.00    +0.000 C 
BRANCH  37  38
ATOM     38  C   UNL     1      59.349 -50.100  60.030  0.00  0.00    +0.000 C 
BRANCH  38  40
ATOM     39  O   UNL     1      58.171 -48.116  60.593  0.00  0.00    +0.000 OA
ATOM     40  C   UNL     1      59.474 -48.676  60.273  0.00  0.00    +0.000 C 
ATOM     41  C   UNL     1      59.113 -48.113  61.664  0.00  0.00    +0.000 C 
ATOM     42  C   UNL     1      60.399 -47.811  59.343  0.00  0.00    +0.000 C 
ATOM     43  C   UNL     1      59.571 -46.797  61.975  0.00  0.00    +0.000 C 
ATOM     44  C   UNL     1      60.561 -46.508  59.994  0.00  0.00    +0.000 C 
ATOM     45  C   UNL     1      60.286 -45.858  61.213  0.00  0.00    +0.000 C 
ATOM     46  C   UNL     1      58.699 -49.002  62.840  0.00  0.00    +0.000 C 
ATOM     47  C   UNL     1      61.745 -48.572  59.276  0.00  0.00    +0.000 C 
ATOM     48  C   UNL     1      59.686 -47.747  57.974  0.00  0.00    +0.000 C 
BRANCH  45  49
ATOM     49  O   UNL     1      61.169 -44.980  61.764  0.00  0.00    +0.000 OA
ATOM     50  H   UNL     1      60.783 -44.095  61.892  0.00  0.00    +0.000 HD
ENDBRANCH  45  49
ENDBRANCH  38  40
ENDBRANCH  37  38
ENDBRANCH  34  37
ENDBRANCH  33  34
ENDBRANCH  31  33
ENDBRANCH  29  32
ENDBRANCH  28  29
ENDBRANCH   1  28
TORSDOF 19
ENDMDL
MODEL 3
REMARK VINA RESULT:      -7.4      6.823     13.855
REMARK  Name = 5281239_Fucoxanthin.pdbqt.pdb
REMARK  19 active torsions:
REMARK  status: ('A' for Active; 'I' for Inactive)
REMARK    1  A    between atoms: C_1  and  C_5
REMARK    2  A    between atoms: C_2  and  C_26
REMARK    3  A    between atoms: C_3  and  C_5
REMARK    4  A    between atoms: C_3  and  C_7
REMARK    5  A    between atoms: C_6  and  C_10
REMARK    6  A    between atoms: C_8  and  C_10
REMARK    7  A    between atoms: C_8  and  C_12
REMARK    8  A    between atoms: C_12  and  C_13
REMARK    9  A    between atoms: C_13  and  C_15
REMARK   10  A    between atoms: C_20  and  O_24
REMARK   11  A    between atoms: C_26  and  C_27
REMARK   12  A    between atoms: C_27  and  C_30
REMARK   13  A    between atoms: C_29  and  C_33
REMARK   14  A    between atoms: C_31  and  C_33
REMARK   15  A    between atoms: C_31  and  C_44
REMARK   16  A    between atoms: C_35  and  O_45
REMARK   17  A    between atoms: C_37  and  O_47
REMARK   18  A    between atoms: C_39  and  C_43
REMARK   19  A    between atoms: O_47  and  C_49
REMARK                            x       y       z     vdW  Elec       q    Type
REMARK                         _______ _______ _______ _____ _____    ______ ____
ROOT
ATOM      1  C   UNL     1      46.400 -49.644  51.315  0.00  0.00    +0.000 C 
ATOM      2  C   UNL     1      47.359 -48.950  51.121  0.00  0.00    +0.000 C 
ENDROOT
BRANCH   2   3
ATOM      3  C   UNL     1      48.581 -48.058  50.868  0.00  0.00    +0.000 C 
BRANCH   3   4
ATOM      4  C   UNL     1      49.611 -47.301  50.654  0.00  0.00    +0.000 C 
ATOM      5  C   UNL     1      50.942 -47.668  51.236  0.00  0.00    +0.000 C 
BRANCH   4   7
ATOM      6  C   UNL     1      49.385 -45.185  49.132  0.00  0.00    +0.000 C 
ATOM      7  C   UNL     1      49.487 -46.157  49.830  0.00  0.00    +0.000 C 
BRANCH   6   8
ATOM      8  C   UNL     1      49.260 -43.945  48.240  0.00  0.00    +0.000 C 
BRANCH   8   9
ATOM      9  C   UNL     1      49.159 -42.890  47.492  0.00  0.00    +0.000 C 
ATOM     10  C   UNL     1      49.385 -42.990  46.014  0.00  0.00    +0.000 C 
BRANCH   9  12
ATOM     11  C   UNL     1      48.767 -40.546  48.593  0.00  0.00    +0.000 C 
ATOM     12  C   UNL     1      48.950 -41.622  48.087  0.00  0.00    +0.000 C 
BRANCH  11  18
ATOM     13  C   UNL     1      49.104 -38.064  48.524  0.00  0.00    +0.000 C 
ATOM     14  C   UNL     1      47.825 -39.231  50.465  0.00  0.00    +0.000 C 
ATOM     15  C   UNL     1      48.496 -36.883  49.152  0.00  0.00    +0.000 C 
ATOM     16  C   UNL     1      47.633 -36.567  50.219  0.00  0.00    +0.000 C 
ATOM     17  C   UNL     1      47.410 -37.859  50.736  0.00  0.00    +0.000 C 
ATOM     18  C   UNL     1      48.564 -39.365  49.143  0.00  0.00    +0.000 C 
ATOM     19  C   UNL     1      50.645 -38.030  48.710  0.00  0.00    +0.000 C 
ATOM     20  C   UNL     1      48.753 -38.038  47.005  0.00  0.00    +0.000 C 
ATOM     21  C   UNL     1      48.659 -39.799  51.617  0.00  0.00    +0.000 C 
BRANCH  14  22
ATOM     22  O   UNL     1      46.664 -40.030  50.429  0.00  0.00    +0.000 OA
ATOM     23  H   UNL     1      45.969 -39.370  50.608  0.00  0.00    +0.000 HD
ENDBRANCH  14  22
BRANCH  16  24
ATOM     24  O   UNL     1      47.962 -35.517  51.067  0.00  0.00    +0.000 OA
BRANCH  24  26
ATOM     25  O   UNL     1      49.796 -36.488  52.162  0.00  0.00    +0.000 OA
ATOM     26  C   UNL     1      48.692 -35.978  52.113  0.00  0.00    +0.000 C 
ATOM     27  C   UNL     1      48.016 -35.846  53.432  0.00  0.00    +0.000 C 
ENDBRANCH  24  26
ENDBRANCH  16  24
ENDBRANCH  11  18
ENDBRANCH   9  12
ENDBRANCH   8   9
ENDBRANCH   6   8
ENDBRANCH   4   7
ENDBRANCH   3   4
ENDBRANCH   2   3
BRANCH   1  28
ATOM     28  C   UNL     1      45.169 -50.525  51.557  0.00  0.00    +0.000 C 
BRANCH  28  29
ATOM     29  C   UNL     1      44.125 -51.266  51.752  0.00  0.00    +0.000 C 
ATOM     30  C   UNL     1      43.004 -51.257  50.758  0.00  0.00    +0.000 C 
BRANCH  29  32
ATOM     31  C   UNL     1      43.961 -52.729  53.915  0.00  0.00    +0.000 C 
ATOM     32  C   UNL     1      44.030 -52.054  52.924  0.00  0.00    +0.000 C 
BRANCH  31  33
ATOM     33  C   UNL     1      43.886 -53.599  55.175  0.00  0.00    +0.000 C 
BRANCH  33  34
ATOM     34  C   UNL     1      43.814 -54.339  56.242  0.00  0.00    +0.000 C 
ATOM     35  C   UNL     1      42.492 -55.030  56.506  0.00  0.00    +0.000 C 
BRANCH  34  37
ATOM     36  O   UNL     1      44.856 -54.731  58.357  0.00  0.00    +0.000 OA
ATOM     37  C   UNL     1      44.982 -54.444  57.171  0.00  0.00    +0.000 C 
BRANCH  37  38
ATOM     38  C   UNL     1      46.327 -54.212  56.701  0.00  0.00    +0.000 C 
BRANCH  38  40
ATOM     39  O   UNL     1      48.435 -53.286  57.286  0.00  0.00    +0.000 OA
ATOM     40  C   UNL     1      47.691 -53.995  56.258  0.00  0.00    +0.000 C 
ATOM     41  C   UNL     1      48.852 -54.629  57.052  0.00  0.00    +0.000 C 
ATOM     42  C   UNL     1      47.961 -53.561  54.772  0.00  0.00    +0.000 C 
ATOM     43  C   UNL     1      50.124 -54.694  56.408  0.00  0.00    +0.000 C 
ATOM     44  C   UNL     1      49.400 -53.709  54.539  0.00  0.00    +0.000 C 
ATOM     45  C   UNL     1      50.554 -54.237  55.150  0.00  0.00    +0.000 C 
ATOM     46  C   UNL     1      48.632 -55.552  58.254  0.00  0.00    +0.000 C 
ATOM     47  C   UNL     1      47.150 -54.550  53.899  0.00  0.00    +0.000 C 
ATOM     48  C   UNL     1      47.449 -52.109  54.653  0.00  0.00    +0.000 C 
BRANCH  45  49
ATOM     49  O   UNL     1      51.515 -54.873  54.424  0.00  0.00    +0.000 OA
ATOM     50  H   UNL     1      51.901 -54.301  53.737  0.00  0.00    +0.000 HD
ENDBRANCH  45  49
ENDBRANCH  38  40
ENDBRANCH  37  38
ENDBRANCH  34  37
ENDBRANCH  33  34
ENDBRANCH  31  33
ENDBRANCH  29  32
ENDBRANCH  28  29
ENDBRANCH   1  28
TORSDOF 19
ENDMDL
MODEL 4
REMARK VINA RESULT:      -7.1      1.936      3.732
REMARK  Name = 5281239_Fucoxanthin.pdbqt.pdb
REMARK  19 active torsions:
REMARK  status: ('A' for Active; 'I' for Inactive)
REMARK    1  A    between atoms: C_1  and  C_5
REMARK    2  A    between atoms: C_2  and  C_26
REMARK    3  A    between atoms: C_3  and  C_5
REMARK    4  A    between atoms: C_3  and  C_7
REMARK    5  A    between atoms: C_6  and  C_10
REMARK    6  A    between atoms: C_8  and  C_10
REMARK    7  A    between atoms: C_8  and  C_12
REMARK    8  A    between atoms: C_12  and  C_13
REMARK    9  A    between atoms: C_13  and  C_15
REMARK   10  A    between atoms: C_20  and  O_24
REMARK   11  A    between atoms: C_26  and  C_27
REMARK   12  A    between atoms: C_27  and  C_30
REMARK   13  A    between atoms: C_29  and  C_33
REMARK   14  A    between atoms: C_31  and  C_33
REMARK   15  A    between atoms: C_31  and  C_44
REMARK   16  A    between atoms: C_35  and  O_45
REMARK   17  A    between atoms: C_37  and  O_47
REMARK   18  A    between atoms: C_39  and  C_43
REMARK   19  A    between atoms: O_47  and  C_49
REMARK                            x       y       z     vdW  Elec       q    Type
REMARK                         _______ _______ _______ _____ _____    ______ ____
ROOT
ATOM      1  C   UNL     1      49.910 -54.703  54.816  0.00  0.00    +0.000 C 
ATOM      2  C   UNL     1      50.710 -55.326  55.458  0.00  0.00    +0.000 C 
ENDROOT
BRANCH   2   3
ATOM      3  C   UNL     1      51.735 -56.125  56.272  0.00  0.00    +0.000 C 
BRANCH   3   4
ATOM      4  C   UNL     1      52.602 -56.801  56.957  0.00  0.00    +0.000 C 
ATOM      5  C   UNL     1      52.223 -58.128  57.542  0.00  0.00    +0.000 C 
BRANCH   4   7
ATOM      6  C   UNL     1      55.041 -55.893  57.233  0.00  0.00    +0.000 C 
ATOM      7  C   UNL     1      53.921 -56.310  57.108  0.00  0.00    +0.000 C 
BRANCH   6   8
ATOM      8  C   UNL     1      56.469 -55.359  57.388  0.00  0.00    +0.000 C 
BRANCH   8   9
ATOM      9  C   UNL     1      57.676 -54.906  57.529  0.00  0.00    +0.000 C 
ATOM     10  C   UNL     1      58.841 -55.693  57.014  0.00  0.00    +0.000 C 
BRANCH   9  12
ATOM     11  C   UNL     1      58.085 -52.716  58.909  0.00  0.00    +0.000 C 
ATOM     12  C   UNL     1      57.900 -53.722  58.275  0.00  0.00    +0.000 C 
BRANCH  11  18
ATOM     13  C   UNL     1      59.154 -50.456  59.076  0.00  0.00    +0.000 C 
ATOM     14  C   UNL     1      57.705 -51.445  60.997  0.00  0.00    +0.000 C 
ATOM     15  C   UNL     1      58.973 -49.244  59.886  0.00  0.00    +0.000 C 
ATOM     16  C   UNL     1      58.316 -48.834  61.062  0.00  0.00    +0.000 C 
ATOM     17  C   UNL     1      57.744 -50.061  61.455  0.00  0.00    +0.000 C 
ATOM     18  C   UNL     1      58.285 -51.612  59.601  0.00  0.00    +0.000 C 
ATOM     19  C   UNL     1      60.640 -50.900  59.109  0.00  0.00    +0.000 C 
ATOM     20  C   UNL     1      58.732 -50.127  57.611  0.00  0.00    +0.000 C 
ATOM     21  C   UNL     1      58.398 -52.381  61.992  0.00  0.00    +0.000 C 
BRANCH  14  22
ATOM     22  O   UNL     1      56.357 -51.856  60.991  0.00  0.00    +0.000 OA
ATOM     23  H   UNL     1      56.203 -52.030  61.938  0.00  0.00    +0.000 HD
ENDBRANCH  14  22
BRANCH  16  24
ATOM     24  O   UNL     1      59.000 -48.050  61.981  0.00  0.00    +0.000 OA
BRANCH  24  26
ATOM     25  O   UNL     1      57.692 -46.138  61.611  0.00  0.00    +0.000 OA
ATOM     26  C   UNL     1      58.741 -46.738  61.756  0.00  0.00    +0.000 C 
ATOM     27  C   UNL     1      59.956 -45.886  61.657  0.00  0.00    +0.000 C 
ENDBRANCH  24  26
ENDBRANCH  16  24
ENDBRANCH  11  18
ENDBRANCH   9  12
ENDBRANCH   8   9
ENDBRANCH   6   8
ENDBRANCH   4   7
ENDBRANCH   3   4
ENDBRANCH   2   3
BRANCH   1  28
ATOM     28  C   UNL     1      48.892 -53.912  53.987  0.00  0.00    +0.000 C 
BRANCH  28  29
ATOM     29  C   UNL     1      48.024 -53.244  53.295  0.00  0.00    +0.000 C 
ATOM     30  C   UNL     1      46.652 -53.804  53.073  0.00  0.00    +0.000 C 
BRANCH  29  32
ATOM     31  C   UNL     1      48.710 -50.958  52.223  0.00  0.00    +0.000 C 
ATOM     32  C   UNL     1      48.388 -52.004  52.717  0.00  0.00    +0.000 C 
BRANCH  31  33
ATOM     33  C   UNL     1      49.136 -49.628  51.590  0.00  0.00    +0.000 C 
BRANCH  33  34
ATOM     34  C   UNL     1      49.499 -48.497  51.062  0.00  0.00    +0.000 C 
ATOM     35  C   UNL     1      50.932 -48.062  51.297  0.00  0.00    +0.000 C 
BRANCH  34  37
ATOM     36  O   UNL     1      48.839 -46.975  49.342  0.00  0.00    +0.000 OA
ATOM     37  C   UNL     1      48.515 -47.665  50.303  0.00  0.00    +0.000 C 
BRANCH  37  38
ATOM     38  C   UNL     1      47.120 -47.642  50.675  0.00  0.00    +0.000 C 
BRANCH  38  40
ATOM     39  O   UNL     1      45.579 -47.087  52.396  0.00  0.00    +0.000 OA
ATOM     40  C   UNL     1      45.717 -47.586  51.037  0.00  0.00    +0.000 C 
ATOM     41  C   UNL     1      45.080 -46.222  51.378  0.00  0.00    +0.000 C 
ATOM     42  C   UNL     1      44.763 -48.763  50.623  0.00  0.00    +0.000 C 
ATOM     43  C   UNL     1      43.654 -46.150  51.383  0.00  0.00    +0.000 C 
ATOM     44  C   UNL     1      43.392 -48.302  50.849  0.00  0.00    +0.000 C 
ATOM     45  C   UNL     1      42.673 -47.133  51.166  0.00  0.00    +0.000 C 
ATOM     46  C   UNL     1      45.843 -44.898  51.277  0.00  0.00    +0.000 C 
ATOM     47  C   UNL     1      45.031 -49.001  49.116  0.00  0.00    +0.000 C 
ATOM     48  C   UNL     1      45.176 -49.970  51.494  0.00  0.00    +0.000 C 
BRANCH  45  49
ATOM     49  O   UNL     1      41.471 -46.859  50.589  0.00  0.00    +0.000 OA
ATOM     50  H   UNL     1      40.727 -46.975  51.207  0.00  0.00    +0.000 HD
ENDBRANCH  45  49
ENDBRANCH  38  40
ENDBRANCH  37  38
ENDBRANCH  34  37
ENDBRANCH  33  34
ENDBRANCH  31  33
ENDBRANCH  29  32
ENDBRANCH  28  29
ENDBRANCH   1  28
TORSDOF 19
ENDMDL
MODEL 5
REMARK VINA RESULT:      -6.9     10.442     13.808
REMARK  Name = 5281239_Fucoxanthin.pdbqt.pdb
REMARK  19 active torsions:
REMARK  status: ('A' for Active; 'I' for Inactive)
REMARK    1  A    between atoms: C_1  and  C_5
REMARK    2  A    between atoms: C_2  and  C_26
REMARK    3  A    between atoms: C_3  and  C_5
REMARK    4  A    between atoms: C_3  and  C_7
REMARK    5  A    between atoms: C_6  and  C_10
REMARK    6  A    between atoms: C_8  and  C_10
REMARK    7  A    between atoms: C_8  and  C_12
REMARK    8  A    between atoms: C_12  and  C_13
REMARK    9  A    between atoms: C_13  and  C_15
REMARK   10  A    between atoms: C_20  and  O_24
REMARK   11  A    between atoms: C_26  and  C_27
REMARK   12  A    between atoms: C_27  and  C_30
REMARK   13  A    between atoms: C_29  and  C_33
REMARK   14  A    between atoms: C_31  and  C_33
REMARK   15  A    between atoms: C_31  and  C_44
REMARK   16  A    between atoms: C_35  and  O_45
REMARK   17  A    between atoms: C_37  and  O_47
REMARK   18  A    between atoms: C_39  and  C_43
REMARK   19  A    between atoms: O_47  and  C_49
REMARK                            x       y       z     vdW  Elec       q    Type
REMARK                         _______ _______ _______ _____ _____    ______ ____
ROOT
ATOM      1  C   UNL     1      48.119 -40.734  51.299  0.00  0.00    +0.000 C 
ATOM      2  C   UNL     1      47.990 -41.926  51.344  0.00  0.00    +0.000 C 
ENDROOT
BRANCH   2   3
ATOM      3  C   UNL     1      47.830 -43.450  51.398  0.00  0.00    +0.000 C 
BRANCH   3   4
ATOM      4  C   UNL     1      47.698 -44.739  51.447  0.00  0.00    +0.000 C 
ATOM      5  C   UNL     1      46.851 -45.363  52.513  0.00  0.00    +0.000 C 
BRANCH   4   7
ATOM      6  C   UNL     1      48.831 -46.240  49.628  0.00  0.00    +0.000 C 
ATOM      7  C   UNL     1      48.312 -45.549  50.463  0.00  0.00    +0.000 C 
BRANCH   6   8
ATOM      8  C   UNL     1      49.490 -47.123  48.562  0.00  0.00    +0.000 C 
BRANCH   8   9
ATOM      9  C   UNL     1      50.056 -47.869  47.665  0.00  0.00    +0.000 C 
ATOM     10  C   UNL     1      49.491 -49.217  47.339  0.00  0.00    +0.000 C 
BRANCH   9  12
ATOM     11  C   UNL     1      52.312 -47.110  46.571  0.00  0.00    +0.000 C 
ATOM     12  C   UNL     1      51.277 -47.456  47.076  0.00  0.00    +0.000 C 
BRANCH  11  18
ATOM     13  C   UNL     1      54.340 -47.707  45.225  0.00  0.00    +0.000 C 
ATOM     14  C   UNL     1      53.974 -45.317  46.185  0.00  0.00    +0.000 C 
ATOM     15  C   UNL     1      55.375 -46.987  44.471  0.00  0.00    +0.000 C 
ATOM     16  C   UNL     1      55.868 -45.676  44.320  0.00  0.00    +0.000 C 
ATOM     17  C   UNL     1      55.042 -45.003  45.244  0.00  0.00    +0.000 C 
ATOM     18  C   UNL     1      53.449 -46.735  46.018  0.00  0.00    +0.000 C 
ATOM     19  C   UNL     1      55.001 -48.696  46.221  0.00  0.00    +0.000 C 
ATOM     20  C   UNL     1      53.457 -48.492  44.207  0.00  0.00    +0.000 C 
ATOM     21  C   UNL     1      54.411 -45.064  47.631  0.00  0.00    +0.000 C 
BRANCH  14  22
ATOM     22  O   UNL     1      52.922 -44.405  45.959  0.00  0.00    +0.000 OA
ATOM     23  H   UNL     1      52.144 -44.990  46.016  0.00  0.00    +0.000 HD
ENDBRANCH  14  22
BRANCH  16  24
ATOM     24  O   UNL     1      57.241 -45.466  44.321  0.00  0.00    +0.000 OA
BRANCH  24  26
ATOM     25  O   UNL     1      57.823 -46.636  42.372  0.00  0.00    +0.000 OA
ATOM     26  C   UNL     1      57.855 -46.413  43.569  0.00  0.00    +0.000 C 
ATOM     27  C   UNL     1      58.709 -47.349  44.348  0.00  0.00    +0.000 C 
ENDBRANCH  24  26
ENDBRANCH  16  24
ENDBRANCH  11  18
ENDBRANCH   9  12
ENDBRANCH   8   9
ENDBRANCH   6   8
ENDBRANCH   4   7
ENDBRANCH   3   4
ENDBRANCH   2   3
BRANCH   1  28
ATOM     28  C   UNL     1      48.291 -39.212  51.233  0.00  0.00    +0.000 C 
BRANCH  28  29
ATOM     29  C   UNL     1      48.446 -37.928  51.171  0.00  0.00    +0.000 C 
ATOM     30  C   UNL     1      48.330 -37.098  52.414  0.00  0.00    +0.000 C 
BRANCH  29  32
ATOM     31  C   UNL     1      48.876 -36.782  48.859  0.00  0.00    +0.000 C 
ATOM     32  C   UNL     1      48.686 -37.307  49.922  0.00  0.00    +0.000 C 
BRANCH  31  33
ATOM     33  C   UNL     1      49.103 -36.115  47.497  0.00  0.00    +0.000 C 
BRANCH  33  34
ATOM     34  C   UNL     1      49.303 -35.545  46.346  0.00  0.00    +0.000 C 
ATOM     35  C   UNL     1      50.206 -34.328  46.334  0.00  0.00    +0.000 C 
BRANCH  34  37
ATOM     36  O   UNL     1      48.356 -35.339  44.162  0.00  0.00    +0.000 OA
ATOM     37  C   UNL     1      48.623 -36.060  45.118  0.00  0.00    +0.000 C 
BRANCH  37  38
ATOM     38  C   UNL     1      48.250 -37.450  45.003  0.00  0.00    +0.000 C 
BRANCH  38  40
ATOM     39  O   UNL     1      46.455 -39.006  44.959  0.00  0.00    +0.000 OA
ATOM     40  C   UNL     1      47.898 -38.850  44.862  0.00  0.00    +0.000 C 
ATOM     41  C   UNL     1      47.012 -39.289  43.677  0.00  0.00    +0.000 C 
ATOM     42  C   UNL     1      48.771 -39.943  45.576  0.00  0.00    +0.000 C 
ATOM     43  C   UNL     1      46.976 -40.682  43.369  0.00  0.00    +0.000 C 
ATOM     44  C   UNL     1      48.370 -41.239  45.022  0.00  0.00    +0.000 C 
ATOM     45  C   UNL     1      47.588 -41.786  43.987  0.00  0.00    +0.000 C 
ATOM     46  C   UNL     1      46.543 -38.322  42.585  0.00  0.00    +0.000 C 
ATOM     47  C   UNL     1      50.236 -39.608  45.207  0.00  0.00    +0.000 C 
ATOM     48  C   UNL     1      48.492 -39.789  47.087  0.00  0.00    +0.000 C 
BRANCH  45  49
ATOM     49  O   UNL     1      47.994 -42.886  43.295  0.00  0.00    +0.000 OA
ATOM     50  H   UNL     1      48.766 -43.318  43.703  0.00  0.00    +0.000 HD
ENDBRANCH  45  49
ENDBRANCH  38  40
ENDBRANCH  37  38
ENDBRANCH  34  37
ENDBRANCH  33  34
ENDBRANCH  31  33
ENDBRANCH  29  32
ENDBRANCH  28  29
ENDBRANCH   1  28
TORSDOF 19
ENDMDL
MODEL 6
REMARK VINA RESULT:      -6.8     10.280     17.803
REMARK  Name = 5281239_Fucoxanthin.pdbqt.pdb
REMARK  19 active torsions:
REMARK  status: ('A' for Active; 'I' for Inactive)
REMARK    1  A    between atoms: C_1  and  C_5
REMARK    2  A    between atoms: C_2  and  C_26
REMARK    3  A    between atoms: C_3  and  C_5
REMARK    4  A    between atoms: C_3  and  C_7
REMARK    5  A    between atoms: C_6  and  C_10
REMARK    6  A    between atoms: C_8  and  C_10
REMARK    7  A    between atoms: C_8  and  C_12
REMARK    8  A    between atoms: C_12  and  C_13
REMARK    9  A    between atoms: C_13  and  C_15
REMARK   10  A    between atoms: C_20  and  O_24
REMARK   11  A    between atoms: C_26  and  C_27
REMARK   12  A    between atoms: C_27  and  C_30
REMARK   13  A    between atoms: C_29  and  C_33
REMARK   14  A    between atoms: C_31  and  C_33
REMARK   15  A    between atoms: C_31  and  C_44
REMARK   16  A    between atoms: C_35  and  O_45
REMARK   17  A    between atoms: C_37  and  O_47
REMARK   18  A    between atoms: C_39  and  C_43
REMARK   19  A    between atoms: O_47  and  C_49
REMARK                            x       y       z     vdW  Elec       q    Type
REMARK                         _______ _______ _______ _____ _____    ______ ____
ROOT
ATOM      1  C   UNL     1      48.221 -41.605  51.214  0.00  0.00    +0.000 C 
ATOM      2  C   UNL     1      48.316 -40.417  51.081  0.00  0.00    +0.000 C 
ENDROOT
BRANCH   2   3
ATOM      3  C   UNL     1      48.442 -38.899  50.903  0.00  0.00    +0.000 C 
BRANCH   3   4
ATOM      4  C   UNL     1      48.546 -37.615  50.757  0.00  0.00    +0.000 C 
ATOM      5  C   UNL     1      48.541 -36.723  51.960  0.00  0.00    +0.000 C 
BRANCH   4   7
ATOM      6  C   UNL     1      48.855 -36.596  48.367  0.00  0.00    +0.000 C 
ATOM      7  C   UNL     1      48.715 -37.064  49.464  0.00  0.00    +0.000 C 
BRANCH   6   8
ATOM      8  C   UNL     1      49.030 -35.995  46.968  0.00  0.00    +0.000 C 
BRANCH   8   9
ATOM      9  C   UNL     1      49.177 -35.477  45.788  0.00  0.00    +0.000 C 
ATOM     10  C   UNL     1      48.429 -36.040  44.619  0.00  0.00    +0.000 C 
BRANCH   9  12
ATOM     11  C   UNL     1      50.944 -33.580  45.405  0.00  0.00    +0.000 C 
ATOM     12  C   UNL     1      50.135 -34.452  45.583  0.00  0.00    +0.000 C 
BRANCH  11  18
ATOM     13  C   UNL     1      51.962 -31.413  46.144  0.00  0.00    +0.000 C 
ATOM     14  C   UNL     1      52.746 -32.645  43.992  0.00  0.00    +0.000 C 
ATOM     15  C   UNL     1      53.199 -30.666  45.880  0.00  0.00    +0.000 C 
ATOM     16  C   UNL     1      54.269 -30.663  44.964  0.00  0.00    +0.000 C 
ATOM     17  C   UNL     1      53.862 -31.715  44.119  0.00  0.00    +0.000 C 
ATOM     18  C   UNL     1      51.831 -32.626  45.206  0.00  0.00    +0.000 C 
ATOM     19  C   UNL     1      50.731 -30.491  45.933  0.00  0.00    +0.000 C 
ATOM     20  C   UNL     1      52.003 -31.912  47.620  0.00  0.00    +0.000 C 
ATOM     21  C   UNL     1      51.953 -32.393  42.706  0.00  0.00    +0.000 C 
BRANCH  14  22
ATOM     22  O   UNL     1      53.284 -33.940  43.838  0.00  0.00    +0.000 OA
ATOM     23  H   UNL     1      53.381 -33.996  42.870  0.00  0.00    +0.000 HD
ENDBRANCH  14  22
BRANCH  16  24
ATOM     24  O   UNL     1      54.697 -29.455  44.428  0.00  0.00    +0.000 OA
BRANCH  24  26
ATOM     25  O   UNL     1      56.533 -29.470  42.967  0.00  0.00    +0.000 OA
ATOM     26  C   UNL     1      55.998 -29.547  44.058  0.00  0.00    +0.000 C 
ATOM     27  C   UNL     1      56.935 -29.797  45.187  0.00  0.00    +0.000 C 
ENDBRANCH  24  26
ENDBRANCH  16  24
ENDBRANCH  11  18
ENDBRANCH   9  12
ENDBRANCH   8   9
ENDBRANCH   6   8
ENDBRANCH   4   7
ENDBRANCH   3   4
ENDBRANCH   2   3
BRANCH   1  28
ATOM     28  C   UNL     1      48.103 -43.125  51.376  0.00  0.00    +0.000 C 
BRANCH  28  29
ATOM     29  C   UNL     1      47.993 -44.410  51.506  0.00  0.00    +0.000 C 
ATOM     30  C   UNL     1      47.519 -44.994  52.801  0.00  0.00    +0.000 C 
BRANCH  29  32
ATOM     31  C   UNL     1      48.665 -45.971  49.517  0.00  0.00    +0.000 C 
ATOM     32  C   UNL     1      48.360 -45.259  50.435  0.00  0.00    +0.000 C 
BRANCH  31  33
ATOM     33  C   UNL     1      49.045 -46.871  48.335  0.00  0.00    +0.000 C 
BRANCH  33  34
ATOM     34  C   UNL     1      49.374 -47.638  47.338  0.00  0.00    +0.000 C 
ATOM     35  C   UNL     1      49.363 -49.131  47.592  0.00  0.00    +0.000 C 
BRANCH  34  37
ATOM     36  O   UNL     1      49.141 -47.211  44.998  0.00  0.00    +0.000 OA
ATOM     37  C   UNL     1      49.785 -47.042  46.029  0.00  0.00    +0.000 C 
BRANCH  37  38
ATOM     38  C   UNL     1      50.972 -46.228  45.923  0.00  0.00    +0.000 C 
BRANCH  38  40
ATOM     39  O   UNL     1      52.131 -44.334  46.767  0.00  0.00    +0.000 OA
ATOM     40  C   UNL     1      52.184 -45.438  45.822  0.00  0.00    +0.000 C 
ATOM     41  C   UNL     1      53.116 -45.327  47.048  0.00  0.00    +0.000 C 
ATOM     42  C   UNL     1      52.785 -45.120  44.406  0.00  0.00    +0.000 C 
ATOM     43  C   UNL     1      54.442 -44.851  46.819  0.00  0.00    +0.000 C 
ATOM     44  C   UNL     1      54.131 -44.584  44.624  0.00  0.00    +0.000 C 
ATOM     45  C   UNL     1      55.081 -44.407  45.648  0.00  0.00    +0.000 C 
ATOM     46  C   UNL     1      52.863 -46.080  48.357  0.00  0.00    +0.000 C 
ATOM     47  C   UNL     1      52.839 -46.479  43.666  0.00  0.00    +0.000 C 
ATOM     48  C   UNL     1      51.808 -44.124  43.744  0.00  0.00    +0.000 C 
BRANCH  45  49
ATOM     49  O   UNL     1      56.412 -44.587  45.422  0.00  0.00    +0.000 OA
ATOM     50  H   UNL     1      56.917 -44.699  46.247  0.00  0.00    +0.000 HD
ENDBRANCH  45  49
ENDBRANCH  38  40
ENDBRANCH  37  38
ENDBRANCH  34  37
ENDBRANCH  33  34
ENDBRANCH  31  33
ENDBRANCH  29  32
ENDBRANCH  28  29
ENDBRANCH   1  28
TORSDOF 19
ENDMDL
MODEL 7
REMARK VINA RESULT:      -6.7      6.024     12.817
REMARK  Name = 5281239_Fucoxanthin.pdbqt.pdb
REMARK  19 active torsions:
REMARK  status: ('A' for Active; 'I' for Inactive)
REMARK    1  A    between atoms: C_1  and  C_5
REMARK    2  A    between atoms: C_2  and  C_26
REMARK    3  A    between atoms: C_3  and  C_5
REMARK    4  A    between atoms: C_3  and  C_7
REMARK    5  A    between atoms: C_6  and  C_10
REMARK    6  A    between atoms: C_8  and  C_10
REMARK    7  A    between atoms: C_8  and  C_12
REMARK    8  A    between atoms: C_12  and  C_13
REMARK    9  A    between atoms: C_13  and  C_15
REMARK   10  A    between atoms: C_20  and  O_24
REMARK   11  A    between atoms: C_26  and  C_27
REMARK   12  A    between atoms: C_27  and  C_30
REMARK   13  A    between atoms: C_29  and  C_33
REMARK   14  A    between atoms: C_31  and  C_33
REMARK   15  A    between atoms: C_31  and  C_44
REMARK   16  A    between atoms: C_35  and  O_45
REMARK   17  A    between atoms: C_37  and  O_47
REMARK   18  A    between atoms: C_39  and  C_43
REMARK   19  A    between atoms: O_47  and  C_49
REMARK                            x       y       z     vdW  Elec       q    Type
REMARK                         _______ _______ _______ _____ _____    ______ ____
ROOT
ATOM      1  C   UNL     1      53.459 -54.325  47.595  0.00  0.00    +0.000 C 
ATOM      2  C   UNL     1      53.563 -53.384  46.857  0.00  0.00    +0.000 C 
ENDROOT
BRANCH   2   3
ATOM      3  C   UNL     1      53.701 -52.179  45.919  0.00  0.00    +0.000 C 
BRANCH   3   4
ATOM      4  C   UNL     1      53.821 -51.159  45.129  0.00  0.00    +0.000 C 
ATOM      5  C   UNL     1      54.192 -51.366  43.692  0.00  0.00    +0.000 C 
BRANCH   4   7
ATOM      6  C   UNL     1      53.321 -48.750  46.021  0.00  0.00    +0.000 C 
ATOM      7  C   UNL     1      53.552 -49.856  45.612  0.00  0.00    +0.000 C 
BRANCH   6   8
ATOM      8  C   UNL     1      53.021 -47.341  46.544  0.00  0.00    +0.000 C 
BRANCH   8   9
ATOM      9  C   UNL     1      52.768 -46.146  46.978  0.00  0.00    +0.000 C 
ATOM     10  C   UNL     1      53.636 -44.996  46.567  0.00  0.00    +0.000 C 
BRANCH   9  12
ATOM     11  C   UNL     1      50.868 -45.781  48.744  0.00  0.00    +0.000 C 
ATOM     12  C   UNL     1      51.740 -45.945  47.933  0.00  0.00    +0.000 C 
BRANCH  11  18
ATOM     13  C   UNL     1      49.362 -46.753  50.496  0.00  0.00    +0.000 C 
ATOM     14  C   UNL     1      49.243 -44.247  49.807  0.00  0.00    +0.000 C 
ATOM     15  C   UNL     1      48.528 -46.244  51.593  0.00  0.00    +0.000 C 
ATOM     16  C   UNL     1      47.993 -45.025  52.049  0.00  0.00    +0.000 C 
ATOM     17  C   UNL     1      48.464 -44.164  51.037  0.00  0.00    +0.000 C 
ATOM     18  C   UNL     1      49.908 -45.603  49.631  0.00  0.00    +0.000 C 
ATOM     19  C   UNL     1      48.528 -47.699  49.590  0.00  0.00    +0.000 C 
ATOM     20  C   UNL     1      50.558 -47.535  51.119  0.00  0.00    +0.000 C 
ATOM     21  C   UNL     1      48.394 -43.892  48.583  0.00  0.00    +0.000 C 
BRANCH  14  22
ATOM     22  O   UNL     1      50.238 -43.248  49.862  0.00  0.00    +0.000 OA
ATOM     23  H   UNL     1      51.028 -43.775  50.081  0.00  0.00    +0.000 HD
ENDBRANCH  14  22
BRANCH  16  24
ATOM     24  O   UNL     1      46.664 -44.977  52.450  0.00  0.00    +0.000 OA
BRANCH  24  26
ATOM     25  O   UNL     1      45.681 -45.672  50.437  0.00  0.00    +0.000 OA
ATOM     26  C   UNL     1      45.905 -45.746  51.631  0.00  0.00    +0.000 C 
ATOM     27  C   UNL     1      45.216 -46.872  52.318  0.00  0.00    +0.000 C 
ENDBRANCH  24  26
ENDBRANCH  16  24
ENDBRANCH  11  18
ENDBRANCH   9  12
ENDBRANCH   8   9
ENDBRANCH   6   8
ENDBRANCH   4   7
ENDBRANCH   3   4
ENDBRANCH   2   3
BRANCH   1  28
ATOM     28  C   UNL     1      53.334 -55.523  48.542  0.00  0.00    +0.000 C 
BRANCH  28  29
ATOM     29  C   UNL     1      53.219 -56.531  49.348  0.00  0.00    +0.000 C 
ATOM     30  C   UNL     1      53.425 -57.925  48.839  0.00  0.00    +0.000 C 
BRANCH  29  32
ATOM     31  C   UNL     1      52.549 -56.119  51.843  0.00  0.00    +0.000 C 
ATOM     32  C   UNL     1      52.862 -56.314  50.700  0.00  0.00    +0.000 C 
BRANCH  31  33
ATOM     33  C   UNL     1      52.142 -55.857  53.298  0.00  0.00    +0.000 C 
BRANCH  33  34
ATOM     34  C   UNL     1      51.789 -55.630  54.529  0.00  0.00    +0.000 C 
ATOM     35  C   UNL     1      52.410 -56.514  55.591  0.00  0.00    +0.000 C 
BRANCH  34  37
ATOM     36  O   UNL     1      50.578 -53.614  54.105  0.00  0.00    +0.000 OA
ATOM     37  C   UNL     1      50.780 -54.572  54.844  0.00  0.00    +0.000 C 
BRANCH  37  38
ATOM     38  C   UNL     1      49.987 -54.637  56.049  0.00  0.00    +0.000 C 
BRANCH  38  40
ATOM     39  O   UNL     1      49.259 -53.374  57.924  0.00  0.00    +0.000 OA
ATOM     40  C   UNL     1      49.198 -54.669  57.265  0.00  0.00    +0.000 C 
ATOM     41  C   UNL     1      47.981 -53.729  57.399  0.00  0.00    +0.000 C 
ATOM     42  C   UNL     1      49.261 -55.933  58.196  0.00  0.00    +0.000 C 
ATOM     43  C   UNL     1      47.038 -54.024  58.429  0.00  0.00    +0.000 C 
ATOM     44  C   UNL     1      48.163 -55.810  59.158  0.00  0.00    +0.000 C 
ATOM     45  C   UNL     1      47.021 -55.027  59.414  0.00  0.00    +0.000 C 
ATOM     46  C   UNL     1      47.512 -52.808  56.269  0.00  0.00    +0.000 C 
ATOM     47  C   UNL     1      49.049 -57.147  57.259  0.00  0.00    +0.000 C 
ATOM     48  C   UNL     1      50.666 -55.919  58.836  0.00  0.00    +0.000 C 
BRANCH  45  49
ATOM     49  O   UNL     1      45.868 -55.583  59.880  0.00  0.00    +0.000 OA
ATOM     50  H   UNL     1      45.404 -56.101  59.199  0.00  0.00    +0.000 HD
ENDBRANCH  45  49
ENDBRANCH  38  40
ENDBRANCH  37  38
ENDBRANCH  34  37
ENDBRANCH  33  34
ENDBRANCH  31  33
ENDBRANCH  29  32
ENDBRANCH  28  29
ENDBRANCH   1  28
TORSDOF 19
ENDMDL
MODEL 8
REMARK VINA RESULT:      -6.7      6.798     14.776
REMARK  Name = 5281239_Fucoxanthin.pdbqt.pdb
REMARK  19 active torsions:
REMARK  status: ('A' for Active; 'I' for Inactive)
REMARK    1  A    between atoms: C_1  and  C_5
REMARK    2  A    between atoms: C_2  and  C_26
REMARK    3  A    between atoms: C_3  and  C_5
REMARK    4  A    between atoms: C_3  and  C_7
REMARK    5  A    between atoms: C_6  and  C_10
REMARK    6  A    between atoms: C_8  and  C_10
REMARK    7  A    between atoms: C_8  and  C_12
REMARK    8  A    between atoms: C_12  and  C_13
REMARK    9  A    between atoms: C_13  and  C_15
REMARK   10  A    between atoms: C_20  and  O_24
REMARK   11  A    between atoms: C_26  and  C_27
REMARK   12  A    between atoms: C_27  and  C_30
REMARK   13  A    between atoms: C_29  and  C_33
REMARK   14  A    between atoms: C_31  and  C_33
REMARK   15  A    between atoms: C_31  and  C_44
REMARK   16  A    between atoms: C_35  and  O_45
REMARK   17  A    between atoms: C_37  and  O_47
REMARK   18  A    between atoms: C_39  and  C_43
REMARK   19  A    between atoms: O_47  and  C_49
REMARK                            x       y       z     vdW  Elec       q    Type
REMARK                         _______ _______ _______ _____ _____    ______ ____
ROOT
ATOM      1  C   UNL     1      46.042 -50.260  51.946  0.00  0.00    +0.000 C 
ATOM      2  C   UNL     1      46.988 -49.536  51.807  0.00  0.00    +0.000 C 
ENDROOT
BRANCH   2   3
ATOM      3  C   UNL     1      48.193 -48.605  51.626  0.00  0.00    +0.000 C 
BRANCH   3   4
ATOM      4  C   UNL     1      49.209 -47.815  51.473  0.00  0.00    +0.000 C 
ATOM      5  C   UNL     1      50.601 -48.350  51.620  0.00  0.00    +0.000 C 
BRANCH   4   7
ATOM      6  C   UNL     1      48.828 -45.310  50.819  0.00  0.00    +0.000 C 
ATOM      7  C   UNL     1      49.003 -46.461  51.117  0.00  0.00    +0.000 C 
BRANCH   6   8
ATOM      8  C   UNL     1      48.608 -43.841  50.441  0.00  0.00    +0.000 C 
BRANCH   8   9
ATOM      9  C   UNL     1      48.418 -42.597  50.131  0.00  0.00    +0.000 C 
ATOM     10  C   UNL     1      47.830 -41.652  51.133  0.00  0.00    +0.000 C 
BRANCH   9  12
ATOM     11  C   UNL     1      48.866 -41.785  47.681  0.00  0.00    +0.000 C 
ATOM     12  C   UNL     1      48.657 -42.157  48.805  0.00  0.00    +0.000 C 
BRANCH  11  18
ATOM     13  C   UNL     1      48.988 -39.894  46.041  0.00  0.00    +0.000 C 
ATOM     14  C   UNL     1      49.436 -42.359  45.342  0.00  0.00    +0.000 C 
ATOM     15  C   UNL     1      49.578 -39.662  44.716  0.00  0.00    +0.000 C 
ATOM     16  C   UNL     1      50.137 -40.397  43.653  0.00  0.00    +0.000 C 
ATOM     17  C   UNL     1      49.980 -41.704  44.159  0.00  0.00    +0.000 C 
ATOM     18  C   UNL     1      49.098 -41.373  46.450  0.00  0.00    +0.000 C 
ATOM     19  C   UNL     1      47.487 -39.495  46.030  0.00  0.00    +0.000 C 
ATOM     20  C   UNL     1      49.761 -39.020  47.075  0.00  0.00    +0.000 C 
ATOM     21  C   UNL     1      48.221 -43.225  44.992  0.00  0.00    +0.000 C 
BRANCH  14  22
ATOM     22  O   UNL     1      50.406 -43.268  45.813  0.00  0.00    +0.000 OA
ATOM     23  H   UNL     1      50.885 -43.482  44.991  0.00  0.00    +0.000 HD
ENDBRANCH  14  22
BRANCH  16  24
ATOM     24  O   UNL     1      49.759 -40.097  42.351  0.00  0.00    +0.000 OA
BRANCH  24  26
ATOM     25  O   UNL     1      51.182 -41.200  40.846  0.00  0.00    +0.000 OA
ATOM     26  C   UNL     1      50.816 -40.251  41.514  0.00  0.00    +0.000 C 
ATOM     27  C   UNL     1      51.686 -39.049  41.406  0.00  0.00    +0.000 C 
ENDBRANCH  24  26
ENDBRANCH  16  24
ENDBRANCH  11  18
ENDBRANCH   9  12
ENDBRANCH   8   9
ENDBRANCH   6   8
ENDBRANCH   4   7
ENDBRANCH   3   4
ENDBRANCH   2   3
BRANCH   1  28
ATOM     28  C   UNL     1      44.828 -51.180  52.117  0.00  0.00    +0.000 C 
BRANCH  28  29
ATOM     29  C   UNL     1      43.797 -51.954  52.251  0.00  0.00    +0.000 C 
ATOM     30  C   UNL     1      42.763 -52.020  51.168  0.00  0.00    +0.000 C 
BRANCH  29  32
ATOM     31  C   UNL     1      43.503 -53.351  54.443  0.00  0.00    +0.000 C 
ATOM     32  C   UNL     1      43.632 -52.705  53.439  0.00  0.00    +0.000 C 
BRANCH  31  33
ATOM     33  C   UNL     1      43.351 -54.185  55.721  0.00  0.00    +0.000 C 
BRANCH  33  34
ATOM     34  C   UNL     1      43.213 -54.890  56.805  0.00  0.00    +0.000 C 
ATOM     35  C   UNL     1      41.927 -55.677  56.949  0.00  0.00    +0.000 C 
BRANCH  34  37
ATOM     36  O   UNL     1      44.027 -55.103  59.041  0.00  0.00    +0.000 OA
ATOM     37  C   UNL     1      44.270 -54.866  57.862  0.00  0.00    +0.000 C 
BRANCH  37  38
ATOM     38  C   UNL     1      45.643 -54.562  57.534  0.00  0.00    +0.000 C 
BRANCH  38  40
ATOM     39  O   UNL     1      47.576 -53.390  58.262  0.00  0.00    +0.000 OA
ATOM     40  C   UNL     1      47.015 -54.223  57.210  0.00  0.00    +0.000 C 
ATOM     41  C   UNL     1      48.149 -54.691  58.147  0.00  0.00    +0.000 C 
ATOM     42  C   UNL     1      47.389 -53.835  55.734  0.00  0.00    +0.000 C 
ATOM     43  C   UNL     1      49.479 -54.651  57.633  0.00  0.00    +0.000 C 
ATOM     44  C   UNL     1      48.851 -53.840  55.649  0.00  0.00    +0.000 C 
ATOM     45  C   UNL     1      49.985 -54.212  56.397  0.00  0.00    +0.000 C 
ATOM     46  C   UNL     1      47.903 -55.573  59.375  0.00  0.00    +0.000 C 
ATOM     47  C   UNL     1      46.774 -54.945  54.847  0.00  0.00    +0.000 C 
ATOM     48  C   UNL     1      46.747 -52.453  55.483  0.00  0.00    +0.000 C 
BRANCH  45  49
ATOM     49  O   UNL     1      51.074 -54.776  55.804  0.00  0.00    +0.000 OA
ATOM     50  H   UNL     1      50.875 -55.125  54.917  0.00  0.00    +0.000 HD
ENDBRANCH  45  49
ENDBRANCH  38  40
ENDBRANCH  37  38
ENDBRANCH  34  37
ENDBRANCH  33  34
ENDBRANCH  31  33
ENDBRANCH  29  32
ENDBRANCH  28  29
ENDBRANCH   1  28
TORSDOF 19
ENDMDL
MODEL 9
REMARK VINA RESULT:      -6.7     10.002     18.114
REMARK  Name = 5281239_Fucoxanthin.pdbqt.pdb
REMARK  19 active torsions:
REMARK  status: ('A' for Active; 'I' for Inactive)
REMARK    1  A    between atoms: C_1  and  C_5
REMARK    2  A    between atoms: C_2  and  C_26
REMARK    3  A    between atoms: C_3  and  C_5
REMARK    4  A    between atoms: C_3  and  C_7
REMARK    5  A    between atoms: C_6  and  C_10
REMARK    6  A    between atoms: C_8  and  C_10
REMARK    7  A    between atoms: C_8  and  C_12
REMARK    8  A    between atoms: C_12  and  C_13
REMARK    9  A    between atoms: C_13  and  C_15
REMARK   10  A    between atoms: C_20  and  O_24
REMARK   11  A    between atoms: C_26  and  C_27
REMARK   12  A    between atoms: C_27  and  C_30
REMARK   13  A    between atoms: C_29  and  C_33
REMARK   14  A    between atoms: C_31  and  C_33
REMARK   15  A    between atoms: C_31  and  C_44
REMARK   16  A    between atoms: C_35  and  O_45
REMARK   17  A    between atoms: C_37  and  O_47
REMARK   18  A    between atoms: C_39  and  C_43
REMARK   19  A    between atoms: O_47  and  C_49
REMARK                            x       y       z     vdW  Elec       q    Type
REMARK                         _______ _______ _______ _____ _____    ______ ____
ROOT
ATOM      1  C   UNL     1      48.201 -41.524  51.074  0.00  0.00    +0.000 C 
ATOM      2  C   UNL     1      48.372 -40.345  50.925  0.00  0.00    +0.000 C 
ENDROOT
BRANCH   2   3
ATOM      3  C   UNL     1      48.594 -38.841  50.729  0.00  0.00    +0.000 C 
BRANCH   3   4
ATOM      4  C   UNL     1      48.782 -37.570  50.559  0.00  0.00    +0.000 C 
ATOM      5  C   UNL     1      48.982 -36.678  51.746  0.00  0.00    +0.000 C 
BRANCH   4   7
ATOM      6  C   UNL     1      48.902 -36.580  48.140  0.00  0.00    +0.000 C 
ATOM      7  C   UNL     1      48.849 -37.035  49.250  0.00  0.00    +0.000 C 
BRANCH   6   8
ATOM      8  C   UNL     1      48.970 -35.994  46.725  0.00  0.00    +0.000 C 
BRANCH   8   9
ATOM      9  C   UNL     1      49.034 -35.506  45.525  0.00  0.00    +0.000 C 
ATOM     10  C   UNL     1      48.429 -36.250  44.375  0.00  0.00    +0.000 C 
BRANCH   9  12
ATOM     11  C   UNL     1      50.415 -33.324  45.081  0.00  0.00    +0.000 C 
ATOM     12  C   UNL     1      49.778 -34.324  45.285  0.00  0.00    +0.000 C 
BRANCH  11  18
ATOM     13  C   UNL     1      51.422 -31.211  45.975  0.00  0.00    +0.000 C 
ATOM     14  C   UNL     1      51.615 -31.882  43.469  0.00  0.00    +0.000 C 
ATOM     15  C   UNL     1      52.452 -30.253  45.551  0.00  0.00    +0.000 C 
ATOM     16  C   UNL     1      53.188 -29.917  44.398  0.00  0.00    +0.000 C 
ATOM     17  C   UNL     1      52.634 -30.838  43.485  0.00  0.00    +0.000 C 
ATOM     18  C   UNL     1      51.115 -32.229  44.862  0.00  0.00    +0.000 C 
ATOM     19  C   UNL     1      50.111 -30.458  46.330  0.00  0.00    +0.000 C 
ATOM     20  C   UNL     1      51.953 -31.970  47.229  0.00  0.00    +0.000 C 
ATOM     21  C   UNL     1      50.449 -31.510  42.547  0.00  0.00    +0.000 C 
BRANCH  14  22
ATOM     22  O   UNL     1      52.188 -33.030  42.884  0.00  0.00    +0.000 OA
ATOM     23  H   UNL     1      51.639 -33.737  43.268  0.00  0.00    +0.000 HD
ENDBRANCH  14  22
BRANCH  16  24
ATOM     24  O   UNL     1      53.327 -28.580  44.050  0.00  0.00    +0.000 OA
BRANCH  24  26
ATOM     25  O   UNL     1      54.127 -27.140  45.721  0.00  0.00    +0.000 OA
ATOM     26  C   UNL     1      54.244 -27.986  44.853  0.00  0.00    +0.000 C 
ATOM     27  C   UNL     1      55.642 -28.441  44.622  0.00  0.00    +0.000 C 
ENDBRANCH  24  26
ENDBRANCH  16  24
ENDBRANCH  11  18
ENDBRANCH   9  12
ENDBRANCH   8   9
ENDBRANCH   6   8
ENDBRANCH   4   7
ENDBRANCH   3   4
ENDBRANCH   2   3
BRANCH   1  28
ATOM     28  C   UNL     1      47.986 -43.031  51.254  0.00  0.00    +0.000 C 
BRANCH  28  29
ATOM     29  C   UNL     1      47.815 -44.305  51.413  0.00  0.00    +0.000 C 
ATOM     30  C   UNL     1      47.602 -44.868  52.785  0.00  0.00    +0.000 C 
BRANCH  29  32
ATOM     31  C   UNL     1      47.900 -45.905  49.344  0.00  0.00    +0.000 C 
ATOM     32  C   UNL     1      47.868 -45.167  50.291  0.00  0.00    +0.000 C 
BRANCH  31  33
ATOM     33  C   UNL     1      47.929 -46.855  48.141  0.00  0.00    +0.000 C 
BRANCH  33  34
ATOM     34  C   UNL     1      47.954 -47.653  47.115  0.00  0.00    +0.000 C 
ATOM     35  C   UNL     1      46.869 -48.708  47.044  0.00  0.00    +0.000 C 
BRANCH  34  37
ATOM     36  O   UNL     1      48.848 -47.751  44.901  0.00  0.00    +0.000 OA
ATOM     37  C   UNL     1      49.041 -47.539  46.094  0.00  0.00    +0.000 C 
BRANCH  37  38
ATOM     38  C   UNL     1      50.382 -47.167  46.476  0.00  0.00    +0.000 C 
BRANCH  38  40
ATOM     39  O   UNL     1      52.627 -47.890  46.756  0.00  0.00    +0.000 OA
ATOM     40  C   UNL     1      51.719 -46.760  46.865  0.00  0.00    +0.000 C 
ATOM     41  C   UNL     1      52.860 -46.832  45.829  0.00  0.00    +0.000 C 
ATOM     42  C   UNL     1      51.910 -45.824  48.111  0.00  0.00    +0.000 C 
ATOM     43  C   UNL     1      54.056 -46.111  46.124  0.00  0.00    +0.000 C 
ATOM     44  C   UNL     1      53.296 -45.350  48.081  0.00  0.00    +0.000 C 
ATOM     45  C   UNL     1      54.427 -45.344  47.242  0.00  0.00    +0.000 C 
ATOM     46  C   UNL     1      52.637 -47.243  44.370  0.00  0.00    +0.000 C 
ATOM     47  C   UNL     1      50.916 -44.655  47.907  0.00  0.00    +0.000 C 
ATOM     48  C   UNL     1      51.565 -46.685  49.346  0.00  0.00    +0.000 C 
BRANCH  45  49
ATOM     49  O   UNL     1      55.240 -44.255  47.152  0.00  0.00    +0.000 OA
ATOM     50  H   UNL     1      56.041 -44.432  46.627  0.00  0.00    +0.000 HD
ENDBRANCH  45  49
ENDBRANCH  38  40
ENDBRANCH  37  38
ENDBRANCH  34  37
ENDBRANCH  33  34
ENDBRANCH  31  33
ENDBRANCH  29  32
ENDBRANCH  28  29
ENDBRANCH   1  28
TORSDOF 19
ENDMDL
