MODEL 1
REMARK VINA RESULT:      -8.1      0.000      0.000
REMARK  Name = 5281224_Astaxanthin.pdbqt.pdb
REMARK  16 active torsions:
REMARK  status: ('A' for Active; 'I' for Inactive)
REMARK    1  A    between atoms: C_1  and  C_5
REMARK    2  A    between atoms: C_2  and  C_27
REMARK    3  A    between atoms: C_3  and  C_5
REMARK    4  A    between atoms: C_3  and  C_7
REMARK    5  A    between atoms: C_6  and  C_10
REMARK    6  A    between atoms: C_8  and  C_10
REMARK    7  A    between atoms: C_8  and  C_12
REMARK    8  A    between atoms: C_11  and  C_16
REMARK    9  A    between atoms: C_17  and  O_23
REMARK   10  A    between atoms: C_25  and  C_27
REMARK   11  A    between atoms: C_25  and  C_29
REMARK   12  A    between atoms: C_28  and  C_32
REMARK   13  A    between atoms: C_30  and  C_32
REMARK   14  A    between atoms: C_30  and  C_34
REMARK   15  A    between atoms: C_33  and  C_38
REMARK   16  A    between atoms: C_39  and  O_45
REMARK                            x       y       z     vdW  Elec       q    Type
REMARK                         _______ _______ _______ _____ _____    ______ ____
ROOT
ATOM      1  C   UNL     1      54.466 -55.208  54.980  0.00  0.00    +0.000 C 
ATOM      2  C   UNL     1      53.431 -55.248  54.373  0.00  0.00    +0.000 C 
ENDROOT
BRANCH   2   3
ATOM      3  C   UNL     1      52.113 -55.296  53.591  0.00  0.00    +0.000 C 
BRANCH   3   4
ATOM      4  C   UNL     1      50.999 -55.330  52.929  0.00  0.00    +0.000 C 
ATOM      5  C   UNL     1      50.762 -56.412  51.919  0.00  0.00    +0.000 C 
BRANCH   4   7
ATOM      6  C   UNL     1      49.228 -53.431  53.244  0.00  0.00    +0.000 C 
ATOM      7  C   UNL     1      50.042 -54.302  53.102  0.00  0.00    +0.000 C 
BRANCH   6   8
ATOM      8  C   UNL     1      48.188 -52.319  53.424  0.00  0.00    +0.000 C 
BRANCH   8   9
ATOM      9  C   UNL     1      47.313 -51.373  53.579  0.00  0.00    +0.000 C 
ATOM     10  C   UNL     1      46.164 -51.566  54.521  0.00  0.00    +0.000 C 
BRANCH   9  12
ATOM     11  C   UNL     1      47.736 -49.043  52.459  0.00  0.00    +0.000 C 
ATOM     12  C   UNL     1      47.531 -50.110  52.977  0.00  0.00    +0.000 C 
BRANCH  11  16
ATOM     13  O   UNL     1      46.601 -44.332  51.728  0.00  0.00    +0.000 OA
ATOM     14  C   UNL     1      49.227 -47.663  50.890  0.00  0.00    +0.000 C 
ATOM     15  C   UNL     1      49.238 -46.289  50.420  0.00  0.00    +0.000 C 
ATOM     16  C   UNL     1      47.999 -47.763  51.833  0.00  0.00    +0.000 C 
ATOM     17  C   UNL     1      48.484 -45.132  50.590  0.00  0.00    +0.000 C 
ATOM     18  C   UNL     1      50.511 -47.962  51.699  0.00  0.00    +0.000 C 
ATOM     19  C   UNL     1      49.042 -48.632  49.701  0.00  0.00    +0.000 C 
ATOM     20  C   UNL     1      47.178 -46.702  52.090  0.00  0.00    +0.000 C 
ATOM     21  C   UNL     1      47.330 -45.289  51.503  0.00  0.00    +0.000 C 
ATOM     22  C   UNL     1      45.998 -46.901  53.051  0.00  0.00    +0.000 C 
BRANCH  17  23
ATOM     23  O   UNL     1      48.784 -43.947  49.973  0.00  0.00    +0.000 OA
ATOM     24  H   UNL     1      48.083 -43.284  50.138  0.00  0.00    +0.000 HD
ENDBRANCH  17  23
ENDBRANCH  11  16
ENDBRANCH   9  12
ENDBRANCH   8   9
ENDBRANCH   6   8
ENDBRANCH   4   7
ENDBRANCH   3   4
ENDBRANCH   2   3
BRANCH   1  25
ATOM     25  C   UNL     1      55.792 -55.155  55.746  0.00  0.00    +0.000 C 
BRANCH  25  26
ATOM     26  C   UNL     1      56.913 -55.105  56.395  0.00  0.00    +0.000 C 
ATOM     27  C   UNL     1      58.054 -55.986  55.983  0.00  0.00    +0.000 C 
BRANCH  26  29
ATOM     28  C   UNL     1      57.134 -53.590  58.516  0.00  0.00    +0.000 C 
ATOM     29  C   UNL     1      57.031 -54.284  57.541  0.00  0.00    +0.000 C 
BRANCH  28  30
ATOM     30  C   UNL     1      57.267 -52.704  59.762  0.00  0.00    +0.000 C 
BRANCH  30  31
ATOM     31  C   UNL     1      57.386 -51.954  60.811  0.00  0.00    +0.000 C 
ATOM     32  C   UNL     1      57.005 -52.487  62.159  0.00  0.00    +0.000 C 
BRANCH  31  34
ATOM     33  C   UNL     1      58.563 -49.623  60.593  0.00  0.00    +0.000 C 
ATOM     34  C   UNL     1      58.024 -50.693  60.705  0.00  0.00    +0.000 C 
BRANCH  33  38
ATOM     35  O   UNL     1      60.910 -46.327  57.829  0.00  0.00    +0.000 OA
ATOM     36  C   UNL     1      59.278 -47.412  61.683  0.00  0.00    +0.000 C 
ATOM     37  C   UNL     1      59.970 -46.216  61.235  0.00  0.00    +0.000 C 
ATOM     38  C   UNL     1      59.212 -48.335  60.440  0.00  0.00    +0.000 C 
ATOM     39  C   UNL     1      60.542 -45.731  60.062  0.00  0.00    +0.000 C 
ATOM     40  C   UNL     1      57.839 -47.060  62.129  0.00  0.00    +0.000 C 
ATOM     41  C   UNL     1      60.087 -48.109  62.799  0.00  0.00    +0.000 C 
ATOM     42  C   UNL     1      59.729 -47.981  59.227  0.00  0.00    +0.000 C 
ATOM     43  C   UNL     1      60.443 -46.656  58.912  0.00  0.00    +0.000 C 
ATOM     44  C   UNL     1      59.598 -48.962  58.054  0.00  0.00    +0.000 C 
BRANCH  39  45
ATOM     45  O   UNL     1      61.141 -44.503  59.976  0.00  0.00    +0.000 OA
ATOM     46  H   UNL     1      61.050 -44.136  59.073  0.00  0.00    +0.000 HD
ENDBRANCH  39  45
ENDBRANCH  33  38
ENDBRANCH  31  34
ENDBRANCH  30  31
ENDBRANCH  28  30
ENDBRANCH  26  29
ENDBRANCH  25  26
ENDBRANCH   1  25
TORSDOF 16
ENDMDL
MODEL 2
REMARK VINA RESULT:      -7.6      4.115      6.381
REMARK  Name = 5281224_Astaxanthin.pdbqt.pdb
REMARK  16 active torsions:
REMARK  status: ('A' for Active; 'I' for Inactive)
REMARK    1  A    between atoms: C_1  and  C_5
REMARK    2  A    between atoms: C_2  and  C_27
REMARK    3  A    between atoms: C_3  and  C_5
REMARK    4  A    between atoms: C_3  and  C_7
REMARK    5  A    between atoms: C_6  and  C_10
REMARK    6  A    between atoms: C_8  and  C_10
REMARK    7  A    between atoms: C_8  and  C_12
REMARK    8  A    between atoms: C_11  and  C_16
REMARK    9  A    between atoms: C_17  and  O_23
REMARK   10  A    between atoms: C_25  and  C_27
REMARK   11  A    between atoms: C_25  and  C_29
REMARK   12  A    between atoms: C_28  and  C_32
REMARK   13  A    between atoms: C_30  and  C_32
REMARK   14  A    between atoms: C_30  and  C_34
REMARK   15  A    between atoms: C_33  and  C_38
REMARK   16  A    between atoms: C_39  and  O_45
REMARK                            x       y       z     vdW  Elec       q    Type
REMARK                         _______ _______ _______ _____ _____    ______ ____
ROOT
ATOM      1  C   UNL     1      54.734 -55.261  54.924  0.00  0.00    +0.000 C 
ATOM      2  C   UNL     1      53.726 -55.301  54.274  0.00  0.00    +0.000 C 
ENDROOT
BRANCH   2   3
ATOM      3  C   UNL     1      52.442 -55.357  53.437  0.00  0.00    +0.000 C 
BRANCH   3   4
ATOM      4  C   UNL     1      51.359 -55.401  52.726  0.00  0.00    +0.000 C 
ATOM      5  C   UNL     1      51.356 -56.124  51.413  0.00  0.00    +0.000 C 
BRANCH   4   7
ATOM      6  C   UNL     1      49.226 -54.103  53.507  0.00  0.00    +0.000 C 
ATOM      7  C   UNL     1      50.205 -54.700  53.150  0.00  0.00    +0.000 C 
BRANCH   6   8
ATOM      8  C   UNL     1      47.976 -53.340  53.959  0.00  0.00    +0.000 C 
BRANCH   8   9
ATOM      9  C   UNL     1      46.915 -52.701  54.346  0.00  0.00    +0.000 C 
ATOM     10  C   UNL     1      46.698 -51.283  53.914  0.00  0.00    +0.000 C 
BRANCH   9  12
ATOM     11  C   UNL     1      45.044 -53.983  55.656  0.00  0.00    +0.000 C 
ATOM     12  C   UNL     1      45.895 -53.391  55.046  0.00  0.00    +0.000 C 
BRANCH  11  16
ATOM     13  O   UNL     1      43.458 -56.044  59.810  0.00  0.00    +0.000 OA
ATOM     14  C   UNL     1      42.724 -55.083  55.659  0.00  0.00    +0.000 C 
ATOM     15  C   UNL     1      41.913 -55.779  56.642  0.00  0.00    +0.000 C 
ATOM     16  C   UNL     1      44.030 -54.701  56.403  0.00  0.00    +0.000 C 
ATOM     17  C   UNL     1      42.006 -56.159  57.977  0.00  0.00    +0.000 C 
ATOM     18  C   UNL     1      42.011 -53.791  55.196  0.00  0.00    +0.000 C 
ATOM     19  C   UNL     1      43.060 -56.024  54.481  0.00  0.00    +0.000 C 
ATOM     20  C   UNL     1      44.249 -55.010  57.716  0.00  0.00    +0.000 C 
ATOM     21  C   UNL     1      43.273 -55.764  58.633  0.00  0.00    +0.000 C 
ATOM     22  C   UNL     1      45.570 -54.573  58.364  0.00  0.00    +0.000 C 
BRANCH  17  23
ATOM     23  O   UNL     1      41.013 -56.835  58.633  0.00  0.00    +0.000 OA
ATOM     24  H   UNL     1      40.986 -57.772  58.350  0.00  0.00    +0.000 HD
ENDBRANCH  17  23
ENDBRANCH  11  16
ENDBRANCH   9  12
ENDBRANCH   8   9
ENDBRANCH   6   8
ENDBRANCH   4   7
ENDBRANCH   3   4
ENDBRANCH   2   3
BRANCH   1  25
ATOM     25  C   UNL     1      56.026 -55.217  55.748  0.00  0.00    +0.000 C 
BRANCH  25  26
ATOM     26  C   UNL     1      57.116 -55.177  56.448  0.00  0.00    +0.000 C 
ATOM     27  C   UNL     1      58.242 -56.115  56.131  0.00  0.00    +0.000 C 
BRANCH  26  29
ATOM     28  C   UNL     1      57.292 -53.576  58.509  0.00  0.00    +0.000 C 
ATOM     29  C   UNL     1      57.209 -54.312  57.563  0.00  0.00    +0.000 C 
BRANCH  28  30
ATOM     30  C   UNL     1      57.400 -52.637  59.718  0.00  0.00    +0.000 C 
BRANCH  30  31
ATOM     31  C   UNL     1      57.493 -51.851  60.743  0.00  0.00    +0.000 C 
ATOM     32  C   UNL     1      57.079 -52.338  62.099  0.00  0.00    +0.000 C 
BRANCH  31  34
ATOM     33  C   UNL     1      58.657 -49.516  60.501  0.00  0.00    +0.000 C 
ATOM     34  C   UNL     1      58.133 -50.594  60.609  0.00  0.00    +0.000 C 
BRANCH  33  38
ATOM     35  O   UNL     1      60.882 -46.089  57.795  0.00  0.00    +0.000 OA
ATOM     36  C   UNL     1      59.334 -47.318  61.641  0.00  0.00    +0.000 C 
ATOM     37  C   UNL     1      59.990 -46.094  61.215  0.00  0.00    +0.000 C 
ATOM     38  C   UNL     1      59.272 -48.209  60.373  0.00  0.00    +0.000 C 
ATOM     39  C   UNL     1      60.532 -45.563  60.048  0.00  0.00    +0.000 C 
ATOM     40  C   UNL     1      57.894 -47.014  62.116  0.00  0.00    +0.000 C 
ATOM     41  C   UNL     1      60.176 -48.025  62.726  0.00  0.00    +0.000 C 
ATOM     42  C   UNL     1      59.763 -47.810  59.164  0.00  0.00    +0.000 C 
ATOM     43  C   UNL     1      60.439 -46.459  58.875  0.00  0.00    +0.000 C 
ATOM     44  C   UNL     1      59.638 -48.762  57.967  0.00  0.00    +0.000 C 
BRANCH  39  45
ATOM     45  O   UNL     1      61.099 -44.319  59.987  0.00  0.00    +0.000 OA
ATOM     46  H   UNL     1      60.532 -43.657  60.433  0.00  0.00    +0.000 HD
ENDBRANCH  39  45
ENDBRANCH  33  38
ENDBRANCH  31  34
ENDBRANCH  30  31
ENDBRANCH  28  30
ENDBRANCH  26  29
ENDBRANCH  25  26
ENDBRANCH   1  25
TORSDOF 16
ENDMDL
MODEL 3
REMARK VINA RESULT:      -7.3      2.309     12.893
REMARK  Name = 5281224_Astaxanthin.pdbqt.pdb
REMARK  16 active torsions:
REMARK  status: ('A' for Active; 'I' for Inactive)
REMARK    1  A    between atoms: C_1  and  C_5
REMARK    2  A    between atoms: C_2  and  C_27
REMARK    3  A    between atoms: C_3  and  C_5
REMARK    4  A    between atoms: C_3  and  C_7
REMARK    5  A    between atoms: C_6  and  C_10
REMARK    6  A    between atoms: C_8  and  C_10
REMARK    7  A    between atoms: C_8  and  C_12
REMARK    8  A    between atoms: C_11  and  C_16
REMARK    9  A    between atoms: C_17  and  O_23
REMARK   10  A    between atoms: C_25  and  C_27
REMARK   11  A    between atoms: C_25  and  C_29
REMARK   12  A    between atoms: C_28  and  C_32
REMARK   13  A    between atoms: C_30  and  C_32
REMARK   14  A    between atoms: C_30  and  C_34
REMARK   15  A    between atoms: C_33  and  C_38
REMARK   16  A    between atoms: C_39  and  O_45
REMARK                            x       y       z     vdW  Elec       q    Type
REMARK                         _______ _______ _______ _____ _____    ______ ____
ROOT
ATOM      1  C   UNL     1      50.139 -53.695  54.468  0.00  0.00    +0.000 C 
ATOM      2  C   UNL     1      51.159 -54.269  54.204  0.00  0.00    +0.000 C 
ENDROOT
BRANCH   2   3
ATOM      3  C   UNL     1      52.466 -54.997  53.862  0.00  0.00    +0.000 C 
BRANCH   3   4
ATOM      4  C   UNL     1      53.573 -55.606  53.576  0.00  0.00    +0.000 C 
ATOM      5  C   UNL     1      53.644 -56.503  52.377  0.00  0.00    +0.000 C 
BRANCH   4   7
ATOM      6  C   UNL     1      55.634 -55.385  55.172  0.00  0.00    +0.000 C 
ATOM      7  C   UNL     1      54.689 -55.487  54.438  0.00  0.00    +0.000 C 
BRANCH   6   8
ATOM      8  C   UNL     1      56.838 -55.254  56.111  0.00  0.00    +0.000 C 
BRANCH   8   9
ATOM      9  C   UNL     1      57.861 -55.147  56.902  0.00  0.00    +0.000 C 
ATOM     10  C   UNL     1      59.026 -56.077  56.745  0.00  0.00    +0.000 C 
BRANCH   9  12
ATOM     11  C   UNL     1      58.012 -53.152  58.592  0.00  0.00    +0.000 C 
ATOM     12  C   UNL     1      57.940 -54.061  57.807  0.00  0.00    +0.000 C 
BRANCH  11  16
ATOM     13  O   UNL     1      58.673 -48.407  59.628  0.00  0.00    +0.000 OA
ATOM     14  C   UNL     1      57.912 -52.419  61.050  0.00  0.00    +0.000 C 
ATOM     15  C   UNL     1      58.051 -51.158  61.759  0.00  0.00    +0.000 C 
ATOM     16  C   UNL     1      58.101 -52.069  59.552  0.00  0.00    +0.000 C 
ATOM     17  C   UNL     1      58.292 -49.823  61.453  0.00  0.00    +0.000 C 
ATOM     18  C   UNL     1      56.491 -52.995  61.259  0.00  0.00    +0.000 C 
ATOM     19  C   UNL     1      59.017 -53.404  61.492  0.00  0.00    +0.000 C 
ATOM     20  C   UNL     1      58.340 -50.797  59.115  0.00  0.00    +0.000 C 
ATOM     21  C   UNL     1      58.461 -49.551  60.008  0.00  0.00    +0.000 C 
ATOM     22  C   UNL     1      58.498 -50.554  57.608  0.00  0.00    +0.000 C 
BRANCH  17  23
ATOM     23  O   UNL     1      58.363 -48.840  62.404  0.00  0.00    +0.000 OA
ATOM     24  H   UNL     1      59.275 -48.491  62.475  0.00  0.00    +0.000 HD
ENDBRANCH  17  23
ENDBRANCH  11  16
ENDBRANCH   9  12
ENDBRANCH   8   9
ENDBRANCH   6   8
ENDBRANCH   4   7
ENDBRANCH   3   4
ENDBRANCH   2   3
BRANCH   1  25
ATOM     25  C   UNL     1      48.839 -52.953  54.799  0.00  0.00    +0.000 C 
BRANCH  25  26
ATOM     26  C   UNL     1      47.741 -52.322  55.075  0.00  0.00    +0.000 C 
ATOM     27  C   UNL     1      46.765 -52.912  56.049  0.00  0.00    +0.000 C 
BRANCH  26  29
ATOM     28  C   UNL     1      47.151 -50.105  53.818  0.00  0.00    +0.000 C 
ATOM     29  C   UNL     1      47.424 -51.123  54.395  0.00  0.00    +0.000 C 
BRANCH  28  30
ATOM     30  C   UNL     1      46.800 -48.806  53.081  0.00  0.00    +0.000 C 
BRANCH  30  31
ATOM     31  C   UNL     1      46.512 -47.709  52.456  0.00  0.00    +0.000 C 
ATOM     32  C   UNL     1      45.262 -46.957  52.802  0.00  0.00    +0.000 C 
BRANCH  31  34
ATOM     33  C   UNL     1      48.244 -46.670  50.787  0.00  0.00    +0.000 C 
ATOM     34  C   UNL     1      47.454 -47.141  51.562  0.00  0.00    +0.000 C 
BRANCH  33  38
ATOM     35  O   UNL     1      52.771 -46.413  48.927  0.00  0.00    +0.000 OA
ATOM     36  C   UNL     1      48.665 -45.058  48.835  0.00  0.00    +0.000 C 
ATOM     37  C   UNL     1      49.817 -44.693  48.028  0.00  0.00    +0.000 C 
ATOM     38  C   UNL     1      49.192 -46.115  49.840  0.00  0.00    +0.000 C 
ATOM     39  C   UNL     1      51.166 -45.027  47.938  0.00  0.00    +0.000 C 
ATOM     40  C   UNL     1      47.575 -45.703  47.947  0.00  0.00    +0.000 C 
ATOM     41  C   UNL     1      48.144 -43.827  49.608  0.00  0.00    +0.000 C 
ATOM     42  C   UNL     1      50.490 -46.537  49.858  0.00  0.00    +0.000 C 
ATOM     43  C   UNL     1      51.604 -46.042  48.920  0.00  0.00    +0.000 C 
ATOM     44  C   UNL     1      50.905 -47.599  50.884  0.00  0.00    +0.000 C 
BRANCH  39  45
ATOM     45  O   UNL     1      52.013 -44.470  47.020  0.00  0.00    +0.000 OA
ATOM     46  H   UNL     1      52.689 -45.119  46.734  0.00  0.00    +0.000 HD
ENDBRANCH  39  45
ENDBRANCH  33  38
ENDBRANCH  31  34
ENDBRANCH  30  31
ENDBRANCH  28  30
ENDBRANCH  26  29
ENDBRANCH  25  26
ENDBRANCH   1  25
TORSDOF 16
ENDMDL
MODEL 4
REMARK VINA RESULT:      -7.1      2.435      4.857
REMARK  Name = 5281224_Astaxanthin.pdbqt.pdb
REMARK  16 active torsions:
REMARK  status: ('A' for Active; 'I' for Inactive)
REMARK    1  A    between atoms: C_1  and  C_5
REMARK    2  A    between atoms: C_2  and  C_27
REMARK    3  A    between atoms: C_3  and  C_5
REMARK    4  A    between atoms: C_3  and  C_7
REMARK    5  A    between atoms: C_6  and  C_10
REMARK    6  A    between atoms: C_8  and  C_10
REMARK    7  A    between atoms: C_8  and  C_12
REMARK    8  A    between atoms: C_11  and  C_16
REMARK    9  A    between atoms: C_17  and  O_23
REMARK   10  A    between atoms: C_25  and  C_27
REMARK   11  A    between atoms: C_25  and  C_29
REMARK   12  A    between atoms: C_28  and  C_32
REMARK   13  A    between atoms: C_30  and  C_32
REMARK   14  A    between atoms: C_30  and  C_34
REMARK   15  A    between atoms: C_33  and  C_38
REMARK   16  A    between atoms: C_39  and  O_45
REMARK                            x       y       z     vdW  Elec       q    Type
REMARK                         _______ _______ _______ _____ _____    ______ ____
ROOT
ATOM      1  C   UNL     1      50.874 -54.194  54.259  0.00  0.00    +0.000 C 
ATOM      2  C   UNL     1      49.825 -53.624  54.377  0.00  0.00    +0.000 C 
ENDROOT
BRANCH   2   3
ATOM      3  C   UNL     1      48.480 -52.900  54.521  0.00  0.00    +0.000 C 
BRANCH   3   4
ATOM      4  C   UNL     1      47.346 -52.286  54.649  0.00  0.00    +0.000 C 
ATOM      5  C   UNL     1      46.219 -52.942  55.388  0.00  0.00    +0.000 C 
BRANCH   4   7
ATOM      6  C   UNL     1      46.979 -49.966  53.497  0.00  0.00    +0.000 C 
ATOM      7  C   UNL     1      47.147 -51.031  54.024  0.00  0.00    +0.000 C 
BRANCH   6   8
ATOM      8  C   UNL     1      46.767 -48.603  52.827  0.00  0.00    +0.000 C 
BRANCH   8   9
ATOM      9  C   UNL     1      46.585 -47.447  52.268  0.00  0.00    +0.000 C 
ATOM     10  C   UNL     1      45.446 -46.577  52.703  0.00  0.00    +0.000 C 
BRANCH   9  12
ATOM     11  C   UNL     1      48.384 -46.530  50.598  0.00  0.00    +0.000 C 
ATOM     12  C   UNL     1      47.549 -46.948  51.357  0.00  0.00    +0.000 C 
BRANCH  11  16
ATOM     13  O   UNL     1      52.991 -46.547  48.927  0.00  0.00    +0.000 OA
ATOM     14  C   UNL     1      48.986 -44.936  48.679  0.00  0.00    +0.000 C 
ATOM     15  C   UNL     1      50.191 -44.638  47.923  0.00  0.00    +0.000 C 
ATOM     16  C   UNL     1      49.402 -46.030  49.696  0.00  0.00    +0.000 C 
ATOM     17  C   UNL     1      51.517 -45.056  47.886  0.00  0.00    +0.000 C 
ATOM     18  C   UNL     1      47.895 -45.505  47.742  0.00  0.00    +0.000 C 
ATOM     19  C   UNL     1      48.511 -43.679  49.442  0.00  0.00    +0.000 C 
ATOM     20  C   UNL     1      50.670 -46.532  49.763  0.00  0.00    +0.000 C 
ATOM     21  C   UNL     1      51.852 -46.104  48.876  0.00  0.00    +0.000 C 
ATOM     22  C   UNL     1      50.975 -47.626  50.796  0.00  0.00    +0.000 C 
BRANCH  17  23
ATOM     23  O   UNL     1      52.436 -44.549  47.007  0.00  0.00    +0.000 OA
ATOM     24  H   UNL     1      52.428 -45.052  46.167  0.00  0.00    +0.000 HD
ENDBRANCH  17  23
ENDBRANCH  11  16
ENDBRANCH   9  12
ENDBRANCH   8   9
ENDBRANCH   6   8
ENDBRANCH   4   7
ENDBRANCH   3   4
ENDBRANCH   2   3
BRANCH   1  25
ATOM     25  C   UNL     1      52.210 -54.929  54.101  0.00  0.00    +0.000 C 
BRANCH  25  26
ATOM     26  C   UNL     1      53.340 -55.548  53.962  0.00  0.00    +0.000 C 
ATOM     27  C   UNL     1      53.643 -56.274  52.686  0.00  0.00    +0.000 C 
BRANCH  26  29
ATOM     28  C   UNL     1      55.024 -55.665  55.961  0.00  0.00    +0.000 C 
ATOM     29  C   UNL     1      54.249 -55.611  55.044  0.00  0.00    +0.000 C 
BRANCH  28  30
ATOM     30  C   UNL     1      56.015 -55.733  57.130  0.00  0.00    +0.000 C 
BRANCH  30  31
ATOM     31  C   UNL     1      56.857 -55.784  58.113  0.00  0.00    +0.000 C 
ATOM     32  C   UNL     1      57.501 -57.087  58.480  0.00  0.00    +0.000 C 
BRANCH  31  34
ATOM     33  C   UNL     1      57.630 -53.557  59.256  0.00  0.00    +0.000 C 
ATOM     34  C   UNL     1      57.284 -54.585  58.736  0.00  0.00    +0.000 C 
BRANCH  33  38
ATOM     35  O   UNL     1      57.608 -50.470  63.063  0.00  0.00    +0.000 OA
ATOM     36  C   UNL     1      58.931 -51.355  59.042  0.00  0.00    +0.000 C 
ATOM     37  C   UNL     1      59.169 -50.208  59.902  0.00  0.00    +0.000 C 
ATOM     38  C   UNL     1      58.034 -52.308  59.872  0.00  0.00    +0.000 C 
ATOM     39  C   UNL     1      58.822 -49.786  61.182  0.00  0.00    +0.000 C 
ATOM     40  C   UNL     1      60.266 -52.068  58.721  0.00  0.00    +0.000 C 
ATOM     41  C   UNL     1      58.176 -50.917  57.767  0.00  0.00    +0.000 C 
ATOM     42  C   UNL     1      57.624 -52.019  61.142  0.00  0.00    +0.000 C 
ATOM     43  C   UNL     1      57.969 -50.740  61.924  0.00  0.00    +0.000 C 
ATOM     44  C   UNL     1      56.749 -53.038  61.884  0.00  0.00    +0.000 C 
BRANCH  39  45
ATOM     45  O   UNL     1      59.235 -48.594  61.713  0.00  0.00    +0.000 OA
ATOM     46  H   UNL     1      58.744 -48.393  62.536  0.00  0.00    +0.000 HD
ENDBRANCH  39  45
ENDBRANCH  33  38
ENDBRANCH  31  34
ENDBRANCH  30  31
ENDBRANCH  28  30
ENDBRANCH  26  29
ENDBRANCH  25  26
ENDBRANCH   1  25
TORSDOF 16
ENDMDL
MODEL 5
REMARK VINA RESULT:      -7.0      2.705      3.588
REMARK  Name = 5281224_Astaxanthin.pdbqt.pdb
REMARK  16 active torsions:
REMARK  status: ('A' for Active; 'I' for Inactive)
REMARK    1  A    between atoms: C_1  and  C_5
REMARK    2  A    between atoms: C_2  and  C_27
REMARK    3  A    between atoms: C_3  and  C_5
REMARK    4  A    between atoms: C_3  and  C_7
REMARK    5  A    between atoms: C_6  and  C_10
REMARK    6  A    between atoms: C_8  and  C_10
REMARK    7  A    between atoms: C_8  and  C_12
REMARK    8  A    between atoms: C_11  and  C_16
REMARK    9  A    between atoms: C_17  and  O_23
REMARK   10  A    between atoms: C_25  and  C_27
REMARK   11  A    between atoms: C_25  and  C_29
REMARK   12  A    between atoms: C_28  and  C_32
REMARK   13  A    between atoms: C_30  and  C_32
REMARK   14  A    between atoms: C_30  and  C_34
REMARK   15  A    between atoms: C_33  and  C_38
REMARK   16  A    between atoms: C_39  and  O_45
REMARK                            x       y       z     vdW  Elec       q    Type
REMARK                         _______ _______ _______ _____ _____    ______ ____
ROOT
ATOM      1  C   UNL     1      54.110 -56.228  56.580  0.00  0.00    +0.000 C 
ATOM      2  C   UNL     1      53.019 -56.676  56.365  0.00  0.00    +0.000 C 
ENDROOT
BRANCH   2   3
ATOM      3  C   UNL     1      51.625 -57.250  56.080  0.00  0.00    +0.000 C 
BRANCH   3   4
ATOM      4  C   UNL     1      50.449 -57.738  55.835  0.00  0.00    +0.000 C 
ATOM      5  C   UNL     1      50.311 -59.154  55.363  0.00  0.00    +0.000 C 
BRANCH   4   7
ATOM      6  C   UNL     1      48.335 -56.208  56.017  0.00  0.00    +0.000 C 
ATOM      7  C   UNL     1      49.305 -56.911  55.935  0.00  0.00    +0.000 C 
BRANCH   6   8
ATOM      8  C   UNL     1      47.097 -55.310  56.118  0.00  0.00    +0.000 C 
BRANCH   8   9
ATOM      9  C   UNL     1      46.046 -54.552  56.195  0.00  0.00    +0.000 C 
ATOM     10  C   UNL     1      45.210 -54.560  57.438  0.00  0.00    +0.000 C 
BRANCH   9  12
ATOM     11  C   UNL     1      45.572 -52.800  54.307  0.00  0.00    +0.000 C 
ATOM     12  C   UNL     1      45.781 -53.612  55.169  0.00  0.00    +0.000 C 
BRANCH  11  16
ATOM     13  O   UNL     1      42.738 -50.903  50.787  0.00  0.00    +0.000 OA
ATOM     14  C   UNL     1      46.423 -50.734  53.044  0.00  0.00    +0.000 C 
ATOM     15  C   UNL     1      45.913 -49.896  51.971  0.00  0.00    +0.000 C 
ATOM     16  C   UNL     1      45.331 -51.810  53.275  0.00  0.00    +0.000 C 
ATOM     17  C   UNL     1      44.782 -49.824  51.165  0.00  0.00    +0.000 C 
ATOM     18  C   UNL     1      46.594 -49.901  54.336  0.00  0.00    +0.000 C 
ATOM     19  C   UNL     1      47.736 -51.419  52.607  0.00  0.00    +0.000 C 
ATOM     20  C   UNL     1      44.171 -51.852  52.556  0.00  0.00    +0.000 C 
ATOM     21  C   UNL     1      43.776 -50.875  51.436  0.00  0.00    +0.000 C 
ATOM     22  C   UNL     1      43.147 -52.950  52.874  0.00  0.00    +0.000 C 
BRANCH  17  23
ATOM     23  O   UNL     1      44.607 -48.863  50.206  0.00  0.00    +0.000 OA
ATOM     24  H   UNL     1      45.172 -49.043  49.428  0.00  0.00    +0.000 HD
ENDBRANCH  17  23
ENDBRANCH  11  16
ENDBRANCH   9  12
ENDBRANCH   8   9
ENDBRANCH   6   8
ENDBRANCH   4   7
ENDBRANCH   3   4
ENDBRANCH   2   3
BRANCH   1  25
ATOM     25  C   UNL     1      55.507 -55.655  56.846  0.00  0.00    +0.000 C 
BRANCH  25  26
ATOM     26  C   UNL     1      56.689 -55.174  57.074  0.00  0.00    +0.000 C 
ATOM     27  C   UNL     1      57.858 -55.651  56.264  0.00  0.00    +0.000 C 
BRANCH  26  29
ATOM     28  C   UNL     1      57.066 -53.500  59.047  0.00  0.00    +0.000 C 
ATOM     29  C   UNL     1      56.891 -54.268  58.141  0.00  0.00    +0.000 C 
BRANCH  28  30
ATOM     30  C   UNL     1      57.291 -52.519  60.205  0.00  0.00    +0.000 C 
BRANCH  30  31
ATOM     31  C   UNL     1      57.479 -51.684  61.178  0.00  0.00    +0.000 C 
ATOM     32  C   UNL     1      57.198 -52.103  62.589  0.00  0.00    +0.000 C 
BRANCH  31  34
ATOM     33  C   UNL     1      58.632 -49.375  60.725  0.00  0.00    +0.000 C 
ATOM     34  C   UNL     1      58.098 -50.435  60.922  0.00  0.00    +0.000 C 
BRANCH  33  38
ATOM     35  O   UNL     1      60.778 -46.128  57.746  0.00  0.00    +0.000 OA
ATOM     36  C   UNL     1      59.460 -47.164  61.732  0.00  0.00    +0.000 C 
ATOM     37  C   UNL     1      60.126 -45.980  61.217  0.00  0.00    +0.000 C 
ATOM     38  C   UNL     1      59.281 -48.096  60.506  0.00  0.00    +0.000 C 
ATOM     39  C   UNL     1      60.604 -45.510  59.997  0.00  0.00    +0.000 C 
ATOM     40  C   UNL     1      58.068 -46.791  62.293  0.00  0.00    +0.000 C 
ATOM     41  C   UNL     1      60.352 -47.862  62.783  0.00  0.00    +0.000 C 
ATOM     42  C   UNL     1      59.699 -47.757  59.252  0.00  0.00    +0.000 C 
ATOM     43  C   UNL     1      60.398 -46.443  58.867  0.00  0.00    +0.000 C 
ATOM     44  C   UNL     1      59.459 -48.746  58.103  0.00  0.00    +0.000 C 
BRANCH  39  45
ATOM     45  O   UNL     1      61.207 -44.291  59.850  0.00  0.00    +0.000 OA
ATOM     46  H   UNL     1      60.561 -43.567  59.983  0.00  0.00    +0.000 HD
ENDBRANCH  39  45
ENDBRANCH  33  38
ENDBRANCH  31  34
ENDBRANCH  30  31
ENDBRANCH  28  30
ENDBRANCH  26  29
ENDBRANCH  25  26
ENDBRANCH   1  25
TORSDOF 16
ENDMDL
MODEL 6
REMARK VINA RESULT:      -6.8      8.065     11.851
REMARK  Name = 5281224_Astaxanthin.pdbqt.pdb
REMARK  16 active torsions:
REMARK  status: ('A' for Active; 'I' for Inactive)
REMARK    1  A    between atoms: C_1  and  C_5
REMARK    2  A    between atoms: C_2  and  C_27
REMARK    3  A    between atoms: C_3  and  C_5
REMARK    4  A    between atoms: C_3  and  C_7
REMARK    5  A    between atoms: C_6  and  C_10
REMARK    6  A    between atoms: C_8  and  C_10
REMARK    7  A    between atoms: C_8  and  C_12
REMARK    8  A    between atoms: C_11  and  C_16
REMARK    9  A    between atoms: C_17  and  O_23
REMARK   10  A    between atoms: C_25  and  C_27
REMARK   11  A    between atoms: C_25  and  C_29
REMARK   12  A    between atoms: C_28  and  C_32
REMARK   13  A    between atoms: C_30  and  C_32
REMARK   14  A    between atoms: C_30  and  C_34
REMARK   15  A    between atoms: C_33  and  C_38
REMARK   16  A    between atoms: C_39  and  O_45
REMARK                            x       y       z     vdW  Elec       q    Type
REMARK                         _______ _______ _______ _____ _____    ______ ____
ROOT
ATOM      1  C   UNL     1      49.332 -49.301  51.241  0.00  0.00    +0.000 C 
ATOM      2  C   UNL     1      49.800 -48.350  50.679  0.00  0.00    +0.000 C 
ENDROOT
BRANCH   2   3
ATOM      3  C   UNL     1      50.394 -47.135  49.955  0.00  0.00    +0.000 C 
BRANCH   3   4
ATOM      4  C   UNL     1      50.893 -46.104  49.348  0.00  0.00    +0.000 C 
ATOM      5  C   UNL     1      52.155 -46.244  48.551  0.00  0.00    +0.000 C 
BRANCH   4   7
ATOM      6  C   UNL     1      49.786 -43.751  49.635  0.00  0.00    +0.000 C 
ATOM      7  C   UNL     1      50.292 -44.832  49.503  0.00  0.00    +0.000 C 
BRANCH   6   8
ATOM      8  C   UNL     1      49.142 -42.370  49.802  0.00  0.00    +0.000 C 
BRANCH   8   9
ATOM      9  C   UNL     1      48.592 -41.204  49.948  0.00  0.00    +0.000 C 
ATOM     10  C   UNL     1      47.935 -40.845  51.246  0.00  0.00    +0.000 C 
BRANCH   9  12
ATOM     11  C   UNL     1      48.883 -39.406  48.065  0.00  0.00    +0.000 C 
ATOM     12  C   UNL     1      48.746 -40.223  48.938  0.00  0.00    +0.000 C 
BRANCH  11  16
ATOM     13  O   UNL     1      49.604 -34.793  46.574  0.00  0.00    +0.000 OA
ATOM     14  C   UNL     1      49.022 -38.952  45.543  0.00  0.00    +0.000 C 
ATOM     15  C   UNL     1      49.218 -37.774  44.714  0.00  0.00    +0.000 C 
ATOM     16  C   UNL     1      49.054 -38.433  47.004  0.00  0.00    +0.000 C 
ATOM     17  C   UNL     1      49.411 -36.408  44.890  0.00  0.00    +0.000 C 
ATOM     18  C   UNL     1      50.186 -39.950  45.335  0.00  0.00    +0.000 C 
ATOM     19  C   UNL     1      47.644 -39.586  45.252  0.00  0.00    +0.000 C 
ATOM     20  C   UNL     1      49.240 -37.117  47.316  0.00  0.00    +0.000 C 
ATOM     21  C   UNL     1      49.436 -35.975  46.305  0.00  0.00    +0.000 C 
ATOM     22  C   UNL     1      49.272 -36.709  48.796  0.00  0.00    +0.000 C 
BRANCH  17  23
ATOM     23  O   UNL     1      49.570 -35.536  43.846  0.00  0.00    +0.000 OA
ATOM     24  H   UNL     1      48.734 -35.062  43.659  0.00  0.00    +0.000 HD
ENDBRANCH  17  23
ENDBRANCH  11  16
ENDBRANCH   9  12
ENDBRANCH   8   9
ENDBRANCH   6   8
ENDBRANCH   4   7
ENDBRANCH   3   4
ENDBRANCH   2   3
BRANCH   1  25
ATOM     25  C   UNL     1      48.725 -50.516  51.952  0.00  0.00    +0.000 C 
BRANCH  25  26
ATOM     26  C   UNL     1      48.212 -51.541  52.557  0.00  0.00    +0.000 C 
ATOM     27  C   UNL     1      46.726 -51.633  52.739  0.00  0.00    +0.000 C 
BRANCH  26  29
ATOM     28  C   UNL     1      49.772 -53.364  53.597  0.00  0.00    +0.000 C 
ATOM     29  C   UNL     1      49.055 -52.526  53.121  0.00  0.00    +0.000 C 
BRANCH  28  30
ATOM     30  C   UNL     1      50.687 -54.436  54.203  0.00  0.00    +0.000 C 
BRANCH  30  31
ATOM     31  C   UNL     1      51.454 -55.348  54.712  0.00  0.00    +0.000 C 
ATOM     32  C   UNL     1      52.872 -55.479  54.244  0.00  0.00    +0.000 C 
BRANCH  31  34
ATOM     33  C   UNL     1      50.623 -56.744  56.767  0.00  0.00    +0.000 C 
ATOM     34  C   UNL     1      51.001 -56.112  55.816  0.00  0.00    +0.000 C 
BRANCH  33  38
ATOM     35  O   UNL     1      48.078 -57.034  60.946  0.00  0.00    +0.000 OA
ATOM     36  C   UNL     1      50.653 -58.963  58.056  0.00  0.00    +0.000 C 
ATOM     37  C   UNL     1      50.057 -59.450  59.289  0.00  0.00    +0.000 C 
ATOM     38  C   UNL     1      50.176 -57.494  57.926  0.00  0.00    +0.000 C 
ATOM     39  C   UNL     1      49.232 -58.965  60.300  0.00  0.00    +0.000 C 
ATOM     40  C   UNL     1      50.122 -59.776  56.851  0.00  0.00    +0.000 C 
ATOM     41  C   UNL     1      52.193 -58.998  58.158  0.00  0.00    +0.000 C 
ATOM     42  C   UNL     1      49.362 -56.896  58.844  0.00  0.00    +0.000 C 
ATOM     43  C   UNL     1      48.809 -57.560  60.116  0.00  0.00    +0.000 C 
ATOM     44  C   UNL     1      48.935 -55.440  58.613  0.00  0.00    +0.000 C 
BRANCH  39  45
ATOM     45  O   UNL     1      48.841 -59.722  61.371  0.00  0.00    +0.000 OA
ATOM     46  H   UNL     1      49.485 -59.644  62.105  0.00  0.00    +0.000 HD
ENDBRANCH  39  45
ENDBRANCH  33  38
ENDBRANCH  31  34
ENDBRANCH  30  31
ENDBRANCH  28  30
ENDBRANCH  26  29
ENDBRANCH  25  26
ENDBRANCH   1  25
TORSDOF 16
ENDMDL
MODEL 7
REMARK VINA RESULT:      -6.8      7.011     12.028
REMARK  Name = 5281224_Astaxanthin.pdbqt.pdb
REMARK  16 active torsions:
REMARK  status: ('A' for Active; 'I' for Inactive)
REMARK    1  A    between atoms: C_1  and  C_5
REMARK    2  A    between atoms: C_2  and  C_27
REMARK    3  A    between atoms: C_3  and  C_5
REMARK    4  A    between atoms: C_3  and  C_7
REMARK    5  A    between atoms: C_6  and  C_10
REMARK    6  A    between atoms: C_8  and  C_10
REMARK    7  A    between atoms: C_8  and  C_12
REMARK    8  A    between atoms: C_11  and  C_16
REMARK    9  A    between atoms: C_17  and  O_23
REMARK   10  A    between atoms: C_25  and  C_27
REMARK   11  A    between atoms: C_25  and  C_29
REMARK   12  A    between atoms: C_28  and  C_32
REMARK   13  A    between atoms: C_30  and  C_32
REMARK   14  A    between atoms: C_30  and  C_34
REMARK   15  A    between atoms: C_33  and  C_38
REMARK   16  A    between atoms: C_39  and  O_45
REMARK                            x       y       z     vdW  Elec       q    Type
REMARK                         _______ _______ _______ _____ _____    ______ ____
ROOT
ATOM      1  C   UNL     1      53.359 -53.507  46.905  0.00  0.00    +0.000 C 
ATOM      2  C   UNL     1      53.198 -54.464  47.611  0.00  0.00    +0.000 C 
ENDROOT
BRANCH   2   3
ATOM      3  C   UNL     1      52.985 -55.690  48.508  0.00  0.00    +0.000 C 
BRANCH   3   4
ATOM      4  C   UNL     1      52.800 -56.723  49.269  0.00  0.00    +0.000 C 
ATOM      5  C   UNL     1      52.409 -58.037  48.663  0.00  0.00    +0.000 C 
BRANCH   4   7
ATOM      6  C   UNL     1      52.967 -56.478  51.868  0.00  0.00    +0.000 C 
ATOM      7  C   UNL     1      52.888 -56.591  50.675  0.00  0.00    +0.000 C 
BRANCH   6   8
ATOM      8  C   UNL     1      53.071 -56.334  53.391  0.00  0.00    +0.000 C 
BRANCH   8   9
ATOM      9  C   UNL     1      53.156 -56.203  54.679  0.00  0.00    +0.000 C 
ATOM     10  C   UNL     1      54.496 -56.254  55.347  0.00  0.00    +0.000 C 
BRANCH   9  12
ATOM     11  C   UNL     1      51.037 -55.557  56.076  0.00  0.00    +0.000 C 
ATOM     12  C   UNL     1      52.004 -55.862  55.428  0.00  0.00    +0.000 C 
BRANCH  11  16
ATOM     13  O   UNL     1      47.180 -52.640  56.877  0.00  0.00    +0.000 OA
ATOM     14  C   UNL     1      49.564 -56.024  58.126  0.00  0.00    +0.000 C 
ATOM     15  C   UNL     1      48.375 -55.421  58.702  0.00  0.00    +0.000 C 
ATOM     16  C   UNL     1      49.881 -55.178  56.866  0.00  0.00    +0.000 C 
ATOM     17  C   UNL     1      47.519 -54.359  58.429  0.00  0.00    +0.000 C 
ATOM     18  C   UNL     1      49.269 -57.481  57.695  0.00  0.00    +0.000 C 
ATOM     19  C   UNL     1      50.744 -55.932  59.118  0.00  0.00    +0.000 C 
ATOM     20  C   UNL     1      49.120 -54.112  56.481  0.00  0.00    +0.000 C 
ATOM     21  C   UNL     1      47.871 -53.593  57.213  0.00  0.00    +0.000 C 
ATOM     22  C   UNL     1      49.511 -53.349  55.208  0.00  0.00    +0.000 C 
BRANCH  17  23
ATOM     23  O   UNL     1      46.438 -54.050  59.211  0.00  0.00    +0.000 OA
ATOM     24  H   UNL     1      46.710 -53.509  59.980  0.00  0.00    +0.000 HD
ENDBRANCH  17  23
ENDBRANCH  11  16
ENDBRANCH   9  12
ENDBRANCH   8   9
ENDBRANCH   6   8
ENDBRANCH   4   7
ENDBRANCH   3   4
ENDBRANCH   2   3
BRANCH   1  25
ATOM     25  C   UNL     1      53.557 -52.287  45.998  0.00  0.00    +0.000 C 
BRANCH  25  26
ATOM     26  C   UNL     1      53.721 -51.253  45.234  0.00  0.00    +0.000 C 
ATOM     27  C   UNL     1      54.452 -51.394  43.933  0.00  0.00    +0.000 C 
BRANCH  26  29
ATOM     28  C   UNL     1      52.920 -48.896  46.037  0.00  0.00    +0.000 C 
ATOM     29  C   UNL     1      53.289 -49.978  45.667  0.00  0.00    +0.000 C 
BRANCH  28  30
ATOM     30  C   UNL     1      52.446 -47.516  46.511  0.00  0.00    +0.000 C 
BRANCH  30  31
ATOM     31  C   UNL     1      52.052 -46.347  46.907  0.00  0.00    +0.000 C 
ATOM     32  C   UNL     1      52.392 -45.131  46.100  0.00  0.00    +0.000 C 
BRANCH  31  34
ATOM     33  C   UNL     1      50.406 -46.144  48.935  0.00  0.00    +0.000 C 
ATOM     34  C   UNL     1      51.171 -46.238  48.011  0.00  0.00    +0.000 C 
BRANCH  33  38
ATOM     35  O   UNL     1      47.412 -43.444  51.722  0.00  0.00    +0.000 OA
ATOM     36  C   UNL     1      49.137 -47.309  50.837  0.00  0.00    +0.000 C 
ATOM     37  C   UNL     1      48.191 -46.889  51.857  0.00  0.00    +0.000 C 
ATOM     38  C   UNL     1      49.470 -46.024  50.036  0.00  0.00    +0.000 C 
ATOM     39  C   UNL     1      47.559 -45.716  52.261  0.00  0.00    +0.000 C 
ATOM     40  C   UNL     1      48.478 -48.340  49.890  0.00  0.00    +0.000 C 
ATOM     41  C   UNL     1      50.424 -47.853  51.496  0.00  0.00    +0.000 C 
ATOM     42  C   UNL     1      48.918 -44.809  50.324  0.00  0.00    +0.000 C 
ATOM     43  C   UNL     1      47.915 -44.528  51.455  0.00  0.00    +0.000 C 
ATOM     44  C   UNL     1      49.302 -43.601  49.458  0.00  0.00    +0.000 C 
BRANCH  39  45
ATOM     45  O   UNL     1      46.681 -45.665  53.309  0.00  0.00    +0.000 OA
ATOM     46  H   UNL     1      47.157 -45.725  54.163  0.00  0.00    +0.000 HD
ENDBRANCH  39  45
ENDBRANCH  33  38
ENDBRANCH  31  34
ENDBRANCH  30  31
ENDBRANCH  28  30
ENDBRANCH  26  29
ENDBRANCH  25  26
ENDBRANCH   1  25
TORSDOF 16
ENDMDL
MODEL 8
REMARK VINA RESULT:      -6.8      3.661     15.189
REMARK  Name = 5281224_Astaxanthin.pdbqt.pdb
REMARK  16 active torsions:
REMARK  status: ('A' for Active; 'I' for Inactive)
REMARK    1  A    between atoms: C_1  and  C_5
REMARK    2  A    between atoms: C_2  and  C_27
REMARK    3  A    between atoms: C_3  and  C_5
REMARK    4  A    between atoms: C_3  and  C_7
REMARK    5  A    between atoms: C_6  and  C_10
REMARK    6  A    between atoms: C_8  and  C_10
REMARK    7  A    between atoms: C_8  and  C_12
REMARK    8  A    between atoms: C_11  and  C_16
REMARK    9  A    between atoms: C_17  and  O_23
REMARK   10  A    between atoms: C_25  and  C_27
REMARK   11  A    between atoms: C_25  and  C_29
REMARK   12  A    between atoms: C_28  and  C_32
REMARK   13  A    between atoms: C_30  and  C_32
REMARK   14  A    between atoms: C_30  and  C_34
REMARK   15  A    between atoms: C_33  and  C_38
REMARK   16  A    between atoms: C_39  and  O_45
REMARK                            x       y       z     vdW  Elec       q    Type
REMARK                         _______ _______ _______ _____ _____    ______ ____
ROOT
ATOM      1  C   UNL     1      50.500 -54.050  54.161  0.00  0.00    +0.000 C 
ATOM      2  C   UNL     1      51.540 -54.568  53.860  0.00  0.00    +0.000 C 
ENDROOT
BRANCH   2   3
ATOM      3  C   UNL     1      52.873 -55.224  53.480  0.00  0.00    +0.000 C 
BRANCH   3   4
ATOM      4  C   UNL     1      54.002 -55.775  53.163  0.00  0.00    +0.000 C 
ATOM      5  C   UNL     1      54.113 -56.585  51.907  0.00  0.00    +0.000 C 
BRANCH   4   7
ATOM      6  C   UNL     1      56.043 -55.594  54.791  0.00  0.00    +0.000 C 
ATOM      7  C   UNL     1      55.107 -55.678  54.042  0.00  0.00    +0.000 C 
BRANCH   6   8
ATOM      8  C   UNL     1      57.235 -55.485  55.748  0.00  0.00    +0.000 C 
BRANCH   8   9
ATOM      9  C   UNL     1      58.243 -55.385  56.558  0.00  0.00    +0.000 C 
ATOM     10  C   UNL     1      59.511 -56.129  56.268  0.00  0.00    +0.000 C 
BRANCH   9  12
ATOM     11  C   UNL     1      58.147 -53.655  58.523  0.00  0.00    +0.000 C 
ATOM     12  C   UNL     1      58.196 -54.457  57.628  0.00  0.00    +0.000 C 
BRANCH  11  16
ATOM     13  O   UNL     1      58.146 -48.997  60.049  0.00  0.00    +0.000 OA
ATOM     14  C   UNL     1      57.936 -53.201  61.040  0.00  0.00    +0.000 C 
ATOM     15  C   UNL     1      57.897 -52.013  61.876  0.00  0.00    +0.000 C 
ATOM     16  C   UNL     1      58.082 -52.675  59.589  0.00  0.00    +0.000 C 
ATOM     17  C   UNL     1      57.955 -50.633  61.713  0.00  0.00    +0.000 C 
ATOM     18  C   UNL     1      56.607 -53.983  61.162  0.00  0.00    +0.000 C 
ATOM     19  C   UNL     1      59.163 -54.067  61.400  0.00  0.00    +0.000 C 
ATOM     20  C   UNL     1      58.146 -51.344  59.289  0.00  0.00    +0.000 C 
ATOM     21  C   UNL     1      58.091 -50.193  60.307  0.00  0.00    +0.000 C 
ATOM     22  C   UNL     1      58.276 -50.926  57.818  0.00  0.00    +0.000 C 
BRANCH  17  23
ATOM     23  O   UNL     1      57.886 -49.753  62.760  0.00  0.00    +0.000 OA
ATOM     24  H   UNL     1      56.957 -49.508  62.947  0.00  0.00    +0.000 HD
ENDBRANCH  17  23
ENDBRANCH  11  16
ENDBRANCH   9  12
ENDBRANCH   8   9
ENDBRANCH   6   8
ENDBRANCH   4   7
ENDBRANCH   3   4
ENDBRANCH   2   3
BRANCH   1  25
ATOM     25  C   UNL     1      49.177 -53.381  54.551  0.00  0.00    +0.000 C 
BRANCH  25  26
ATOM     26  C   UNL     1      48.060 -52.813  54.885  0.00  0.00    +0.000 C 
ATOM     27  C   UNL     1      47.222 -53.401  55.981  0.00  0.00    +0.000 C 
BRANCH  26  29
ATOM     28  C   UNL     1      47.191 -50.742  53.545  0.00  0.00    +0.000 C 
ATOM     29  C   UNL     1      47.592 -51.693  54.160  0.00  0.00    +0.000 C 
BRANCH  28  30
ATOM     30  C   UNL     1      46.677 -49.530  52.757  0.00  0.00    +0.000 C 
BRANCH  30  31
ATOM     31  C   UNL     1      46.248 -48.502  52.096  0.00  0.00    +0.000 C 
ATOM     32  C   UNL     1      47.205 -47.422  51.689  0.00  0.00    +0.000 C 
BRANCH  31  34
ATOM     33  C   UNL     1      43.782 -48.435  51.216  0.00  0.00    +0.000 C 
ATOM     34  C   UNL     1      44.912 -48.476  51.625  0.00  0.00    +0.000 C 
BRANCH  33  38
ATOM     35  O   UNL     1      39.590 -45.979  50.565  0.00  0.00    +0.000 OA
ATOM     36  C   UNL     1      41.856 -49.619  50.000  0.00  0.00    +0.000 C 
ATOM     37  C   UNL     1      40.500 -49.261  49.619  0.00  0.00    +0.000 C 
ATOM     38  C   UNL     1      42.421 -48.366  50.718  0.00  0.00    +0.000 C 
ATOM     39  C   UNL     1      39.651 -48.164  49.728  0.00  0.00    +0.000 C 
ATOM     40  C   UNL     1      42.706 -49.906  48.740  0.00  0.00    +0.000 C 
ATOM     41  C   UNL     1      41.837 -50.810  50.983  0.00  0.00    +0.000 C 
ATOM     42  C   UNL     1      41.697 -47.222  50.889  0.00  0.00    +0.000 C 
ATOM     43  C   UNL     1      40.250 -47.000  50.418  0.00  0.00    +0.000 C 
ATOM     44  C   UNL     1      42.355 -46.032  51.601  0.00  0.00    +0.000 C 
BRANCH  39  45
ATOM     45  O   UNL     1      38.374 -48.156  49.236  0.00  0.00    +0.000 OA
ATOM     46  H   UNL     1      38.377 -48.276  48.264  0.00  0.00    +0.000 HD
ENDBRANCH  39  45
ENDBRANCH  33  38
ENDBRANCH  31  34
ENDBRANCH  30  31
ENDBRANCH  28  30
ENDBRANCH  26  29
ENDBRANCH  25  26
ENDBRANCH   1  25
TORSDOF 16
ENDMDL
MODEL 9
REMARK VINA RESULT:      -6.7      7.116      9.604
REMARK  Name = 5281224_Astaxanthin.pdbqt.pdb
REMARK  16 active torsions:
REMARK  status: ('A' for Active; 'I' for Inactive)
REMARK    1  A    between atoms: C_1  and  C_5
REMARK    2  A    between atoms: C_2  and  C_27
REMARK    3  A    between atoms: C_3  and  C_5
REMARK    4  A    between atoms: C_3  and  C_7
REMARK    5  A    between atoms: C_6  and  C_10
REMARK    6  A    between atoms: C_8  and  C_10
REMARK    7  A    between atoms: C_8  and  C_12
REMARK    8  A    between atoms: C_11  and  C_16
REMARK    9  A    between atoms: C_17  and  O_23
REMARK   10  A    between atoms: C_25  and  C_27
REMARK   11  A    between atoms: C_25  and  C_29
REMARK   12  A    between atoms: C_28  and  C_32
REMARK   13  A    between atoms: C_30  and  C_32
REMARK   14  A    between atoms: C_30  and  C_34
REMARK   15  A    between atoms: C_33  and  C_38
REMARK   16  A    between atoms: C_39  and  O_45
REMARK                            x       y       z     vdW  Elec       q    Type
REMARK                         _______ _______ _______ _____ _____    ______ ____
ROOT
ATOM      1  C   UNL     1      53.179 -54.360  47.559  0.00  0.00    +0.000 C 
ATOM      2  C   UNL     1      53.364 -53.389  46.879  0.00  0.00    +0.000 C 
ENDROOT
BRANCH   2   3
ATOM      3  C   UNL     1      53.592 -52.144  46.012  0.00  0.00    +0.000 C 
BRANCH   3   4
ATOM      4  C   UNL     1      53.781 -51.089  45.284  0.00  0.00    +0.000 C 
ATOM      5  C   UNL     1      54.561 -51.192  44.007  0.00  0.00    +0.000 C 
BRANCH   4   7
ATOM      6  C   UNL     1      52.934 -48.758  46.116  0.00  0.00    +0.000 C 
ATOM      7  C   UNL     1      53.321 -49.828  45.732  0.00  0.00    +0.000 C 
BRANCH   6   8
ATOM      8  C   UNL     1      52.442 -47.392  46.608  0.00  0.00    +0.000 C 
BRANCH   8   9
ATOM      9  C   UNL     1      52.019 -46.240  47.027  0.00  0.00    +0.000 C 
ATOM     10  C   UNL     1      52.369 -44.995  46.270  0.00  0.00    +0.000 C 
BRANCH   9  12
ATOM     11  C   UNL     1      50.321 -46.106  49.018  0.00  0.00    +0.000 C 
ATOM     12  C   UNL     1      51.105 -46.178  48.108  0.00  0.00    +0.000 C 
BRANCH  11  16
ATOM     13  O   UNL     1      47.295 -43.446  51.809  0.00  0.00    +0.000 OA
ATOM     14  C   UNL     1      49.029 -47.299  50.887  0.00  0.00    +0.000 C 
ATOM     15  C   UNL     1      48.070 -46.894  51.901  0.00  0.00    +0.000 C 
ATOM     16  C   UNL     1      49.372 -46.002  50.109  0.00  0.00    +0.000 C 
ATOM     17  C   UNL     1      47.434 -45.728  52.315  0.00  0.00    +0.000 C 
ATOM     18  C   UNL     1      48.382 -48.315  49.917  0.00  0.00    +0.000 C 
ATOM     19  C   UNL     1      50.308 -47.853  51.553  0.00  0.00    +0.000 C 
ATOM     20  C   UNL     1      48.816 -44.791  50.409  0.00  0.00    +0.000 C 
ATOM     21  C   UNL     1      47.800 -44.526  51.532  0.00  0.00    +0.000 C 
ATOM     22  C   UNL     1      49.212 -43.571  49.567  0.00  0.00    +0.000 C 
BRANCH  17  23
ATOM     23  O   UNL     1      46.542 -45.691  53.353  0.00  0.00    +0.000 OA
ATOM     24  H   UNL     1      45.870 -44.995  53.208  0.00  0.00    +0.000 HD
ENDBRANCH  17  23
ENDBRANCH  11  16
ENDBRANCH   9  12
ENDBRANCH   8   9
ENDBRANCH   6   8
ENDBRANCH   4   7
ENDBRANCH   3   4
ENDBRANCH   2   3
BRANCH   1  25
ATOM     25  C   UNL     1      52.934 -55.598  48.430  0.00  0.00    +0.000 C 
BRANCH  25  26
ATOM     26  C   UNL     1      52.724 -56.641  49.170  0.00  0.00    +0.000 C 
ATOM     27  C   UNL     1      52.296 -57.931  48.538  0.00  0.00    +0.000 C 
BRANCH  26  29
ATOM     28  C   UNL     1      52.894 -56.455  51.774  0.00  0.00    +0.000 C 
ATOM     29  C   UNL     1      52.815 -56.539  50.578  0.00  0.00    +0.000 C 
BRANCH  28  30
ATOM     30  C   UNL     1      52.995 -56.351  53.301  0.00  0.00    +0.000 C 
BRANCH  30  31
ATOM     31  C   UNL     1      53.074 -56.259  54.591  0.00  0.00    +0.000 C 
ATOM     32  C   UNL     1      54.395 -56.438  55.275  0.00  0.00    +0.000 C 
BRANCH  31  34
ATOM     33  C   UNL     1      50.976 -55.490  55.960  0.00  0.00    +0.000 C 
ATOM     34  C   UNL     1      51.945 -55.834  55.335  0.00  0.00    +0.000 C 
BRANCH  33  38
ATOM     35  O   UNL     1      47.129 -52.521  56.595  0.00  0.00    +0.000 OA
ATOM     36  C   UNL     1      49.427 -55.921  57.960  0.00  0.00    +0.000 C 
ATOM     37  C   UNL     1      48.225 -55.297  58.489  0.00  0.00    +0.000 C 
ATOM     38  C   UNL     1      49.798 -55.090  56.705  0.00  0.00    +0.000 C 
ATOM     39  C   UNL     1      47.391 -54.228  58.175  0.00  0.00    +0.000 C 
ATOM     40  C   UNL     1      49.128 -57.377  57.534  0.00  0.00    +0.000 C 
ATOM     41  C   UNL     1      50.572 -55.832  58.994  0.00  0.00    +0.000 C 
ATOM     42  C   UNL     1      49.064 -54.020  56.282  0.00  0.00    +0.000 C 
ATOM     43  C   UNL     1      47.796 -53.479  56.965  0.00  0.00    +0.000 C 
ATOM     44  C   UNL     1      49.509 -53.274  55.017  0.00  0.00    +0.000 C 
BRANCH  39  45
ATOM     45  O   UNL     1      46.289 -53.899  58.916  0.00  0.00    +0.000 OA
ATOM     46  H   UNL     1      46.304 -54.356  59.782  0.00  0.00    +0.000 HD
ENDBRANCH  39  45
ENDBRANCH  33  38
ENDBRANCH  31  34
ENDBRANCH  30  31
ENDBRANCH  28  30
ENDBRANCH  26  29
ENDBRANCH  25  26
ENDBRANCH   1  25
TORSDOF 16
ENDMDL
