MODEL 1
REMARK VINA RESULT:      -7.6      0.000      0.000
REMARK  Name = 5289155_Peridinin.pdbqt.pdb
REMARK  13 active torsions:
REMARK  status: ('A' for Active; 'I' for Inactive)
REMARK    1  A    between atoms: C_1  and  C_3
REMARK    2  A    between atoms: C_3  and  C_25
REMARK    3  A    between atoms: C_6  and  C_12
REMARK    4  A    between atoms: C_11  and  C_14
REMARK    5  A    between atoms: C_19  and  O_23
REMARK    6  A    between atoms: C_26  and  C_28
REMARK    7  A    between atoms: C_27  and  C_31
REMARK    8  A    between atoms: C_29  and  C_31
REMARK    9  A    between atoms: C_29  and  C_42
REMARK   10  A    between atoms: C_33  and  O_43
REMARK   11  A    between atoms: C_35  and  O_45
REMARK   12  A    between atoms: C_37  and  C_41
REMARK   13  A    between atoms: O_45  and  C_47
REMARK                            x       y       z     vdW  Elec       q    Type
REMARK                         _______ _______ _______ _____ _____    ______ ____
ROOT
ATOM      1  C   UNL     1      45.930 -50.648  52.396  0.00  0.00    +0.000 C 
ENDROOT
BRANCH   1   2
ATOM      2  C   UNL     1      45.269 -51.626  52.933  0.00  0.00    +0.000 C 
ATOM      3  C   UNL     1      43.938 -52.029  52.379  0.00  0.00    +0.000 C 
ATOM      4  O   UNL     1      47.215 -52.364  55.876  0.00  0.00    +0.000 OA
ATOM      5  O   UNL     1      47.891 -53.014  57.996  0.00  0.00    +0.000 OA
ATOM      6  C   UNL     1      46.256 -54.291  56.758  0.00  0.00    +0.000 C 
ATOM      7  C   UNL     1      45.750 -54.126  55.590  0.00  0.00    +0.000 C 
ATOM      8  C   UNL     1      47.218 -53.189  56.996  0.00  0.00    +0.000 C 
ATOM      9  C   UNL     1      46.324 -52.996  55.014  0.00  0.00    +0.000 C 
ATOM     10  C   UNL     1      45.821 -52.339  54.021  0.00  0.00    +0.000 C 
BRANCH   6  12
ATOM     11  C   UNL     1      45.613 -56.231  58.380  0.00  0.00    +0.000 C 
ATOM     12  C   UNL     1      45.912 -55.341  57.630  0.00  0.00    +0.000 C 
BRANCH  11  14
ATOM     13  O   UNL     1      46.128 -58.444  59.097  0.00  0.00    +0.000 OA
ATOM     14  C   UNL     1      45.249 -57.300  59.295  0.00  0.00    +0.000 C 
ATOM     15  C   UNL     1      46.272 -57.776  60.348  0.00  0.00    +0.000 C 
ATOM     16  C   UNL     1      43.733 -57.618  59.545  0.00  0.00    +0.000 C 
ATOM     17  C   UNL     1      45.774 -58.555  61.437  0.00  0.00    +0.000 C 
ATOM     18  C   UNL     1      43.666 -58.499  60.714  0.00  0.00    +0.000 C 
ATOM     19  C   UNL     1      44.483 -59.022  61.735  0.00  0.00    +0.000 C 
ATOM     20  C   UNL     1      47.646 -57.129  60.544  0.00  0.00    +0.000 C 
ATOM     21  C   UNL     1      43.063 -56.251  59.850  0.00  0.00    +0.000 C 
ATOM     22  C   UNL     1      43.200 -58.269  58.250  0.00  0.00    +0.000 C 
BRANCH  19  23
ATOM     23  O   UNL     1      44.026 -59.158  63.011  0.00  0.00    +0.000 OA
ATOM     24  H   UNL     1      44.349 -59.973  63.436  0.00  0.00    +0.000 HD
ENDBRANCH  19  23
ENDBRANCH  11  14
ENDBRANCH   6  12
ENDBRANCH   1   2
BRANCH   1  25
ATOM     25  C   UNL     1      46.710 -49.492  51.761  0.00  0.00    +0.000 C 
ATOM     26  C   UNL     1      47.318 -48.583  51.266  0.00  0.00    +0.000 C 
BRANCH  26  28
ATOM     27  C   UNL     1      48.690 -46.503  50.149  0.00  0.00    +0.000 C 
ATOM     28  C   UNL     1      48.091 -47.418  50.640  0.00  0.00    +0.000 C 
BRANCH  27  29
ATOM     29  C   UNL     1      49.451 -45.329  49.519  0.00  0.00    +0.000 C 
BRANCH  29  30
ATOM     30  C   UNL     1      50.097 -44.336  48.997  0.00  0.00    +0.000 C 
ATOM     31  C   UNL     1      51.313 -44.581  48.155  0.00  0.00    +0.000 C 
BRANCH  30  33
ATOM     32  C   UNL     1      49.341 -41.877  49.496  0.00  0.00    +0.000 C 
ATOM     33  C   UNL     1      49.687 -43.005  49.266  0.00  0.00    +0.000 C 
BRANCH  32  39
ATOM     34  C   UNL     1      47.605 -40.298  50.376  0.00  0.00    +0.000 C 
ATOM     35  C   UNL     1      49.848 -39.460  49.358  0.00  0.00    +0.000 C 
ATOM     36  C   UNL     1      47.561 -38.899  50.824  0.00  0.00    +0.000 C 
ATOM     37  C   UNL     1      48.355 -37.735  50.771  0.00  0.00    +0.000 C 
ATOM     38  C   UNL     1      49.440 -38.222  50.013  0.00  0.00    +0.000 C 
ATOM     39  C   UNL     1      48.967 -40.638  49.743  0.00  0.00    +0.000 C 
ATOM     40  C   UNL     1      47.379 -41.209  51.621  0.00  0.00    +0.000 C 
ATOM     41  C   UNL     1      46.492 -40.552  49.324  0.00  0.00    +0.000 C 
ATOM     42  C   UNL     1      49.906 -39.293  47.837  0.00  0.00    +0.000 C 
BRANCH  35  43
ATOM     43  O   UNL     1      51.177 -39.730  49.746  0.00  0.00    +0.000 OA
ATOM     44  H   UNL     1      51.560 -40.053  48.909  0.00  0.00    +0.000 HD
ENDBRANCH  35  43
BRANCH  37  45
ATOM     45  O   UNL     1      47.757 -36.524  50.445  0.00  0.00    +0.000 OA
BRANCH  45  47
ATOM     46  O   UNL     1      45.802 -35.980  51.621  0.00  0.00    +0.000 OA
ATOM     47  C   UNL     1      47.007 -36.085  51.485  0.00  0.00    +0.000 C 
ATOM     48  C   UNL     1      47.800 -35.642  52.663  0.00  0.00    +0.000 C 
ENDBRANCH  45  47
ENDBRANCH  37  45
ENDBRANCH  32  39
ENDBRANCH  30  33
ENDBRANCH  29  30
ENDBRANCH  27  29
ENDBRANCH  26  28
ENDBRANCH   1  25
TORSDOF 13
ENDMDL
MODEL 2
REMARK VINA RESULT:      -7.6      8.896     16.576
REMARK  Name = 5289155_Peridinin.pdbqt.pdb
REMARK  13 active torsions:
REMARK  status: ('A' for Active; 'I' for Inactive)
REMARK    1  A    between atoms: C_1  and  C_3
REMARK    2  A    between atoms: C_3  and  C_25
REMARK    3  A    between atoms: C_6  and  C_12
REMARK    4  A    between atoms: C_11  and  C_14
REMARK    5  A    between atoms: C_19  and  O_23
REMARK    6  A    between atoms: C_26  and  C_28
REMARK    7  A    between atoms: C_27  and  C_31
REMARK    8  A    between atoms: C_29  and  C_31
REMARK    9  A    between atoms: C_29  and  C_42
REMARK   10  A    between atoms: C_33  and  O_43
REMARK   11  A    between atoms: C_35  and  O_45
REMARK   12  A    between atoms: C_37  and  C_41
REMARK   13  A    between atoms: O_45  and  C_47
REMARK                            x       y       z     vdW  Elec       q    Type
REMARK                         _______ _______ _______ _____ _____    ______ ____
ROOT
ATOM      1  C   UNL     1      49.530 -35.094  46.065  0.00  0.00    +0.000 C 
ENDROOT
BRANCH   1   2
ATOM      2  C   UNL     1      49.162 -36.329  45.922  0.00  0.00    +0.000 C 
ATOM      3  C   UNL     1      48.360 -36.742  44.727  0.00  0.00    +0.000 C 
ATOM      4  O   UNL     1      50.134 -37.804  49.064  0.00  0.00    +0.000 OA
ATOM      5  O   UNL     1      50.256 -39.133  50.959  0.00  0.00    +0.000 OA
ATOM      6  C   UNL     1      49.761 -40.084  48.794  0.00  0.00    +0.000 C 
ATOM      7  C   UNL     1      49.654 -39.550  47.632  0.00  0.00    +0.000 C 
ATOM      8  C   UNL     1      50.080 -39.007  49.761  0.00  0.00    +0.000 C 
ATOM      9  C   UNL     1      49.901 -38.185  47.746  0.00  0.00    +0.000 C 
ATOM     10  C   UNL     1      49.548 -37.297  46.877  0.00  0.00    +0.000 C 
BRANCH   6  12
ATOM     11  C   UNL     1      49.416 -42.624  49.280  0.00  0.00    +0.000 C 
ATOM     12  C   UNL     1      49.580 -41.454  49.057  0.00  0.00    +0.000 C 
BRANCH  11  14
ATOM     13  O   UNL     1      49.332 -44.804  48.321  0.00  0.00    +0.000 OA
ATOM     14  C   UNL     1      49.206 -44.036  49.553  0.00  0.00    +0.000 C 
ATOM     15  C   UNL     1      50.352 -45.036  49.289  0.00  0.00    +0.000 C 
ATOM     16  C   UNL     1      48.062 -44.471  50.534  0.00  0.00    +0.000 C 
ATOM     17  C   UNL     1      50.244 -46.327  49.889  0.00  0.00    +0.000 C 
ATOM     18  C   UNL     1      48.284 -45.884  50.854  0.00  0.00    +0.000 C 
ATOM     19  C   UNL     1      49.237 -46.905  50.682  0.00  0.00    +0.000 C 
ATOM     20  C   UNL     1      51.748 -44.616  48.821  0.00  0.00    +0.000 C 
ATOM     21  C   UNL     1      48.237 -43.589  51.798  0.00  0.00    +0.000 C 
ATOM     22  C   UNL     1      46.729 -44.206  49.801  0.00  0.00    +0.000 C 
BRANCH  19  23
ATOM     23  O   UNL     1      49.506 -47.801  51.672  0.00  0.00    +0.000 OA
ATOM     24  H   UNL     1      49.374 -48.723  51.385  0.00  0.00    +0.000 HD
ENDBRANCH  19  23
ENDBRANCH  11  14
ENDBRANCH   6  12
ENDBRANCH   1   2
BRANCH   1  25
ATOM     25  C   UNL     1      49.967 -33.634  46.232  0.00  0.00    +0.000 C 
ATOM     26  C   UNL     1      50.303 -32.490  46.361  0.00  0.00    +0.000 C 
BRANCH  26  28
ATOM     27  C   UNL     1      51.060 -29.882  46.654  0.00  0.00    +0.000 C 
ATOM     28  C   UNL     1      50.724 -31.026  46.525  0.00  0.00    +0.000 C 
BRANCH  27  29
ATOM     29  C   UNL     1      51.496 -28.421  46.822  0.00  0.00    +0.000 C 
BRANCH  29  30
ATOM     30  C   UNL     1      51.865 -27.186  46.953  0.00  0.00    +0.000 C 
ATOM     31  C   UNL     1      53.085 -26.681  46.242  0.00  0.00    +0.000 C 
BRANCH  30  33
ATOM     32  C   UNL     1      50.533 -25.588  48.545  0.00  0.00    +0.000 C 
ATOM     33  C   UNL     1      51.146 -26.321  47.815  0.00  0.00    +0.000 C 
BRANCH  32  39
ATOM     34  C   UNL     1      50.454 -24.243  50.659  0.00  0.00    +0.000 C 
ATOM     35  C   UNL     1      48.419 -24.406  49.046  0.00  0.00    +0.000 C 
ATOM     36  C   UNL     1      49.633 -23.151  51.201  0.00  0.00    +0.000 C 
ATOM     37  C   UNL     1      48.408 -22.505  50.939  0.00  0.00    +0.000 C 
ATOM     38  C   UNL     1      47.969 -23.266  49.836  0.00  0.00    +0.000 C 
ATOM     39  C   UNL     1      49.859 -24.789  49.348  0.00  0.00    +0.000 C 
ATOM     40  C   UNL     1      51.880 -23.678  50.376  0.00  0.00    +0.000 C 
ATOM     41  C   UNL     1      50.538 -25.403  51.687  0.00  0.00    +0.000 C 
ATOM     42  C   UNL     1      47.485 -25.608  49.219  0.00  0.00    +0.000 C 
BRANCH  35  43
ATOM     43  O   UNL     1      48.309 -24.053  47.685  0.00  0.00    +0.000 OA
ATOM     44  H   UNL     1      49.054 -24.550  47.296  0.00  0.00    +0.000 HD
ENDBRANCH  35  43
BRANCH  37  45
ATOM     45  O   UNL     1      47.547 -22.235  51.995  0.00  0.00    +0.000 OA
BRANCH  45  47
ATOM     46  O   UNL     1      48.089 -20.472  53.444  0.00  0.00    +0.000 OA
ATOM     47  C   UNL     1      47.696 -20.949  52.396  0.00  0.00    +0.000 C 
ATOM     48  C   UNL     1      47.296 -19.943  51.375  0.00  0.00    +0.000 C 
ENDBRANCH  45  47
ENDBRANCH  37  45
ENDBRANCH  32  39
ENDBRANCH  30  33
ENDBRANCH  29  30
ENDBRANCH  27  29
ENDBRANCH  26  28
ENDBRANCH   1  25
TORSDOF 13
ENDMDL
MODEL 3
REMARK VINA RESULT:      -7.4      7.005     19.970
REMARK  Name = 5289155_Peridinin.pdbqt.pdb
REMARK  13 active torsions:
REMARK  status: ('A' for Active; 'I' for Inactive)
REMARK    1  A    between atoms: C_1  and  C_3
REMARK    2  A    between atoms: C_3  and  C_25
REMARK    3  A    between atoms: C_6  and  C_12
REMARK    4  A    between atoms: C_11  and  C_14
REMARK    5  A    between atoms: C_19  and  O_23
REMARK    6  A    between atoms: C_26  and  C_28
REMARK    7  A    between atoms: C_27  and  C_31
REMARK    8  A    between atoms: C_29  and  C_31
REMARK    9  A    between atoms: C_29  and  C_42
REMARK   10  A    between atoms: C_33  and  O_43
REMARK   11  A    between atoms: C_35  and  O_45
REMARK   12  A    between atoms: C_37  and  C_41
REMARK   13  A    between atoms: O_45  and  C_47
REMARK                            x       y       z     vdW  Elec       q    Type
REMARK                         _______ _______ _______ _____ _____    ______ ____
ROOT
ATOM      1  C   UNL     1      48.317 -39.711  50.980  0.00  0.00    +0.000 C 
ENDROOT
BRANCH   1   2
ATOM      2  C   UNL     1      48.636 -38.466  50.815  0.00  0.00    +0.000 C 
ATOM      3  C   UNL     1      48.669 -37.535  51.987  0.00  0.00    +0.000 C 
ATOM      4  O   UNL     1      48.799 -38.169  47.226  0.00  0.00    +0.000 OA
ATOM      5  O   UNL     1      48.725 -37.374  45.050  0.00  0.00    +0.000 OA
ATOM      6  C   UNL     1      49.637 -36.034  46.841  0.00  0.00    +0.000 C 
ATOM      7  C   UNL     1      49.783 -36.269  48.094  0.00  0.00    +0.000 C 
ATOM      8  C   UNL     1      49.014 -37.229  46.224  0.00  0.00    +0.000 C 
ATOM      9  C   UNL     1      49.320 -37.555  48.361  0.00  0.00    +0.000 C 
ATOM     10  C   UNL     1      48.992 -37.991  49.532  0.00  0.00    +0.000 C 
BRANCH   6  12
ATOM     11  C   UNL     1      50.316 -33.796  45.685  0.00  0.00    +0.000 C 
ATOM     12  C   UNL     1      50.003 -34.829  46.213  0.00  0.00    +0.000 C 
BRANCH  11  14
ATOM     13  O   UNL     1      50.551 -32.648  43.609  0.00  0.00    +0.000 OA
ATOM     14  C   UNL     1      50.691 -32.540  45.056  0.00  0.00    +0.000 C 
ATOM     15  C   UNL     1      49.638 -31.756  44.244  0.00  0.00    +0.000 C 
ATOM     16  C   UNL     1      51.946 -31.759  45.580  0.00  0.00    +0.000 C 
ATOM     17  C   UNL     1      49.925 -30.389  43.949  0.00  0.00    +0.000 C 
ATOM     18  C   UNL     1      51.897 -30.419  44.988  0.00  0.00    +0.000 C 
ATOM     19  C   UNL     1      51.044 -29.588  44.238  0.00  0.00    +0.000 C 
ATOM     20  C   UNL     1      48.174 -32.188  44.121  0.00  0.00    +0.000 C 
ATOM     21  C   UNL     1      51.779 -31.684  47.121  0.00  0.00    +0.000 C 
ATOM     22  C   UNL     1      53.184 -32.577  45.154  0.00  0.00    +0.000 C 
BRANCH  19  23
ATOM     23  O   UNL     1      50.947 -28.253  44.492  0.00  0.00    +0.000 OA
ATOM     24  H   UNL     1      50.726 -28.068  45.423  0.00  0.00    +0.000 HD
ENDBRANCH  19  23
ENDBRANCH  11  14
ENDBRANCH   6  12
ENDBRANCH   1   2
BRANCH   1  25
ATOM     25  C   UNL     1      47.938 -41.184  51.177  0.00  0.00    +0.000 C 
ATOM     26  C   UNL     1      47.647 -42.338  51.328  0.00  0.00    +0.000 C 
BRANCH  26  28
ATOM     27  C   UNL     1      46.992 -44.968  51.661  0.00  0.00    +0.000 C 
ATOM     28  C   UNL     1      47.281 -43.813  51.518  0.00  0.00    +0.000 C 
BRANCH  27  29
ATOM     29  C   UNL     1      46.618 -46.445  51.839  0.00  0.00    +0.000 C 
BRANCH  29  30
ATOM     30  C   UNL     1      46.291 -47.689  51.989  0.00  0.00    +0.000 C 
ATOM     31  C   UNL     1      47.281 -48.672  52.536  0.00  0.00    +0.000 C 
BRANCH  30  33
ATOM     32  C   UNL     1      43.920 -48.518  51.242  0.00  0.00    +0.000 C 
ATOM     33  C   UNL     1      45.008 -48.137  51.583  0.00  0.00    +0.000 C 
BRANCH  32  39
ATOM     34  C   UNL     1      42.458 -50.380  50.417  0.00  0.00    +0.000 C 
ATOM     35  C   UNL     1      41.544 -47.978  50.819  0.00  0.00    +0.000 C 
ATOM     36  C   UNL     1      41.017 -50.661  50.358  0.00  0.00    +0.000 C 
ATOM     37  C   UNL     1      39.789 -49.983  50.502  0.00  0.00    +0.000 C 
ATOM     38  C   UNL     1      40.266 -48.676  50.733  0.00  0.00    +0.000 C 
ATOM     39  C   UNL     1      42.725 -48.934  50.872  0.00  0.00    +0.000 C 
ATOM     40  C   UNL     1      43.099 -51.365  51.442  0.00  0.00    +0.000 C 
ATOM     41  C   UNL     1      43.095 -50.585  49.016  0.00  0.00    +0.000 C 
ATOM     42  C   UNL     1      41.706 -46.968  49.679  0.00  0.00    +0.000 C 
BRANCH  35  43
ATOM     43  O   UNL     1      41.526 -47.199  51.996  0.00  0.00    +0.000 OA
ATOM     44  H   UNL     1      41.754 -46.317  51.646  0.00  0.00    +0.000 HD
ENDBRANCH  35  43
BRANCH  37  45
ATOM     45  O   UNL     1      38.780 -50.210  49.576  0.00  0.00    +0.000 OA
BRANCH  45  47
ATOM     46  O   UNL     1      37.059 -50.635  51.112  0.00  0.00    +0.000 OA
ATOM     47  C   UNL     1      37.569 -50.062  50.167  0.00  0.00    +0.000 C 
ATOM     48  C   UNL     1      36.708 -49.022  49.541  0.00  0.00    +0.000 C 
ENDBRANCH  45  47
ENDBRANCH  37  45
ENDBRANCH  32  39
ENDBRANCH  30  33
ENDBRANCH  29  30
ENDBRANCH  27  29
ENDBRANCH  26  28
ENDBRANCH   1  25
TORSDOF 13
ENDMDL
MODEL 4
REMARK VINA RESULT:      -7.4      7.678     13.703
REMARK  Name = 5289155_Peridinin.pdbqt.pdb
REMARK  13 active torsions:
REMARK  status: ('A' for Active; 'I' for Inactive)
REMARK    1  A    between atoms: C_1  and  C_3
REMARK    2  A    between atoms: C_3  and  C_25
REMARK    3  A    between atoms: C_6  and  C_12
REMARK    4  A    between atoms: C_11  and  C_14
REMARK    5  A    between atoms: C_19  and  O_23
REMARK    6  A    between atoms: C_26  and  C_28
REMARK    7  A    between atoms: C_27  and  C_31
REMARK    8  A    between atoms: C_29  and  C_31
REMARK    9  A    between atoms: C_29  and  C_42
REMARK   10  A    between atoms: C_33  and  O_43
REMARK   11  A    between atoms: C_35  and  O_45
REMARK   12  A    between atoms: C_37  and  C_41
REMARK   13  A    between atoms: O_45  and  C_47
REMARK                            x       y       z     vdW  Elec       q    Type
REMARK                         _______ _______ _______ _____ _____    ______ ____
ROOT
ATOM      1  C   UNL     1      48.977 -37.887  49.180  0.00  0.00    +0.000 C 
ENDROOT
BRANCH   1   2
ATOM      2  C   UNL     1      48.536 -38.797  49.990  0.00  0.00    +0.000 C 
ATOM      3  C   UNL     1      47.941 -38.408  51.308  0.00  0.00    +0.000 C 
ATOM      4  O   UNL     1      49.598 -41.849  48.394  0.00  0.00    +0.000 OA
ATOM      5  O   UNL     1      50.299 -44.018  47.976  0.00  0.00    +0.000 OA
ATOM      6  C   UNL     1      48.608 -43.548  49.636  0.00  0.00    +0.000 C 
ATOM      7  C   UNL     1      48.072 -42.448  50.021  0.00  0.00    +0.000 C 
ATOM      8  C   UNL     1      49.596 -43.227  48.579  0.00  0.00    +0.000 C 
ATOM      9  C   UNL     1      48.617 -41.405  49.276  0.00  0.00    +0.000 C 
ATOM     10  C   UNL     1      48.580 -40.159  49.616  0.00  0.00    +0.000 C 
BRANCH   6  12
ATOM     11  C   UNL     1      48.022 -45.887  50.633  0.00  0.00    +0.000 C 
ATOM     12  C   UNL     1      48.293 -44.812  50.169  0.00  0.00    +0.000 C 
BRANCH  11  14
ATOM     13  O   UNL     1      48.165 -48.246  50.324  0.00  0.00    +0.000 OA
ATOM     14  C   UNL     1      47.697 -47.184  51.204  0.00  0.00    +0.000 C 
ATOM     15  C   UNL     1      48.837 -48.154  51.578  0.00  0.00    +0.000 C 
ATOM     16  C   UNL     1      46.296 -47.400  51.877  0.00  0.00    +0.000 C 
ATOM     17  C   UNL     1      48.513 -49.240  52.446  0.00  0.00    +0.000 C 
ATOM     18  C   UNL     1      46.367 -48.661  52.621  0.00  0.00    +0.000 C 
ATOM     19  C   UNL     1      47.296 -49.637  53.028  0.00  0.00    +0.000 C 
ATOM     20  C   UNL     1      50.322 -47.800  51.454  0.00  0.00    +0.000 C 
ATOM     21  C   UNL     1      46.107 -46.202  52.845  0.00  0.00    +0.000 C 
ATOM     22  C   UNL     1      45.256 -47.415  50.735  0.00  0.00    +0.000 C 
BRANCH  19  23
ATOM     23  O   UNL     1      47.224 -50.218  54.258  0.00  0.00    +0.000 OA
ATOM     24  H   UNL     1      47.714 -51.059  54.300  0.00  0.00    +0.000 HD
ENDBRANCH  19  23
ENDBRANCH  11  14
ENDBRANCH   6  12
ENDBRANCH   1   2
BRANCH   1  25
ATOM     25  C   UNL     1      49.499 -36.809  48.222  0.00  0.00    +0.000 C 
ATOM     26  C   UNL     1      49.912 -35.969  47.472  0.00  0.00    +0.000 C 
BRANCH  26  28
ATOM     27  C   UNL     1      50.869 -34.064  45.765  0.00  0.00    +0.000 C 
ATOM     28  C   UNL     1      50.446 -34.900  46.514  0.00  0.00    +0.000 C 
BRANCH  27  29
ATOM     29  C   UNL     1      51.416 -32.993  44.813  0.00  0.00    +0.000 C 
BRANCH  29  30
ATOM     30  C   UNL     1      51.875 -32.095  44.000  0.00  0.00    +0.000 C 
ATOM     31  C   UNL     1      50.939 -31.142  43.318  0.00  0.00    +0.000 C 
BRANCH  30  33
ATOM     32  C   UNL     1      54.437 -32.007  43.461  0.00  0.00    +0.000 C 
ATOM     33  C   UNL     1      53.262 -32.046  43.709  0.00  0.00    +0.000 C 
BRANCH  32  39
ATOM     34  C   UNL     1      56.691 -31.001  43.899  0.00  0.00    +0.000 C 
ATOM     35  C   UNL     1      56.321 -32.828  42.085  0.00  0.00    +0.000 C 
ATOM     36  C   UNL     1      58.091 -31.359  43.634  0.00  0.00    +0.000 C 
ATOM     37  C   UNL     1      58.832 -32.263  42.845  0.00  0.00    +0.000 C 
ATOM     38  C   UNL     1      57.776 -32.901  42.161  0.00  0.00    +0.000 C 
ATOM     39  C   UNL     1      55.725 -31.962  43.183  0.00  0.00    +0.000 C 
ATOM     40  C   UNL     1      56.454 -31.091  45.438  0.00  0.00    +0.000 C 
ATOM     41  C   UNL     1      56.411 -29.557  43.404  0.00  0.00    +0.000 C 
ATOM     42  C   UNL     1      55.858 -32.358  40.703  0.00  0.00    +0.000 C 
BRANCH  35  43
ATOM     43  O   UNL     1      55.821 -34.142  42.209  0.00  0.00    +0.000 OA
ATOM     44  H   UNL     1      56.626 -34.631  42.463  0.00  0.00    +0.000 HD
ENDBRANCH  35  43
BRANCH  37  45
ATOM     45  O   UNL     1      59.942 -31.801  42.151  0.00  0.00    +0.000 OA
BRANCH  45  47
ATOM     46  O   UNL     1      61.215 -33.739  42.507  0.00  0.00    +0.000 OA
ATOM     47  C   UNL     1      61.032 -32.536  42.481  0.00  0.00    +0.000 C 
ATOM     48  C   UNL     1      62.209 -31.727  42.898  0.00  0.00    +0.000 C 
ENDBRANCH  45  47
ENDBRANCH  37  45
ENDBRANCH  32  39
ENDBRANCH  30  33
ENDBRANCH  29  30
ENDBRANCH  27  29
ENDBRANCH  26  28
ENDBRANCH   1  25
TORSDOF 13
ENDMDL
MODEL 5
REMARK VINA RESULT:      -7.4      3.349     18.814
REMARK  Name = 5289155_Peridinin.pdbqt.pdb
REMARK  13 active torsions:
REMARK  status: ('A' for Active; 'I' for Inactive)
REMARK    1  A    between atoms: C_1  and  C_3
REMARK    2  A    between atoms: C_3  and  C_25
REMARK    3  A    between atoms: C_6  and  C_12
REMARK    4  A    between atoms: C_11  and  C_14
REMARK    5  A    between atoms: C_19  and  O_23
REMARK    6  A    between atoms: C_26  and  C_28
REMARK    7  A    between atoms: C_27  and  C_31
REMARK    8  A    between atoms: C_29  and  C_31
REMARK    9  A    between atoms: C_29  and  C_42
REMARK   10  A    between atoms: C_33  and  O_43
REMARK   11  A    between atoms: C_35  and  O_45
REMARK   12  A    between atoms: C_37  and  C_41
REMARK   13  A    between atoms: O_45  and  C_47
REMARK                            x       y       z     vdW  Elec       q    Type
REMARK                         _______ _______ _______ _____ _____    ______ ____
ROOT
ATOM      1  C   UNL     1      49.690 -46.235  50.129  0.00  0.00    +0.000 C 
ENDROOT
BRANCH   1   2
ATOM      2  C   UNL     1      50.235 -45.311  49.402  0.00  0.00    +0.000 C 
ATOM      3  C   UNL     1      51.668 -45.429  48.983  0.00  0.00    +0.000 C 
ATOM      4  O   UNL     1      47.686 -42.763  49.333  0.00  0.00    +0.000 OA
ATOM      5  O   UNL     1      46.560 -40.740  49.236  0.00  0.00    +0.000 OA
ATOM      6  C   UNL     1      48.467 -41.179  47.820  0.00  0.00    +0.000 C 
ATOM      7  C   UNL     1      49.222 -42.209  47.700  0.00  0.00    +0.000 C 
ATOM      8  C   UNL     1      47.449 -41.479  48.854  0.00  0.00    +0.000 C 
ATOM      9  C   UNL     1      48.767 -43.196  48.571  0.00  0.00    +0.000 C 
ATOM     10  C   UNL     1      49.467 -44.206  48.969  0.00  0.00    +0.000 C 
BRANCH   6  12
ATOM     11  C   UNL     1      48.773 -38.968  46.469  0.00  0.00    +0.000 C 
ATOM     12  C   UNL     1      48.629 -39.988  47.088  0.00  0.00    +0.000 C 
BRANCH  11  14
ATOM     13  O   UNL     1      47.959 -36.750  46.154  0.00  0.00    +0.000 OA
ATOM     14  C   UNL     1      48.952 -37.728  45.730  0.00  0.00    +0.000 C 
ATOM     15  C   UNL     1      49.306 -36.436  46.496  0.00  0.00    +0.000 C 
ATOM     16  C   UNL     1      49.267 -37.784  44.195  0.00  0.00    +0.000 C 
ATOM     17  C   UNL     1      49.816 -35.343  45.731  0.00  0.00    +0.000 C 
ATOM     18  C   UNL     1      49.696 -36.441  43.795  0.00  0.00    +0.000 C 
ATOM     19  C   UNL     1      50.039 -35.194  44.352  0.00  0.00    +0.000 C 
ATOM     20  C   UNL     1      49.562 -36.391  48.005  0.00  0.00    +0.000 C 
ATOM     21  C   UNL     1      50.431 -38.799  44.043  0.00  0.00    +0.000 C 
ATOM     22  C   UNL     1      47.972 -38.252  43.496  0.00  0.00    +0.000 C 
BRANCH  19  23
ATOM     23  O   UNL     1      51.061 -34.447  43.848  0.00  0.00    +0.000 OA
ATOM     24  H   UNL     1      51.092 -34.470  42.874  0.00  0.00    +0.000 HD
ENDBRANCH  19  23
ENDBRANCH  11  14
ENDBRANCH   6  12
ENDBRANCH   1   2
BRANCH   1  25
ATOM     25  C   UNL     1      49.046 -47.328  50.990  0.00  0.00    +0.000 C 
ATOM     26  C   UNL     1      48.540 -48.186  51.659  0.00  0.00    +0.000 C 
BRANCH  26  28
ATOM     27  C   UNL     1      47.384 -50.141  53.175  0.00  0.00    +0.000 C 
ATOM     28  C   UNL     1      47.891 -49.285  52.507  0.00  0.00    +0.000 C 
BRANCH  27  29
ATOM     29  C   UNL     1      46.739 -51.235  54.036  0.00  0.00    +0.000 C 
BRANCH  29  30
ATOM     30  C   UNL     1      46.191 -52.163  54.754  0.00  0.00    +0.000 C 
ATOM     31  C   UNL     1      44.699 -52.283  54.828  0.00  0.00    +0.000 C 
BRANCH  30  33
ATOM     32  C   UNL     1      47.692 -53.782  56.166  0.00  0.00    +0.000 C 
ATOM     33  C   UNL     1      47.004 -53.038  55.519  0.00  0.00    +0.000 C 
BRANCH  32  39
ATOM     34  C   UNL     1      49.744 -55.213  56.311  0.00  0.00    +0.000 C 
ATOM     35  C   UNL     1      48.045 -55.030  58.272  0.00  0.00    +0.000 C 
ATOM     36  C   UNL     1      50.546 -55.827  57.378  0.00  0.00    +0.000 C 
ATOM     37  C   UNL     1      50.453 -56.112  58.756  0.00  0.00    +0.000 C 
ATOM     38  C   UNL     1      49.149 -55.635  59.008  0.00  0.00    +0.000 C 
ATOM     39  C   UNL     1      48.448 -54.599  56.871  0.00  0.00    +0.000 C 
ATOM     40  C   UNL     1      50.600 -54.088  55.652  0.00  0.00    +0.000 C 
ATOM     41  C   UNL     1      49.368 -56.282  55.250  0.00  0.00    +0.000 C 
ATOM     42  C   UNL     1      46.827 -55.958  58.230  0.00  0.00    +0.000 C 
BRANCH  35  43
ATOM     43  O   UNL     1      47.617 -53.899  58.999  0.00  0.00    +0.000 OA
ATOM     44  H   UNL     1      47.745 -53.189  58.343  0.00  0.00    +0.000 HD
ENDBRANCH  35  43
BRANCH  37  45
ATOM     45  O   UNL     1      50.845 -57.362  59.216  0.00  0.00    +0.000 OA
BRANCH  45  47
ATOM     46  O   UNL     1      52.895 -56.513  59.977  0.00  0.00    +0.000 OA
ATOM     47  C   UNL     1      52.175 -57.359  59.481  0.00  0.00    +0.000 C 
ATOM     48  C   UNL     1      52.877 -58.610  59.085  0.00  0.00    +0.000 C 
ENDBRANCH  45  47
ENDBRANCH  37  45
ENDBRANCH  32  39
ENDBRANCH  30  33
ENDBRANCH  29  30
ENDBRANCH  27  29
ENDBRANCH  26  28
ENDBRANCH   1  25
TORSDOF 13
ENDMDL
MODEL 6
REMARK VINA RESULT:      -7.2      7.843     13.655
REMARK  Name = 5289155_Peridinin.pdbqt.pdb
REMARK  13 active torsions:
REMARK  status: ('A' for Active; 'I' for Inactive)
REMARK    1  A    between atoms: C_1  and  C_3
REMARK    2  A    between atoms: C_3  and  C_25
REMARK    3  A    between atoms: C_6  and  C_12
REMARK    4  A    between atoms: C_11  and  C_14
REMARK    5  A    between atoms: C_19  and  O_23
REMARK    6  A    between atoms: C_26  and  C_28
REMARK    7  A    between atoms: C_27  and  C_31
REMARK    8  A    between atoms: C_29  and  C_31
REMARK    9  A    between atoms: C_29  and  C_42
REMARK   10  A    between atoms: C_33  and  O_43
REMARK   11  A    between atoms: C_35  and  O_45
REMARK   12  A    between atoms: C_37  and  C_41
REMARK   13  A    between atoms: O_45  and  C_47
REMARK                            x       y       z     vdW  Elec       q    Type
REMARK                         _______ _______ _______ _____ _____    ______ ____
ROOT
ATOM      1  C   UNL     1      49.024 -37.746  49.265  0.00  0.00    +0.000 C 
ENDROOT
BRANCH   1   2
ATOM      2  C   UNL     1      48.661 -38.670  50.098  0.00  0.00    +0.000 C 
ATOM      3  C   UNL     1      48.238 -38.308  51.488  0.00  0.00    +0.000 C 
ATOM      4  O   UNL     1      49.448 -41.696  48.304  0.00  0.00    +0.000 OA
ATOM      5  O   UNL     1      50.040 -43.867  47.747  0.00  0.00    +0.000 OA
ATOM      6  C   UNL     1      48.574 -43.410  49.612  0.00  0.00    +0.000 C 
ATOM      7  C   UNL     1      48.115 -42.310  50.088  0.00  0.00    +0.000 C 
ATOM      8  C   UNL     1      49.434 -43.079  48.451  0.00  0.00    +0.000 C 
ATOM      9  C   UNL     1      48.592 -41.258  49.310  0.00  0.00    +0.000 C 
ATOM     10  C   UNL     1      48.627 -40.021  49.685  0.00  0.00    +0.000 C 
BRANCH   6  12
ATOM     11  C   UNL     1      48.054 -45.771  50.591  0.00  0.00    +0.000 C 
ATOM     12  C   UNL     1      48.294 -44.682  50.145  0.00  0.00    +0.000 C 
BRANCH  11  14
ATOM     13  O   UNL     1      48.207 -48.115  50.186  0.00  0.00    +0.000 OA
ATOM     14  C   UNL     1      47.759 -47.093  51.122  0.00  0.00    +0.000 C 
ATOM     15  C   UNL     1      48.919 -48.066  51.419  0.00  0.00    +0.000 C 
ATOM     16  C   UNL     1      46.383 -47.349  51.831  0.00  0.00    +0.000 C 
ATOM     17  C   UNL     1      48.633 -49.188  52.254  0.00  0.00    +0.000 C 
ATOM     18  C   UNL     1      46.490 -48.637  52.522  0.00  0.00    +0.000 C 
ATOM     19  C   UNL     1      47.440 -49.620  52.859  0.00  0.00    +0.000 C 
ATOM     20  C   UNL     1      50.396 -47.692  51.260  0.00  0.00    +0.000 C 
ATOM     21  C   UNL     1      46.217 -46.192  52.852  0.00  0.00    +0.000 C 
ATOM     22  C   UNL     1      45.306 -47.329  50.725  0.00  0.00    +0.000 C 
BRANCH  19  23
ATOM     23  O   UNL     1      47.415 -50.249  54.067  0.00  0.00    +0.000 OA
ATOM     24  H   UNL     1      48.219 -50.082  54.590  0.00  0.00    +0.000 HD
ENDBRANCH  19  23
ENDBRANCH  11  14
ENDBRANCH   6  12
ENDBRANCH   1   2
BRANCH   1  25
ATOM     25  C   UNL     1      49.453 -36.653  48.280  0.00  0.00    +0.000 C 
ATOM     26  C   UNL     1      49.792 -35.794  47.514  0.00  0.00    +0.000 C 
BRANCH  26  28
ATOM     27  C   UNL     1      50.570 -33.837  45.774  0.00  0.00    +0.000 C 
ATOM     28  C   UNL     1      50.229 -34.695  46.541  0.00  0.00    +0.000 C 
BRANCH  27  29
ATOM     29  C   UNL     1      51.008 -32.746  44.789  0.00  0.00    +0.000 C 
BRANCH  29  30
ATOM     30  C   UNL     1      51.378 -31.832  43.949  0.00  0.00    +0.000 C 
ATOM     31  C   UNL     1      51.581 -32.170  42.503  0.00  0.00    +0.000 C 
BRANCH  30  33
ATOM     32  C   UNL     1      51.875 -29.404  44.799  0.00  0.00    +0.000 C 
ATOM     33  C   UNL     1      51.646 -30.517  44.408  0.00  0.00    +0.000 C 
BRANCH  32  39
ATOM     34  C   UNL     1      53.103 -27.240  44.491  0.00  0.00    +0.000 C 
ATOM     35  C   UNL     1      51.520 -27.657  46.513  0.00  0.00    +0.000 C 
ATOM     36  C   UNL     1      52.978 -25.861  44.983  0.00  0.00    +0.000 C 
ATOM     37  C   UNL     1      52.304 -25.144  45.992  0.00  0.00    +0.000 C 
ATOM     38  C   UNL     1      51.634 -26.207  46.632  0.00  0.00    +0.000 C 
ATOM     39  C   UNL     1      52.133 -28.183  45.225  0.00  0.00    +0.000 C 
ATOM     40  C   UNL     1      52.763 -27.241  42.969  0.00  0.00    +0.000 C 
ATOM     41  C   UNL     1      54.552 -27.751  44.711  0.00  0.00    +0.000 C 
ATOM     42  C   UNL     1      52.116 -28.365  47.733  0.00  0.00    +0.000 C 
BRANCH  35  43
ATOM     43  O   UNL     1      50.147 -27.980  46.538  0.00  0.00    +0.000 OA
ATOM     44  H   UNL     1      49.868 -27.708  45.644  0.00  0.00    +0.000 HD
ENDBRANCH  35  43
BRANCH  37  45
ATOM     45  O   UNL     1      53.005 -24.205  46.738  0.00  0.00    +0.000 OA
BRANCH  45  47
ATOM     46  O   UNL     1      54.350 -25.511  48.148  0.00  0.00    +0.000 OA
ATOM     47  C   UNL     1      54.148 -24.756  47.215  0.00  0.00    +0.000 C 
ATOM     48  C   UNL     1      55.374 -24.355  46.473  0.00  0.00    +0.000 C 
ENDBRANCH  45  47
ENDBRANCH  37  45
ENDBRANCH  32  39
ENDBRANCH  30  33
ENDBRANCH  29  30
ENDBRANCH  27  29
ENDBRANCH  26  28
ENDBRANCH   1  25
TORSDOF 13
ENDMDL
MODEL 7
REMARK VINA RESULT:      -7.1      7.771     13.598
REMARK  Name = 5289155_Peridinin.pdbqt.pdb
REMARK  13 active torsions:
REMARK  status: ('A' for Active; 'I' for Inactive)
REMARK    1  A    between atoms: C_1  and  C_3
REMARK    2  A    between atoms: C_3  and  C_25
REMARK    3  A    between atoms: C_6  and  C_12
REMARK    4  A    between atoms: C_11  and  C_14
REMARK    5  A    between atoms: C_19  and  O_23
REMARK    6  A    between atoms: C_26  and  C_28
REMARK    7  A    between atoms: C_27  and  C_31
REMARK    8  A    between atoms: C_29  and  C_31
REMARK    9  A    between atoms: C_29  and  C_42
REMARK   10  A    between atoms: C_33  and  O_43
REMARK   11  A    between atoms: C_35  and  O_45
REMARK   12  A    between atoms: C_37  and  C_41
REMARK   13  A    between atoms: O_45  and  C_47
REMARK                            x       y       z     vdW  Elec       q    Type
REMARK                         _______ _______ _______ _____ _____    ______ ____
ROOT
ATOM      1  C   UNL     1      49.046 -37.875  49.241  0.00  0.00    +0.000 C 
ENDROOT
BRANCH   1   2
ATOM      2  C   UNL     1      48.683 -38.786  50.089  0.00  0.00    +0.000 C 
ATOM      3  C   UNL     1      48.275 -38.403  51.478  0.00  0.00    +0.000 C 
ATOM      4  O   UNL     1      49.431 -41.840  48.325  0.00  0.00    +0.000 OA
ATOM      5  O   UNL     1      50.001 -44.022  47.790  0.00  0.00    +0.000 OA
ATOM      6  C   UNL     1      48.554 -43.530  49.661  0.00  0.00    +0.000 C 
ATOM      7  C   UNL     1      48.109 -42.421  50.127  0.00  0.00    +0.000 C 
ATOM      8  C   UNL     1      49.408 -43.221  48.490  0.00  0.00    +0.000 C 
ATOM      9  C   UNL     1      48.587 -41.382  49.333  0.00  0.00    +0.000 C 
ATOM     10  C   UNL     1      48.635 -40.142  49.693  0.00  0.00    +0.000 C 
BRANCH   6  12
ATOM     11  C   UNL     1      48.021 -45.874  50.675  0.00  0.00    +0.000 C 
ATOM     12  C   UNL     1      48.269 -44.793  50.213  0.00  0.00    +0.000 C 
BRANCH  11  14
ATOM     13  O   UNL     1      48.228 -48.226  50.350  0.00  0.00    +0.000 OA
ATOM     14  C   UNL     1      47.713 -47.184  51.227  0.00  0.00    +0.000 C 
ATOM     15  C   UNL     1      48.867 -48.130  51.621  0.00  0.00    +0.000 C 
ATOM     16  C   UNL     1      46.302 -47.440  51.863  0.00  0.00    +0.000 C 
ATOM     17  C   UNL     1      48.547 -49.232  52.471  0.00  0.00    +0.000 C 
ATOM     18  C   UNL     1      46.385 -48.705  52.597  0.00  0.00    +0.000 C 
ATOM     19  C   UNL     1      47.327 -49.663  53.019  0.00  0.00    +0.000 C 
ATOM     20  C   UNL     1      50.345 -47.739  51.537  0.00  0.00    +0.000 C 
ATOM     21  C   UNL     1      46.060 -46.256  52.837  0.00  0.00    +0.000 C 
ATOM     22  C   UNL     1      45.291 -47.468  50.696  0.00  0.00    +0.000 C 
BRANCH  19  23
ATOM     23  O   UNL     1      47.238 -50.257  54.242  0.00  0.00    +0.000 OA
ATOM     24  H   UNL     1      46.347 -50.181  54.627  0.00  0.00    +0.000 HD
ENDBRANCH  19  23
ENDBRANCH  11  14
ENDBRANCH   6  12
ENDBRANCH   1   2
BRANCH   1  25
ATOM     25  C   UNL     1      49.477 -36.798  48.239  0.00  0.00    +0.000 C 
ATOM     26  C   UNL     1      49.808 -35.953  47.455  0.00  0.00    +0.000 C 
BRANCH  26  28
ATOM     27  C   UNL     1      50.552 -34.020  45.674  0.00  0.00    +0.000 C 
ATOM     28  C   UNL     1      50.225 -34.871  46.453  0.00  0.00    +0.000 C 
BRANCH  27  29
ATOM     29  C   UNL     1      50.971 -32.927  44.682  0.00  0.00    +0.000 C 
BRANCH  29  30
ATOM     30  C   UNL     1      51.328 -31.998  43.853  0.00  0.00    +0.000 C 
ATOM     31  C   UNL     1      50.350 -31.455  42.857  0.00  0.00    +0.000 C 
BRANCH  30  33
ATOM     32  C   UNL     1      53.802 -31.134  43.851  0.00  0.00    +0.000 C 
ATOM     33  C   UNL     1      52.667 -31.530  43.850  0.00  0.00    +0.000 C 
BRANCH  32  39
ATOM     34  C   UNL     1      55.982 -30.873  42.643  0.00  0.00    +0.000 C 
ATOM     35  C   UNL     1      55.653 -30.061  45.092  0.00  0.00    +0.000 C 
ATOM     36  C   UNL     1      57.191 -30.050  42.785  0.00  0.00    +0.000 C 
ATOM     37  C   UNL     1      57.810 -29.215  43.738  0.00  0.00    +0.000 C 
ATOM     38  C   UNL     1      56.892 -29.348  44.801  0.00  0.00    +0.000 C 
ATOM     39  C   UNL     1      55.048 -30.704  43.854  0.00  0.00    +0.000 C 
ATOM     40  C   UNL     1      55.236 -30.412  41.353  0.00  0.00    +0.000 C 
ATOM     41  C   UNL     1      56.373 -32.370  42.523  0.00  0.00    +0.000 C 
ATOM     42  C   UNL     1      55.853 -31.096  46.204  0.00  0.00    +0.000 C 
BRANCH  35  43
ATOM     43  O   UNL     1      54.738 -29.128  45.624  0.00  0.00    +0.000 OA
ATOM     44  H   UNL     1      54.726 -29.385  46.565  0.00  0.00    +0.000 HD
ENDBRANCH  35  43
BRANCH  37  45
ATOM     45  O   UNL     1      59.173 -29.346  43.967  0.00  0.00    +0.000 OA
BRANCH  45  47
ATOM     46  O   UNL     1      59.362 -28.150  45.976  0.00  0.00    +0.000 OA
ATOM     47  C   UNL     1      59.442 -29.145  45.281  0.00  0.00    +0.000 C 
ATOM     48  C   UNL     1      59.934 -30.356  45.994  0.00  0.00    +0.000 C 
ENDBRANCH  45  47
ENDBRANCH  37  45
ENDBRANCH  32  39
ENDBRANCH  30  33
ENDBRANCH  29  30
ENDBRANCH  27  29
ENDBRANCH  26  28
ENDBRANCH   1  25
TORSDOF 13
ENDMDL
MODEL 8
REMARK VINA RESULT:      -7.1      2.503     18.310
REMARK  Name = 5289155_Peridinin.pdbqt.pdb
REMARK  13 active torsions:
REMARK  status: ('A' for Active; 'I' for Inactive)
REMARK    1  A    between atoms: C_1  and  C_3
REMARK    2  A    between atoms: C_3  and  C_25
REMARK    3  A    between atoms: C_6  and  C_12
REMARK    4  A    between atoms: C_11  and  C_14
REMARK    5  A    between atoms: C_19  and  O_23
REMARK    6  A    between atoms: C_26  and  C_28
REMARK    7  A    between atoms: C_27  and  C_31
REMARK    8  A    between atoms: C_29  and  C_31
REMARK    9  A    between atoms: C_29  and  C_42
REMARK   10  A    between atoms: C_33  and  O_43
REMARK   11  A    between atoms: C_35  and  O_45
REMARK   12  A    between atoms: C_37  and  C_41
REMARK   13  A    between atoms: O_45  and  C_47
REMARK                            x       y       z     vdW  Elec       q    Type
REMARK                         _______ _______ _______ _____ _____    ______ ____
ROOT
ATOM      1  C   UNL     1      46.188 -48.002  52.778  0.00  0.00    +0.000 C 
ENDROOT
BRANCH   1   2
ATOM      2  C   UNL     1      45.907 -46.897  52.161  0.00  0.00    +0.000 C 
ATOM      3  C   UNL     1      44.483 -46.457  52.015  0.00  0.00    +0.000 C 
ATOM      4  O   UNL     1      49.104 -45.914  50.818  0.00  0.00    +0.000 OA
ATOM      5  O   UNL     1      50.788 -45.020  49.499  0.00  0.00    +0.000 OA
ATOM      6  C   UNL     1      48.750 -43.794  49.927  0.00  0.00    +0.000 C 
ATOM      7  C   UNL     1      47.709 -44.083  50.619  0.00  0.00    +0.000 C 
ATOM      8  C   UNL     1      49.692 -44.934  50.024  0.00  0.00    +0.000 C 
ATOM      9  C   UNL     1      47.895 -45.336  51.197  0.00  0.00    +0.000 C 
ATOM     10  C   UNL     1      46.947 -46.084  51.657  0.00  0.00    +0.000 C 
BRANCH   6  12
ATOM     11  C   UNL     1      49.045 -41.574  48.589  0.00  0.00    +0.000 C 
ATOM     12  C   UNL     1      48.915 -42.598  49.204  0.00  0.00    +0.000 C 
BRANCH  11  14
ATOM     13  O   UNL     1      50.186 -40.502  46.792  0.00  0.00    +0.000 OA
ATOM     14  C   UNL     1      49.192 -40.334  47.844  0.00  0.00    +0.000 C 
ATOM     15  C   UNL     1      48.848 -40.310  46.339  0.00  0.00    +0.000 C 
ATOM     16  C   UNL     1      49.215 -38.969  48.615  0.00  0.00    +0.000 C 
ATOM     17  C   UNL     1      48.661 -39.031  45.732  0.00  0.00    +0.000 C 
ATOM     18  C   UNL     1      49.059 -37.908  47.616  0.00  0.00    +0.000 C 
ATOM     19  C   UNL     1      48.766 -37.729  46.251  0.00  0.00    +0.000 C 
ATOM     20  C   UNL     1      48.277 -41.514  45.584  0.00  0.00    +0.000 C 
ATOM     21  C   UNL     1      47.993 -39.007  49.570  0.00  0.00    +0.000 C 
ATOM     22  C   UNL     1      50.561 -38.912  49.371  0.00  0.00    +0.000 C 
BRANCH  19  23
ATOM     23  O   UNL     1      47.982 -36.701  45.821  0.00  0.00    +0.000 OA
ATOM     24  H   UNL     1      47.577 -36.881  44.954  0.00  0.00    +0.000 HD
ENDBRANCH  19  23
ENDBRANCH  11  14
ENDBRANCH   6  12
ENDBRANCH   1   2
BRANCH   1  25
ATOM     25  C   UNL     1      46.520 -49.308  53.508  0.00  0.00    +0.000 C 
ATOM     26  C   UNL     1      46.778 -50.329  54.084  0.00  0.00    +0.000 C 
BRANCH  26  28
ATOM     27  C   UNL     1      47.362 -52.648  55.402  0.00  0.00    +0.000 C 
ATOM     28  C   UNL     1      47.104 -51.629  54.826  0.00  0.00    +0.000 C 
BRANCH  27  29
ATOM     29  C   UNL     1      47.692 -53.956  56.133  0.00  0.00    +0.000 C 
BRANCH  29  30
ATOM     30  C   UNL     1      47.969 -55.056  56.759  0.00  0.00    +0.000 C 
ATOM     31  C   UNL     1      49.285 -55.740  56.543  0.00  0.00    +0.000 C 
BRANCH  30  33
ATOM     32  C   UNL     1      46.181 -56.144  58.336  0.00  0.00    +0.000 C 
ATOM     33  C   UNL     1      47.001 -55.646  57.612  0.00  0.00    +0.000 C 
BRANCH  32  39
ATOM     34  C   UNL     1      45.603 -57.860  60.068  0.00  0.00    +0.000 C 
ATOM     35  C   UNL     1      43.834 -56.210  59.112  0.00  0.00    +0.000 C 
ATOM     36  C   UNL     1      44.528 -58.070  61.049  0.00  0.00    +0.000 C 
ATOM     37  C   UNL     1      43.238 -57.582  61.339  0.00  0.00    +0.000 C 
ATOM     38  C   UNL     1      43.083 -56.671  60.275  0.00  0.00    +0.000 C 
ATOM     39  C   UNL     1      45.278 -56.686  59.128  0.00  0.00    +0.000 C 
ATOM     40  C   UNL     1      46.913 -57.541  60.852  0.00  0.00    +0.000 C 
ATOM     41  C   UNL     1      45.796 -59.141  59.213  0.00  0.00    +0.000 C 
ATOM     42  C   UNL     1      43.140 -56.609  57.806  0.00  0.00    +0.000 C 
BRANCH  35  43
ATOM     43  O   UNL     1      43.811 -54.799  59.121  0.00  0.00    +0.000 OA
ATOM     44  H   UNL     1      44.646 -54.590  58.661  0.00  0.00    +0.000 HD
ENDBRANCH  35  43
BRANCH  37  45
ATOM     45  O   UNL     1      42.227 -58.485  61.644  0.00  0.00    +0.000 OA
BRANCH  45  47
ATOM     46  O   UNL     1      40.052 -57.613  61.746  0.00  0.00    +0.000 OA
ATOM     47  C   UNL     1      41.168 -57.830  62.180  0.00  0.00    +0.000 C 
ATOM     48  C   UNL     1      41.422 -57.266  63.533  0.00  0.00    +0.000 C 
ENDBRANCH  45  47
ENDBRANCH  37  45
ENDBRANCH  32  39
ENDBRANCH  30  33
ENDBRANCH  29  30
ENDBRANCH  27  29
ENDBRANCH  26  28
ENDBRANCH   1  25
TORSDOF 13
ENDMDL
MODEL 9
REMARK VINA RESULT:      -7.0      9.144     16.678
REMARK  Name = 5289155_Peridinin.pdbqt.pdb
REMARK  13 active torsions:
REMARK  status: ('A' for Active; 'I' for Inactive)
REMARK    1  A    between atoms: C_1  and  C_3
REMARK    2  A    between atoms: C_3  and  C_25
REMARK    3  A    between atoms: C_6  and  C_12
REMARK    4  A    between atoms: C_11  and  C_14
REMARK    5  A    between atoms: C_19  and  O_23
REMARK    6  A    between atoms: C_26  and  C_28
REMARK    7  A    between atoms: C_27  and  C_31
REMARK    8  A    between atoms: C_29  and  C_31
REMARK    9  A    between atoms: C_29  and  C_42
REMARK   10  A    between atoms: C_33  and  O_43
REMARK   11  A    between atoms: C_35  and  O_45
REMARK   12  A    between atoms: C_37  and  C_41
REMARK   13  A    between atoms: O_45  and  C_47
REMARK                            x       y       z     vdW  Elec       q    Type
REMARK                         _______ _______ _______ _____ _____    ______ ____
ROOT
ATOM      1  C   UNL     1      49.659 -35.049  45.912  0.00  0.00    +0.000 C 
ENDROOT
BRANCH   1   2
ATOM      2  C   UNL     1      49.252 -36.271  45.773  0.00  0.00    +0.000 C 
ATOM      3  C   UNL     1      48.445 -36.664  44.574  0.00  0.00    +0.000 C 
ATOM      4  O   UNL     1      50.154 -37.762  48.927  0.00  0.00    +0.000 OA
ATOM      5  O   UNL     1      50.220 -39.087  50.829  0.00  0.00    +0.000 OA
ATOM      6  C   UNL     1      49.710 -40.030  48.664  0.00  0.00    +0.000 C 
ATOM      7  C   UNL     1      49.627 -39.499  47.500  0.00  0.00    +0.000 C 
ATOM      8  C   UNL     1      50.057 -38.960  49.629  0.00  0.00    +0.000 C 
ATOM      9  C   UNL     1      49.919 -38.142  47.609  0.00  0.00    +0.000 C 
ATOM     10  C   UNL     1      49.600 -37.247  46.734  0.00  0.00    +0.000 C 
BRANCH   6  12
ATOM     11  C   UNL     1      49.293 -42.556  49.169  0.00  0.00    +0.000 C 
ATOM     12  C   UNL     1      49.482 -41.393  48.932  0.00  0.00    +0.000 C 
BRANCH  11  14
ATOM     13  O   UNL     1      49.570 -44.275  50.797  0.00  0.00    +0.000 OA
ATOM     14  C   UNL     1      49.072 -43.963  49.464  0.00  0.00    +0.000 C 
ATOM     15  C   UNL     1      48.155 -44.354  50.642  0.00  0.00    +0.000 C 
ATOM     16  C   UNL     1      49.338 -45.035  48.350  0.00  0.00    +0.000 C 
ATOM     17  C   UNL     1      47.682 -45.701  50.682  0.00  0.00    +0.000 C 
ATOM     18  C   UNL     1      48.747 -46.293  48.815  0.00  0.00    +0.000 C 
ATOM     19  C   UNL     1      47.925 -46.799  49.839  0.00  0.00    +0.000 C 
ATOM     20  C   UNL     1      47.387 -43.335  51.489  0.00  0.00    +0.000 C 
ATOM     21  C   UNL     1      48.601 -44.517  47.086  0.00  0.00    +0.000 C 
ATOM     22  C   UNL     1      50.869 -45.105  48.162  0.00  0.00    +0.000 C 
BRANCH  19  23
ATOM     23  O   UNL     1      46.987 -47.756  49.591  0.00  0.00    +0.000 OA
ATOM     24  H   UNL     1      46.691 -47.753  48.663  0.00  0.00    +0.000 HD
ENDBRANCH  19  23
ENDBRANCH  11  14
ENDBRANCH   6  12
ENDBRANCH   1   2
BRANCH   1  25
ATOM     25  C   UNL     1      50.142 -33.603  46.076  0.00  0.00    +0.000 C 
ATOM     26  C   UNL     1      50.514 -32.469  46.203  0.00  0.00    +0.000 C 
BRANCH  26  28
ATOM     27  C   UNL     1      51.354 -29.886  46.490  0.00  0.00    +0.000 C 
ATOM     28  C   UNL     1      50.982 -31.019  46.364  0.00  0.00    +0.000 C 
BRANCH  27  29
ATOM     29  C   UNL     1      51.835 -28.439  46.655  0.00  0.00    +0.000 C 
BRANCH  29  30
ATOM     30  C   UNL     1      52.244 -27.217  46.783  0.00  0.00    +0.000 C 
ATOM     31  C   UNL     1      53.479 -26.752  46.072  0.00  0.00    +0.000 C 
BRANCH  30  33
ATOM     32  C   UNL     1      50.962 -25.572  48.371  0.00  0.00    +0.000 C 
ATOM     33  C   UNL     1      51.552 -26.327  47.644  0.00  0.00    +0.000 C 
BRANCH  32  39
ATOM     34  C   UNL     1      49.372 -23.653  48.637  0.00  0.00    +0.000 C 
ATOM     35  C   UNL     1      50.505 -24.803  50.677  0.00  0.00    +0.000 C 
ATOM     36  C   UNL     1      48.548 -23.089  49.715  0.00  0.00    +0.000 C 
ATOM     37  C   UNL     1      48.416 -23.177  51.116  0.00  0.00    +0.000 C 
ATOM     38  C   UNL     1      49.465 -24.076  51.397  0.00  0.00    +0.000 C 
ATOM     39  C   UNL     1      50.312 -24.749  49.169  0.00  0.00    +0.000 C 
ATOM     40  C   UNL     1      48.414 -24.274  47.574  0.00  0.00    +0.000 C 
ATOM     41  C   UNL     1      50.231 -22.536  47.987  0.00  0.00    +0.000 C 
ATOM     42  C   UNL     1      51.902 -24.313  51.068  0.00  0.00    +0.000 C 
BRANCH  35  43
ATOM     43  O   UNL     1      50.458 -26.148  51.102  0.00  0.00    +0.000 OA
ATOM     44  H   UNL     1      50.732 -26.616  50.290  0.00  0.00    +0.000 HD
ENDBRANCH  35  43
BRANCH  37  45
ATOM     45  O   UNL     1      48.274 -22.010  51.855  0.00  0.00    +0.000 OA
BRANCH  45  47
ATOM     46  O   UNL     1      45.986 -21.755  51.404  0.00  0.00    +0.000 OA
ATOM     47  C   UNL     1      47.137 -21.368  51.491  0.00  0.00    +0.000 C 
ATOM     48  C   UNL     1      47.335 -19.941  51.120  0.00  0.00    +0.000 C 
ENDBRANCH  45  47
ENDBRANCH  37  45
ENDBRANCH  32  39
ENDBRANCH  30  33
ENDBRANCH  29  30
ENDBRANCH  27  29
ENDBRANCH  26  28
ENDBRANCH   1  25
TORSDOF 13
ENDMDL
