MODEL 1
REMARK VINA RESULT:      -6.7      0.000      0.000
REMARK  Name = 5318517_Andrographolide.pdbqt.pdb
REMARK  6 active torsions:
REMARK  status: ('A' for Active; 'I' for Inactive)
REMARK    1  A    between atoms: C_3  and  C_16
REMARK    2  A    between atoms: C_4  and  C_19
REMARK    3  A    between atoms: C_6  and  O_14
REMARK    4  A    between atoms: C_16  and  O_17
REMARK    5  A    between atoms: C_22  and  C_23
REMARK    6  A    between atoms: C_24  and  O_27
REMARK                            x       y       z     vdW  Elec       q    Type
REMARK                         _______ _______ _______ _____ _____    ______ ____
ROOT
ATOM      1  C   UNL     1      48.029 -45.521  49.924  0.00  0.00    +0.000 C 
ATOM      2  C   UNL     1      48.453 -46.985  50.252  0.00  0.00    +0.000 C 
ATOM      3  C   UNL     1      47.753 -47.828  51.333  0.00  0.00    +0.000 C 
ATOM      4  C   UNL     1      49.137 -44.571  49.389  0.00  0.00    +0.000 C 
ATOM      5  C   UNL     1      47.492 -45.004  51.179  0.00  0.00    +0.000 C 
ATOM      6  C   UNL     1      47.028 -47.056  52.477  0.00  0.00    +0.000 C 
ATOM      7  C   UNL     1      49.569 -47.439  49.494  0.00  0.00    +0.000 C 
ATOM      8  C   UNL     1      46.991 -45.651  52.426  0.00  0.00    +0.000 C 
ATOM      9  C   UNL     1      46.911 -45.598  48.840  0.00  0.00    +0.000 C 
ATOM     10  C   UNL     1      50.436 -46.515  48.700  0.00  0.00    +0.000 C 
ATOM     11  C   UNL     1      50.267 -45.117  48.624  0.00  0.00    +0.000 C 
ATOM     12  C   UNL     1      48.847 -48.704  52.043  0.00  0.00    +0.000 C 
ATOM     13  C   UNL     1      51.249 -44.398  48.077  0.00  0.00    +0.000 C 
ENDROOT
BRANCH   6  14
ATOM     14  O   UNL     1      46.263 -47.731  53.413  0.00  0.00    +0.000 OA
ATOM     15  H   UNL     1      46.221 -47.260  54.264  0.00  0.00    +0.000 HD
ENDBRANCH   6  14
BRANCH   4  16
ATOM     16  C   UNL     1      48.999 -43.148  49.528  0.00  0.00    +0.000 C 
ATOM     17  C   UNL     1      48.841 -41.632  49.671  0.00  0.00    +0.000 C 
BRANCH  17  20
ATOM     18  O   UNL     1      47.721 -38.336  50.427  0.00  0.00    +0.000 OA
ATOM     19  O   UNL     1      46.376 -40.236  50.581  0.00  0.00    +0.000 OA
ATOM     20  C   UNL     1      48.701 -40.350  49.798  0.00  0.00    +0.000 C 
ATOM     21  C   UNL     1      49.697 -39.330  49.590  0.00  0.00    +0.000 C 
ATOM     22  C   UNL     1      47.435 -39.695  50.314  0.00  0.00    +0.000 C 
ATOM     23  C   UNL     1      48.976 -38.215  50.022  0.00  0.00    +0.000 C 
BRANCH  21  24
ATOM     24  O   UNL     1      51.006 -39.572  49.898  0.00  0.00    +0.000 OA
ATOM     25  H   UNL     1      51.547 -39.706  49.099  0.00  0.00    +0.000 HD
ENDBRANCH  21  24
ENDBRANCH  17  20
ENDBRANCH   4  16
BRANCH   3  26
ATOM     26  C   UNL     1      46.758 -48.702  50.649  0.00  0.00    +0.000 C 
BRANCH  26  27
ATOM     27  O   UNL     1      45.864 -49.492  50.046  0.00  0.00    +0.000 OA
ATOM     28  H   UNL     1      46.299 -50.280  49.673  0.00  0.00    +0.000 HD
ENDBRANCH  26  27
ENDBRANCH   3  26
TORSDOF 6
ENDMDL
MODEL 2
REMARK VINA RESULT:      -6.7      6.603      8.679
REMARK  Name = 5318517_Andrographolide.pdbqt.pdb
REMARK  6 active torsions:
REMARK  status: ('A' for Active; 'I' for Inactive)
REMARK    1  A    between atoms: C_3  and  C_16
REMARK    2  A    between atoms: C_4  and  C_19
REMARK    3  A    between atoms: C_6  and  O_14
REMARK    4  A    between atoms: C_16  and  O_17
REMARK    5  A    between atoms: C_22  and  C_23
REMARK    6  A    between atoms: C_24  and  O_27
REMARK                            x       y       z     vdW  Elec       q    Type
REMARK                         _______ _______ _______ _____ _____    ______ ____
ROOT
ATOM      1  C   UNL     1      48.911 -38.081  45.896  0.00  0.00    +0.000 C 
ATOM      2  C   UNL     1      49.625 -38.306  44.529  0.00  0.00    +0.000 C 
ATOM      3  C   UNL     1      49.906 -39.710  43.963  0.00  0.00    +0.000 C 
ATOM      4  C   UNL     1      49.276 -36.786  46.675  0.00  0.00    +0.000 C 
ATOM      5  C   UNL     1      49.256 -39.256  46.691  0.00  0.00    +0.000 C 
ATOM      6  C   UNL     1      50.008 -40.881  44.986  0.00  0.00    +0.000 C 
ATOM      7  C   UNL     1      50.028 -37.100  43.890  0.00  0.00    +0.000 C 
ATOM      8  C   UNL     1      49.770 -40.612  46.346  0.00  0.00    +0.000 C 
ATOM      9  C   UNL     1      47.378 -38.043  45.612  0.00  0.00    +0.000 C 
ATOM     10  C   UNL     1      50.048 -35.781  44.594  0.00  0.00    +0.000 C 
ATOM     11  C   UNL     1      49.696 -35.581  45.945  0.00  0.00    +0.000 C 
ATOM     12  C   UNL     1      51.299 -39.665  43.236  0.00  0.00    +0.000 C 
ATOM     13  C   UNL     1      49.988 -34.404  46.500  0.00  0.00    +0.000 C 
ENDROOT
BRANCH   6  14
ATOM     14  O   UNL     1      50.125 -42.191  44.554  0.00  0.00    +0.000 OA
ATOM     15  H   UNL     1      49.328 -42.498  44.087  0.00  0.00    +0.000 HD
ENDBRANCH   6  14
BRANCH   4  16
ATOM     16  C   UNL     1      49.083 -36.719  48.097  0.00  0.00    +0.000 C 
ATOM     17  C   UNL     1      48.889 -36.651  49.614  0.00  0.00    +0.000 C 
BRANCH  17  20
ATOM     18  O   UNL     1      47.641 -36.239  52.925  0.00  0.00    +0.000 OA
ATOM     19  O   UNL     1      46.546 -35.467  51.015  0.00  0.00    +0.000 OA
ATOM     20  C   UNL     1      48.730 -36.585  50.899  0.00  0.00    +0.000 C 
ATOM     21  C   UNL     1      49.599 -37.108  51.922  0.00  0.00    +0.000 C 
ATOM     22  C   UNL     1      47.490 -36.014  51.559  0.00  0.00    +0.000 C 
ATOM     23  C   UNL     1      48.811 -36.848  53.046  0.00  0.00    +0.000 C 
BRANCH  21  24
ATOM     24  O   UNL     1      50.289 -38.268  51.713  0.00  0.00    +0.000 OA
ATOM     25  H   UNL     1      49.837 -39.034  52.108  0.00  0.00    +0.000 HD
ENDBRANCH  21  24
ENDBRANCH  17  20
ENDBRANCH   4  16
BRANCH   3  26
ATOM     26  C   UNL     1      48.826 -40.028  42.987  0.00  0.00    +0.000 C 
BRANCH  26  27
ATOM     27  O   UNL     1      47.852 -40.301  42.113  0.00  0.00    +0.000 OA
ATOM     28  H   UNL     1      48.166 -40.175  41.199  0.00  0.00    +0.000 HD
ENDBRANCH  26  27
ENDBRANCH   3  26
TORSDOF 6
ENDMDL
MODEL 3
REMARK VINA RESULT:      -6.6      3.653      5.325
REMARK  Name = 5318517_Andrographolide.pdbqt.pdb
REMARK  6 active torsions:
REMARK  status: ('A' for Active; 'I' for Inactive)
REMARK    1  A    between atoms: C_3  and  C_16
REMARK    2  A    between atoms: C_4  and  C_19
REMARK    3  A    between atoms: C_6  and  O_14
REMARK    4  A    between atoms: C_16  and  O_17
REMARK    5  A    between atoms: C_22  and  C_23
REMARK    6  A    between atoms: C_24  and  O_27
REMARK                            x       y       z     vdW  Elec       q    Type
REMARK                         _______ _______ _______ _____ _____    ______ ____
ROOT
ATOM      1  C   UNL     1      47.992 -42.009  48.318  0.00  0.00    +0.000 C 
ATOM      2  C   UNL     1      47.315 -43.325  47.827  0.00  0.00    +0.000 C 
ATOM      3  C   UNL     1      46.663 -43.452  46.439  0.00  0.00    +0.000 C 
ATOM      4  C   UNL     1      47.984 -41.743  49.851  0.00  0.00    +0.000 C 
ATOM      5  C   UNL     1      47.274 -40.944  47.624  0.00  0.00    +0.000 C 
ATOM      6  C   UNL     1      46.167 -42.138  45.764  0.00  0.00    +0.000 C 
ATOM      7  C   UNL     1      47.321 -44.366  48.799  0.00  0.00    +0.000 C 
ATOM      8  C   UNL     1      46.401 -40.914  46.416  0.00  0.00    +0.000 C 
ATOM      9  C   UNL     1      49.480 -42.057  47.856  0.00  0.00    +0.000 C 
ATOM     10  C   UNL     1      47.654 -44.127  50.236  0.00  0.00    +0.000 C 
ATOM     11  C   UNL     1      47.977 -42.872  50.792  0.00  0.00    +0.000 C 
ATOM     12  C   UNL     1      45.386 -44.356  46.590  0.00  0.00    +0.000 C 
ATOM     13  C   UNL     1      48.017 -42.769  52.122  0.00  0.00    +0.000 C 
ENDROOT
BRANCH   6  14
ATOM     14  O   UNL     1      45.691 -42.146  44.464  0.00  0.00    +0.000 OA
ATOM     15  H   UNL     1      44.749 -41.905  44.415  0.00  0.00    +0.000 HD
ENDBRANCH   6  14
BRANCH   4  16
ATOM     16  C   UNL     1      48.112 -40.404  50.353  0.00  0.00    +0.000 C 
ATOM     17  C   UNL     1      48.260 -38.975  50.884  0.00  0.00    +0.000 C 
BRANCH  17  20
ATOM     18  O   UNL     1      47.731 -35.677  52.120  0.00  0.00    +0.000 OA
ATOM     19  O   UNL     1      46.049 -37.011  51.206  0.00  0.00    +0.000 OA
ATOM     20  C   UNL     1      48.383 -37.763  51.324  0.00  0.00    +0.000 C 
ATOM     21  C   UNL     1      49.580 -37.118  51.804  0.00  0.00    +0.000 C 
ATOM     22  C   UNL     1      47.212 -36.820  51.515  0.00  0.00    +0.000 C 
ATOM     23  C   UNL     1      49.026 -35.917  52.254  0.00  0.00    +0.000 C 
BRANCH  21  24
ATOM     24  O   UNL     1      50.526 -37.835  52.479  0.00  0.00    +0.000 OA
ATOM     25  H   UNL     1      50.717 -37.449  53.352  0.00  0.00    +0.000 HD
ENDBRANCH  21  24
ENDBRANCH  17  20
ENDBRANCH   4  16
BRANCH   3  26
ATOM     26  C   UNL     1      47.652 -44.105  45.534  0.00  0.00    +0.000 C 
BRANCH  26  27
ATOM     27  O   UNL     1      48.535 -44.700  44.727  0.00  0.00    +0.000 OA
ATOM     28  H   UNL     1      48.369 -45.660  44.687  0.00  0.00    +0.000 HD
ENDBRANCH  26  27
ENDBRANCH   3  26
TORSDOF 6
ENDMDL
MODEL 4
REMARK VINA RESULT:      -6.4      1.302      1.719
REMARK  Name = 5318517_Andrographolide.pdbqt.pdb
REMARK  6 active torsions:
REMARK  status: ('A' for Active; 'I' for Inactive)
REMARK    1  A    between atoms: C_3  and  C_16
REMARK    2  A    between atoms: C_4  and  C_19
REMARK    3  A    between atoms: C_6  and  O_14
REMARK    4  A    between atoms: C_16  and  O_17
REMARK    5  A    between atoms: C_22  and  C_23
REMARK    6  A    between atoms: C_24  and  O_27
REMARK                            x       y       z     vdW  Elec       q    Type
REMARK                         _______ _______ _______ _____ _____    ______ ____
ROOT
ATOM      1  C   UNL     1      48.158 -44.969  49.661  0.00  0.00    +0.000 C 
ATOM      2  C   UNL     1      48.340 -46.453  50.102  0.00  0.00    +0.000 C 
ATOM      3  C   UNL     1      47.618 -47.048  51.325  0.00  0.00    +0.000 C 
ATOM      4  C   UNL     1      49.357 -44.301  48.930  0.00  0.00    +0.000 C 
ATOM      5  C   UNL     1      47.864 -44.250  50.897  0.00  0.00    +0.000 C 
ATOM      6  C   UNL     1      47.176 -46.054  52.441  0.00  0.00    +0.000 C 
ATOM      7  C   UNL     1      49.265 -47.178  49.299  0.00  0.00    +0.000 C 
ATOM      8  C   UNL     1      47.392 -44.678  52.245  0.00  0.00    +0.000 C 
ATOM      9  C   UNL     1      46.934 -44.923  48.696  0.00  0.00    +0.000 C 
ATOM     10  C   UNL     1      50.195 -46.511  48.337  0.00  0.00    +0.000 C 
ATOM     11  C   UNL     1      50.278 -45.119  48.128  0.00  0.00    +0.000 C 
ATOM     12  C   UNL     1      48.604 -48.053  52.023  0.00  0.00    +0.000 C 
ATOM     13  C   UNL     1      51.310 -44.654  47.422  0.00  0.00    +0.000 C 
ENDROOT
BRANCH   6  14
ATOM     14  O   UNL     1      46.406 -46.484  53.508  0.00  0.00    +0.000 OA
ATOM     15  H   UNL     1      46.703 -47.344  53.854  0.00  0.00    +0.000 HD
ENDBRANCH   6  14
BRANCH   4  16
ATOM     16  C   UNL     1      49.498 -42.872  48.929  0.00  0.00    +0.000 C 
ATOM     17  C   UNL     1      49.659 -41.349  48.932  0.00  0.00    +0.000 C 
BRANCH  17  20
ATOM     18  O   UNL     1      49.861 -37.899  48.070  0.00  0.00    +0.000 OA
ATOM     19  O   UNL     1      49.823 -39.631  46.508  0.00  0.00    +0.000 OA
ATOM     20  C   UNL     1      49.800 -40.061  48.926  0.00  0.00    +0.000 C 
ATOM     21  C   UNL     1      49.850 -39.175  50.061  0.00  0.00    +0.000 C 
ATOM     22  C   UNL     1      49.828 -39.229  47.658  0.00  0.00    +0.000 C 
ATOM     23  C   UNL     1      49.862 -37.948  49.394  0.00  0.00    +0.000 C 
BRANCH  21  24
ATOM     24  O   UNL     1      49.108 -39.442  51.177  0.00  0.00    +0.000 OA
ATOM     25  H   UNL     1      48.222 -39.774  50.950  0.00  0.00    +0.000 HD
ENDBRANCH  21  24
ENDBRANCH  17  20
ENDBRANCH   4  16
BRANCH   3  26
ATOM     26  C   UNL     1      46.412 -47.770  50.830  0.00  0.00    +0.000 C 
BRANCH  26  27
ATOM     27  O   UNL     1      45.328 -48.408  50.378  0.00  0.00    +0.000 OA
ATOM     28  H   UNL     1      44.526 -47.878  50.538  0.00  0.00    +0.000 HD
ENDBRANCH  26  27
ENDBRANCH   3  26
TORSDOF 6
ENDMDL
MODEL 5
REMARK VINA RESULT:      -6.3     15.273     16.952
REMARK  Name = 5318517_Andrographolide.pdbqt.pdb
REMARK  6 active torsions:
REMARK  status: ('A' for Active; 'I' for Inactive)
REMARK    1  A    between atoms: C_3  and  C_16
REMARK    2  A    between atoms: C_4  and  C_19
REMARK    3  A    between atoms: C_6  and  O_14
REMARK    4  A    between atoms: C_16  and  O_17
REMARK    5  A    between atoms: C_22  and  C_23
REMARK    6  A    between atoms: C_24  and  O_27
REMARK                            x       y       z     vdW  Elec       q    Type
REMARK                         _______ _______ _______ _____ _____    ______ ____
ROOT
ATOM      1  C   UNL     1      60.900 -47.760  59.532  0.00  0.00    +0.000 C 
ATOM      2  C   UNL     1      60.365 -48.533  60.775  0.00  0.00    +0.000 C 
ATOM      3  C   UNL     1      59.313 -47.939  61.730  0.00  0.00    +0.000 C 
ATOM      4  C   UNL     1      62.350 -48.085  59.073  0.00  0.00    +0.000 C 
ATOM      5  C   UNL     1      60.799 -46.351  59.903  0.00  0.00    +0.000 C 
ATOM      6  C   UNL     1      59.213 -46.385  61.799  0.00  0.00    +0.000 C 
ATOM      7  C   UNL     1      60.974 -49.806  60.961  0.00  0.00    +0.000 C 
ATOM      8  C   UNL     1      60.027 -45.618  60.946  0.00  0.00    +0.000 C 
ATOM      9  C   UNL     1      59.946 -48.083  58.343  0.00  0.00    +0.000 C 
ATOM     10  C   UNL     1      62.211 -50.224  60.233  0.00  0.00    +0.000 C 
ATOM     11  C   UNL     1      62.915 -49.421  59.312  0.00  0.00    +0.000 C 
ATOM     12  C   UNL     1      59.672 -48.403  63.188  0.00  0.00    +0.000 C 
ATOM     13  C   UNL     1      64.124 -49.829  58.923  0.00  0.00    +0.000 C 
ENDROOT
BRANCH   6  14
ATOM     14  O   UNL     1      58.210 -45.772  62.528  0.00  0.00    +0.000 OA
ATOM     15  H   UNL     1      58.117 -46.151  63.420  0.00  0.00    +0.000 HD
ENDBRANCH   6  14
BRANCH   4  16
ATOM     16  C   UNL     1      63.096 -47.129  58.302  0.00  0.00    +0.000 C 
ATOM     17  C   UNL     1      63.881 -46.108  57.476  0.00  0.00    +0.000 C 
BRANCH  17  20
ATOM     18  O   UNL     1      65.861 -43.370  56.348  0.00  0.00    +0.000 OA
ATOM     19  O   UNL     1      64.982 -43.541  58.502  0.00  0.00    +0.000 OA
ATOM     20  C   UNL     1      64.542 -45.236  56.780  0.00  0.00    +0.000 C 
ATOM     21  C   UNL     1      64.939 -45.330  55.398  0.00  0.00    +0.000 C 
ATOM     22  C   UNL     1      65.124 -43.966  57.369  0.00  0.00    +0.000 C 
ATOM     23  C   UNL     1      65.720 -44.176  55.307  0.00  0.00    +0.000 C 
BRANCH  21  24
ATOM     24  O   UNL     1      65.277 -46.538  54.859  0.00  0.00    +0.000 OA
ATOM     25  H   UNL     1      64.942 -47.279  55.394  0.00  0.00    +0.000 HD
ENDBRANCH  21  24
ENDBRANCH  17  20
ENDBRANCH   4  16
BRANCH   3  26
ATOM     26  C   UNL     1      57.983 -48.481  61.330  0.00  0.00    +0.000 C 
BRANCH  26  27
ATOM     27  O   UNL     1      56.794 -48.977  60.978  0.00  0.00    +0.000 OA
ATOM     28  H   UNL     1      56.682 -49.880  61.325  0.00  0.00    +0.000 HD
ENDBRANCH  26  27
ENDBRANCH   3  26
TORSDOF 6
ENDMDL
MODEL 6
REMARK VINA RESULT:      -6.3      3.944      6.061
REMARK  Name = 5318517_Andrographolide.pdbqt.pdb
REMARK  6 active torsions:
REMARK  status: ('A' for Active; 'I' for Inactive)
REMARK    1  A    between atoms: C_3  and  C_16
REMARK    2  A    between atoms: C_4  and  C_19
REMARK    3  A    between atoms: C_6  and  O_14
REMARK    4  A    between atoms: C_16  and  O_17
REMARK    5  A    between atoms: C_22  and  C_23
REMARK    6  A    between atoms: C_24  and  O_27
REMARK                            x       y       z     vdW  Elec       q    Type
REMARK                         _______ _______ _______ _____ _____    ______ ____
ROOT
ATOM      1  C   UNL     1      49.041 -47.566  51.027  0.00  0.00    +0.000 C 
ATOM      2  C   UNL     1      47.567 -47.479  51.525  0.00  0.00    +0.000 C 
ATOM      3  C   UNL     1      46.705 -48.727  51.785  0.00  0.00    +0.000 C 
ATOM      4  C   UNL     1      49.565 -46.380  50.168  0.00  0.00    +0.000 C 
ATOM      5  C   UNL     1      49.097 -48.804  50.254  0.00  0.00    +0.000 C 
ATOM      6  C   UNL     1      47.089 -50.028  51.017  0.00  0.00    +0.000 C 
ATOM      7  C   UNL     1      47.090 -46.144  51.666  0.00  0.00    +0.000 C 
ATOM      8  C   UNL     1      48.228 -50.014  50.192  0.00  0.00    +0.000 C 
ATOM      9  C   UNL     1      49.948 -47.669  52.291  0.00  0.00    +0.000 C 
ATOM     10  C   UNL     1      47.814 -44.965  51.100  0.00  0.00    +0.000 C 
ATOM     11  C   UNL     1      49.015 -45.031  50.363  0.00  0.00    +0.000 C 
ATOM     12  C   UNL     1      45.234 -48.396  51.343  0.00  0.00    +0.000 C 
ATOM     13  C   UNL     1      49.416 -43.933  49.722  0.00  0.00    +0.000 C 
ENDROOT
BRANCH   6  14
ATOM     14  O   UNL     1      46.453 -51.226  51.291  0.00  0.00    +0.000 OA
ATOM     15  H   UNL     1      45.517 -51.101  51.529  0.00  0.00    +0.000 HD
ENDBRANCH   6  14
BRANCH   4  16
ATOM     16  C   UNL     1      50.674 -46.569  49.275  0.00  0.00    +0.000 C 
ATOM     17  C   UNL     1      51.849 -46.778  48.316  0.00  0.00    +0.000 C 
BRANCH  17  20
ATOM     18  O   UNL     1      53.937 -47.270  45.473  0.00  0.00    +0.000 OA
ATOM     19  O   UNL     1      51.623 -47.561  45.455  0.00  0.00    +0.000 OA
ATOM     20  C   UNL     1      52.840 -46.950  47.498  0.00  0.00    +0.000 C 
ATOM     21  C   UNL     1      54.243 -46.750  47.759  0.00  0.00    +0.000 C 
ATOM     22  C   UNL     1      52.663 -47.301  46.034  0.00  0.00    +0.000 C 
ATOM     23  C   UNL     1      54.746 -46.954  46.473  0.00  0.00    +0.000 C 
BRANCH  21  24
ATOM     24  O   UNL     1      54.652 -45.757  48.603  0.00  0.00    +0.000 OA
ATOM     25  H   UNL     1      55.620 -45.747  48.706  0.00  0.00    +0.000 HD
ENDBRANCH  21  24
ENDBRANCH  17  20
ENDBRANCH   4  16
BRANCH   3  26
ATOM     26  C   UNL     1      46.752 -49.011  53.248  0.00  0.00    +0.000 C 
BRANCH  26  27
ATOM     27  O   UNL     1      46.782 -49.264  54.560  0.00  0.00    +0.000 OA
ATOM     28  H   UNL     1      47.615 -49.707  54.805  0.00  0.00    +0.000 HD
ENDBRANCH  26  27
ENDBRANCH   3  26
TORSDOF 6
ENDMDL
MODEL 7
REMARK VINA RESULT:      -6.1      3.111      5.011
REMARK  Name = 5318517_Andrographolide.pdbqt.pdb
REMARK  6 active torsions:
REMARK  status: ('A' for Active; 'I' for Inactive)
REMARK    1  A    between atoms: C_3  and  C_16
REMARK    2  A    between atoms: C_4  and  C_19
REMARK    3  A    between atoms: C_6  and  O_14
REMARK    4  A    between atoms: C_16  and  O_17
REMARK    5  A    between atoms: C_22  and  C_23
REMARK    6  A    between atoms: C_24  and  O_27
REMARK                            x       y       z     vdW  Elec       q    Type
REMARK                         _______ _______ _______ _____ _____    ______ ____
ROOT
ATOM      1  C   UNL     1      50.946 -45.564  48.153  0.00  0.00    +0.000 C 
ATOM      2  C   UNL     1      50.949 -46.971  47.482  0.00  0.00    +0.000 C 
ATOM      3  C   UNL     1      51.493 -47.210  46.062  0.00  0.00    +0.000 C 
ATOM      4  C   UNL     1      49.826 -45.284  49.195  0.00  0.00    +0.000 C 
ATOM      5  C   UNL     1      50.838 -44.625  47.040  0.00  0.00    +0.000 C 
ATOM      6  C   UNL     1      51.503 -45.991  45.090  0.00  0.00    +0.000 C 
ATOM      7  C   UNL     1      50.361 -47.988  48.286  0.00  0.00    +0.000 C 
ATOM      8  C   UNL     1      51.086 -44.738  45.575  0.00  0.00    +0.000 C 
ATOM      9  C   UNL     1      52.316 -45.398  48.879  0.00  0.00    +0.000 C 
ATOM     10  C   UNL     1      49.548 -47.686  49.503  0.00  0.00    +0.000 C 
ATOM     11  C   UNL     1      49.258 -46.390  49.980  0.00  0.00    +0.000 C 
ATOM     12  C   UNL     1      50.583 -48.290  45.374  0.00  0.00    +0.000 C 
ATOM     13  C   UNL     1      48.331 -46.266  50.930  0.00  0.00    +0.000 C 
ENDROOT
BRANCH   6  14
ATOM     14  O   UNL     1      52.096 -46.084  43.843  0.00  0.00    +0.000 OA
ATOM     15  H   UNL     1      51.442 -46.089  43.123  0.00  0.00    +0.000 HD
ENDBRANCH   6  14
BRANCH   4  16
ATOM     16  C   UNL     1      49.431 -43.935  49.487  0.00  0.00    +0.000 C 
ATOM     17  C   UNL     1      49.018 -42.491  49.791  0.00  0.00    +0.000 C 
BRANCH  17  20
ATOM     18  O   UNL     1      47.619 -39.504  51.134  0.00  0.00    +0.000 OA
ATOM     19  O   UNL     1      46.908 -41.649  51.712  0.00  0.00    +0.000 OA
ATOM     20  C   UNL     1      48.666 -41.269  50.041  0.00  0.00    +0.000 C 
ATOM     21  C   UNL     1      49.239 -40.061  49.504  0.00  0.00    +0.000 C 
ATOM     22  C   UNL     1      47.616 -40.895  51.068  0.00  0.00    +0.000 C 
ATOM     23  C   UNL     1      48.536 -39.120  50.259  0.00  0.00    +0.000 C 
BRANCH  21  24
ATOM     24  O   UNL     1      50.577 -39.993  49.234  0.00  0.00    +0.000 OA
ATOM     25  H   UNL     1      51.021 -40.845  49.392  0.00  0.00    +0.000 HD
ENDBRANCH  21  24
ENDBRANCH  17  20
ENDBRANCH   4  16
BRANCH   3  26
ATOM     26  C   UNL     1      52.888 -47.720  46.194  0.00  0.00    +0.000 C 
BRANCH  26  27
ATOM     27  O   UNL     1      54.140 -48.168  46.319  0.00  0.00    +0.000 OA
ATOM     28  H   UNL     1      54.303 -48.908  45.707  0.00  0.00    +0.000 HD
ENDBRANCH  26  27
ENDBRANCH   3  26
TORSDOF 6
ENDMDL
MODEL 8
REMARK VINA RESULT:      -6.0      3.134      4.727
REMARK  Name = 5318517_Andrographolide.pdbqt.pdb
REMARK  6 active torsions:
REMARK  status: ('A' for Active; 'I' for Inactive)
REMARK    1  A    between atoms: C_3  and  C_16
REMARK    2  A    between atoms: C_4  and  C_19
REMARK    3  A    between atoms: C_6  and  O_14
REMARK    4  A    between atoms: C_16  and  O_17
REMARK    5  A    between atoms: C_22  and  C_23
REMARK    6  A    between atoms: C_24  and  O_27
REMARK                            x       y       z     vdW  Elec       q    Type
REMARK                         _______ _______ _______ _____ _____    ______ ____
ROOT
ATOM      1  C   UNL     1      48.462 -43.185  49.483  0.00  0.00    +0.000 C 
ATOM      2  C   UNL     1      47.861 -43.944  50.705  0.00  0.00    +0.000 C 
ATOM      3  C   UNL     1      47.328 -45.384  50.604  0.00  0.00    +0.000 C 
ATOM      4  C   UNL     1      48.321 -41.636  49.478  0.00  0.00    +0.000 C 
ATOM      5  C   UNL     1      47.777 -43.751  48.324  0.00  0.00    +0.000 C 
ATOM      6  C   UNL     1      46.857 -45.872  49.201  0.00  0.00    +0.000 C 
ATOM      7  C   UNL     1      47.812 -43.162  51.894  0.00  0.00    +0.000 C 
ATOM      8  C   UNL     1      47.007 -45.008  48.101  0.00  0.00    +0.000 C 
ATOM      9  C   UNL     1      49.984 -43.520  49.437  0.00  0.00    +0.000 C 
ATOM     10  C   UNL     1      48.019 -41.682  51.896  0.00  0.00    +0.000 C 
ATOM     11  C   UNL     1      48.265 -40.899  50.748  0.00  0.00    +0.000 C 
ATOM     12  C   UNL     1      46.066 -45.495  51.534  0.00  0.00    +0.000 C 
ATOM     13  C   UNL     1      48.192 -39.573  50.869  0.00  0.00    +0.000 C 
ENDROOT
BRANCH   6  14
ATOM     14  O   UNL     1      46.491 -47.191  48.995  0.00  0.00    +0.000 OA
ATOM     15  H   UNL     1      45.646 -47.269  48.518  0.00  0.00    +0.000 HD
ENDBRANCH   6  14
BRANCH   4  16
ATOM     16  C   UNL     1      48.375 -40.909  48.241  0.00  0.00    +0.000 C 
ATOM     17  C   UNL     1      48.430 -40.124  46.927  0.00  0.00    +0.000 C 
BRANCH  17  20
ATOM     18  O   UNL     1      49.309 -38.747  43.762  0.00  0.00    +0.000 OA
ATOM     19  O   UNL     1      50.763 -40.003  45.084  0.00  0.00    +0.000 OA
ATOM     20  C   UNL     1      48.484 -39.456  45.818  0.00  0.00    +0.000 C 
ATOM     21  C   UNL     1      47.435 -38.683  45.203  0.00  0.00    +0.000 C 
ATOM     22  C   UNL     1      49.684 -39.470  44.891  0.00  0.00    +0.000 C 
ATOM     23  C   UNL     1      48.066 -38.356  44.001  0.00  0.00    +0.000 C 
BRANCH  21  24
ATOM     24  O   UNL     1      46.132 -39.081  45.310  0.00  0.00    +0.000 OA
ATOM     25  H   UNL     1      45.609 -38.816  44.533  0.00  0.00    +0.000 HD
ENDBRANCH  21  24
ENDBRANCH  17  20
ENDBRANCH   4  16
BRANCH   3  26
ATOM     26  C   UNL     1      48.404 -46.297  51.085  0.00  0.00    +0.000 C 
BRANCH  26  27
ATOM     27  O   UNL     1      49.360 -47.124  51.519  0.00  0.00    +0.000 OA
ATOM     28  H   UNL     1      49.107 -48.053  51.364  0.00  0.00    +0.000 HD
ENDBRANCH  26  27
ENDBRANCH   3  26
TORSDOF 6
ENDMDL
MODEL 9
REMARK VINA RESULT:      -5.9      6.284     11.586
REMARK  Name = 5318517_Andrographolide.pdbqt.pdb
REMARK  6 active torsions:
REMARK  status: ('A' for Active; 'I' for Inactive)
REMARK    1  A    between atoms: C_3  and  C_16
REMARK    2  A    between atoms: C_4  and  C_19
REMARK    3  A    between atoms: C_6  and  O_14
REMARK    4  A    between atoms: C_16  and  O_17
REMARK    5  A    between atoms: C_22  and  C_23
REMARK    6  A    between atoms: C_24  and  O_27
REMARK                            x       y       z     vdW  Elec       q    Type
REMARK                         _______ _______ _______ _____ _____    ______ ____
ROOT
ATOM      1  C   UNL     1      45.832 -51.685  53.054  0.00  0.00    +0.000 C 
ATOM      2  C   UNL     1      45.164 -50.667  52.080  0.00  0.00    +0.000 C 
ATOM      3  C   UNL     1      45.821 -49.327  51.706  0.00  0.00    +0.000 C 
ATOM      4  C   UNL     1      44.880 -52.597  53.880  0.00  0.00    +0.000 C 
ATOM      5  C   UNL     1      46.637 -50.863  53.951  0.00  0.00    +0.000 C 
ATOM      6  C   UNL     1      46.844 -48.730  52.718  0.00  0.00    +0.000 C 
ATOM      7  C   UNL     1      43.882 -51.078  51.617  0.00  0.00    +0.000 C 
ATOM      8  C   UNL     1      47.164 -49.470  53.871  0.00  0.00    +0.000 C 
ATOM      9  C   UNL     1      46.744 -52.613  52.195  0.00  0.00    +0.000 C 
ATOM     10  C   UNL     1      43.122 -52.206  52.237  0.00  0.00    +0.000 C 
ATOM     11  C   UNL     1      43.565 -52.968  53.339  0.00  0.00    +0.000 C 
ATOM     12  C   UNL     1      44.680 -48.253  51.578  0.00  0.00    +0.000 C 
ATOM     13  C   UNL     1      42.686 -53.778  53.932  0.00  0.00    +0.000 C 
ENDROOT
BRANCH   6  14
ATOM     14  O   UNL     1      47.577 -47.599  52.401  0.00  0.00    +0.000 OA
ATOM     15  H   UNL     1      47.070 -46.780  52.538  0.00  0.00    +0.000 HD
ENDBRANCH   6  14
BRANCH   4  16
ATOM     16  C   UNL     1      45.329 -53.183  55.112  0.00  0.00    +0.000 C 
ATOM     17  C   UNL     1      45.814 -53.815  56.419  0.00  0.00    +0.000 C 
BRANCH  17  20
ATOM     18  O   UNL     1      47.667 -54.784  59.303  0.00  0.00    +0.000 OA
ATOM     19  O   UNL     1      48.587 -53.648  57.485  0.00  0.00    +0.000 OA
ATOM     20  C   UNL     1      46.233 -54.346  57.525  0.00  0.00    +0.000 C 
ATOM     21  C   UNL     1      45.461 -55.073  58.500  0.00  0.00    +0.000 C 
ATOM     22  C   UNL     1      47.648 -54.187  58.045  0.00  0.00    +0.000 C 
ATOM     23  C   UNL     1      46.436 -55.237  59.487  0.00  0.00    +0.000 C 
BRANCH  21  24
ATOM     24  O   UNL     1      44.162 -54.729  58.746  0.00  0.00    +0.000 OA
ATOM     25  H   UNL     1      43.555 -55.474  58.586  0.00  0.00    +0.000 HD
ENDBRANCH  21  24
ENDBRANCH  17  20
ENDBRANCH   4  16
BRANCH   3  26
ATOM     26  C   UNL     1      46.505 -49.510  50.394  0.00  0.00    +0.000 C 
BRANCH  26  27
ATOM     27  O   UNL     1      47.121 -49.662  49.218  0.00  0.00    +0.000 OA
ATOM     28  H   UNL     1      46.487 -49.565  48.484  0.00  0.00    +0.000 HD
ENDBRANCH  26  27
ENDBRANCH   3  26
TORSDOF 6
ENDMDL
