MODEL 1
REMARK VINA RESULT:      -8.5      0.000      0.000
REMARK  Name = 5326018_Caulerpin.pdbqt.pdb
REMARK  4 active torsions:
REMARK  status: ('A' for Active; 'I' for Inactive)
REMARK    1  A    between atoms: C_11  and  C_26
REMARK    2  A    between atoms: C_12  and  C_30
REMARK    3  A    between atoms: C_26  and  O_27
REMARK    4  A    between atoms: C_30  and  O_31
REMARK                            x       y       z     vdW  Elec       q    Type
REMARK                         _______ _______ _______ _____ _____    ______ ____
ROOT
ATOM      1  N   UNL     1      49.779 -44.783  49.898  0.00  0.00    +0.000 N 
ATOM      2  N   UNL     1      49.265 -38.591  47.876  0.00  0.00    +0.000 N 
ATOM      3  C   UNL     1      49.888 -43.353  48.207  0.00  0.00    +0.000 C 
ATOM      4  C   UNL     1      48.786 -40.095  49.432  0.00  0.00    +0.000 C 
ATOM      5  C   UNL     1      49.380 -43.526  49.493  0.00  0.00    +0.000 C 
ATOM      6  C   UNL     1      49.164 -39.949  48.100  0.00  0.00    +0.000 C 
ATOM      7  C   UNL     1      50.543 -44.542  47.807  0.00  0.00    +0.000 A 
ATOM      8  C   UNL     1      48.593 -38.813  50.001  0.00  0.00    +0.000 A 
ATOM      9  C   UNL     1      50.457 -45.424  48.883  0.00  0.00    +0.000 A 
ATOM     10  C   UNL     1      48.894 -37.888  49.003  0.00  0.00    +0.000 A 
ATOM     11  C   UNL     1      48.656 -42.643  50.370  0.00  0.00    +0.000 C 
ATOM     12  C   UNL     1      49.500 -40.909  47.082  0.00  0.00    +0.000 C 
ATOM     13  C   UNL     1      48.658 -41.372  50.064  0.00  0.00    +0.000 C 
ATOM     14  C   UNL     1      49.749 -42.131  47.478  0.00  0.00    +0.000 C 
ATOM     15  C   UNL     1      51.218 -44.953  46.643  0.00  0.00    +0.000 A 
ATOM     16  C   UNL     1      48.207 -38.342  51.270  0.00  0.00    +0.000 A 
ATOM     17  C   UNL     1      51.010 -46.709  48.855  0.00  0.00    +0.000 A 
ATOM     18  C   UNL     1      48.827 -36.505  49.207  0.00  0.00    +0.000 A 
ATOM     19  C   UNL     1      51.772 -46.235  46.596  0.00  0.00    +0.000 A 
ATOM     20  C   UNL     1      48.129 -36.966  51.489  0.00  0.00    +0.000 A 
ATOM     21  C   UNL     1      51.667 -47.095  47.684  0.00  0.00    +0.000 A 
ATOM     22  C   UNL     1      48.432 -36.066  50.472  0.00  0.00    +0.000 A 
ATOM     23  H   UNL     1      49.625 -45.203  50.805  0.00  0.00    +0.000 HD
ATOM     24  H   UNL     1      49.573 -38.138  47.024  0.00  0.00    +0.000 HD
ENDROOT
BRANCH  11  26
ATOM     25  O   UNL     1      46.850 -42.419  51.924  0.00  0.00    +0.000 OA
ATOM     26  C   UNL     1      47.803 -43.073  51.516  0.00  0.00    +0.000 C 
BRANCH  26  27
ATOM     27  O   UNL     1      48.253 -44.277  51.973  0.00  0.00    +0.000 OA
ATOM     28  C   UNL     1      47.305 -45.243  52.343  0.00  0.00    +0.000 C 
ENDBRANCH  26  27
ENDBRANCH  11  26
BRANCH  12  30
ATOM     29  O   UNL     1      48.532 -41.023  44.895  0.00  0.00    +0.000 OA
ATOM     30  C   UNL     1      49.458 -40.661  45.611  0.00  0.00    +0.000 C 
BRANCH  30  31
ATOM     31  O   UNL     1      50.578 -39.969  45.251  0.00  0.00    +0.000 OA
ATOM     32  C   UNL     1      50.898 -39.889  43.886  0.00  0.00    +0.000 C 
ENDBRANCH  30  31
ENDBRANCH  12  30
TORSDOF 4
ENDMDL
MODEL 2
REMARK VINA RESULT:      -8.5      0.129      7.840
REMARK  Name = 5326018_Caulerpin.pdbqt.pdb
REMARK  4 active torsions:
REMARK  status: ('A' for Active; 'I' for Inactive)
REMARK    1  A    between atoms: C_11  and  C_26
REMARK    2  A    between atoms: C_12  and  C_30
REMARK    3  A    between atoms: C_26  and  O_27
REMARK    4  A    between atoms: C_30  and  O_31
REMARK                            x       y       z     vdW  Elec       q    Type
REMARK                         _______ _______ _______ _____ _____    ______ ____
ROOT
ATOM      1  N   UNL     1      49.261 -38.567  47.909  0.00  0.00    +0.000 N 
ATOM      2  N   UNL     1      49.760 -44.784  49.856  0.00  0.00    +0.000 N 
ATOM      3  C   UNL     1      48.780 -40.089  49.448  0.00  0.00    +0.000 C 
ATOM      4  C   UNL     1      49.871 -43.335  48.182  0.00  0.00    +0.000 C 
ATOM      5  C   UNL     1      49.158 -39.927  48.116  0.00  0.00    +0.000 C 
ATOM      6  C   UNL     1      49.365 -43.521  49.466  0.00  0.00    +0.000 C 
ATOM      7  C   UNL     1      48.590 -38.813  50.031  0.00  0.00    +0.000 A 
ATOM      8  C   UNL     1      50.524 -44.520  47.766  0.00  0.00    +0.000 A 
ATOM      9  C   UNL     1      48.894 -37.877  49.044  0.00  0.00    +0.000 A 
ATOM     10  C   UNL     1      50.436 -45.415  48.832  0.00  0.00    +0.000 A 
ATOM     11  C   UNL     1      49.489 -40.876  47.086  0.00  0.00    +0.000 C 
ATOM     12  C   UNL     1      48.644 -42.648  50.355  0.00  0.00    +0.000 C 
ATOM     13  C   UNL     1      49.736 -42.103  47.468  0.00  0.00    +0.000 C 
ATOM     14  C   UNL     1      48.649 -41.372  50.064  0.00  0.00    +0.000 C 
ATOM     15  C   UNL     1      48.207 -38.358  51.306  0.00  0.00    +0.000 A 
ATOM     16  C   UNL     1      51.197 -44.921  46.597  0.00  0.00    +0.000 A 
ATOM     17  C   UNL     1      48.829 -36.496  49.265  0.00  0.00    +0.000 A 
ATOM     18  C   UNL     1      50.986 -46.701  48.789  0.00  0.00    +0.000 A 
ATOM     19  C   UNL     1      48.133 -36.983  51.542  0.00  0.00    +0.000 A 
ATOM     20  C   UNL     1      51.747 -46.202  46.535  0.00  0.00    +0.000 A 
ATOM     21  C   UNL     1      48.438 -36.072  50.537  0.00  0.00    +0.000 A 
ATOM     22  C   UNL     1      51.640 -47.074  47.613  0.00  0.00    +0.000 A 
ATOM     23  H   UNL     1      49.570 -38.106  47.063  0.00  0.00    +0.000 HD
ATOM     24  H   UNL     1      49.606 -45.216  50.758  0.00  0.00    +0.000 HD
ENDROOT
BRANCH  11  26
ATOM     25  O   UNL     1      48.547 -41.008  44.891  0.00  0.00    +0.000 OA
ATOM     26  C   UNL     1      49.448 -40.610  45.619  0.00  0.00    +0.000 C 
BRANCH  26  27
ATOM     27  O   UNL     1      50.534 -39.858  45.278  0.00  0.00    +0.000 OA
ATOM     28  C   UNL     1      50.593 -39.327  43.981  0.00  0.00    +0.000 C 
ENDBRANCH  26  27
ENDBRANCH  11  26
BRANCH  12  30
ATOM     29  O   UNL     1      46.856 -42.424  51.930  0.00  0.00    +0.000 OA
ATOM     30  C   UNL     1      47.790 -43.089  51.496  0.00  0.00    +0.000 C 
BRANCH  30  31
ATOM     31  O   UNL     1      48.216 -44.315  51.915  0.00  0.00    +0.000 OA
ATOM     32  C   UNL     1      47.249 -45.257  52.302  0.00  0.00    +0.000 C 
ENDBRANCH  30  31
ENDBRANCH  12  30
TORSDOF 4
ENDMDL
MODEL 3
REMARK VINA RESULT:      -8.3      3.273      5.218
REMARK  Name = 5326018_Caulerpin.pdbqt.pdb
REMARK  4 active torsions:
REMARK  status: ('A' for Active; 'I' for Inactive)
REMARK    1  A    between atoms: C_11  and  C_26
REMARK    2  A    between atoms: C_12  and  C_30
REMARK    3  A    between atoms: C_26  and  O_27
REMARK    4  A    between atoms: C_30  and  O_31
REMARK                            x       y       z     vdW  Elec       q    Type
REMARK                         _______ _______ _______ _____ _____    ______ ____
ROOT
ATOM      1  N   UNL     1      48.518 -39.814  51.195  0.00  0.00    +0.000 N 
ATOM      2  N   UNL     1      49.248 -37.693  45.059  0.00  0.00    +0.000 N 
ATOM      3  C   UNL     1      48.246 -40.218  49.033  0.00  0.00    +0.000 C 
ATOM      4  C   UNL     1      49.135 -37.181  47.213  0.00  0.00    +0.000 C 
ATOM      5  C   UNL     1      48.437 -39.199  49.963  0.00  0.00    +0.000 C 
ATOM      6  C   UNL     1      48.810 -38.162  46.280  0.00  0.00    +0.000 C 
ATOM      7  C   UNL     1      48.145 -41.454  49.716  0.00  0.00    +0.000 A 
ATOM      8  C   UNL     1      49.718 -36.080  46.540  0.00  0.00    +0.000 A 
ATOM      9  C   UNL     1      48.314 -41.172  51.071  0.00  0.00    +0.000 A 
ATOM     10  C   UNL     1      49.773 -36.424  45.190  0.00  0.00    +0.000 A 
ATOM     11  C   UNL     1      48.619 -37.779  49.814  0.00  0.00    +0.000 C 
ATOM     12  C   UNL     1      48.222 -39.469  46.420  0.00  0.00    +0.000 C 
ATOM     13  C   UNL     1      48.909 -37.342  48.616  0.00  0.00    +0.000 C 
ATOM     14  C   UNL     1      48.194 -39.980  47.624  0.00  0.00    +0.000 C 
ATOM     15  C   UNL     1      47.944 -42.788  49.319  0.00  0.00    +0.000 A 
ATOM     16  C   UNL     1      50.221 -34.829  46.943  0.00  0.00    +0.000 A 
ATOM     17  C   UNL     1      48.289 -42.162  52.059  0.00  0.00    +0.000 A 
ATOM     18  C   UNL     1      50.305 -35.575  44.213  0.00  0.00    +0.000 A 
ATOM     19  C   UNL     1      47.910 -43.789  50.293  0.00  0.00    +0.000 A 
ATOM     20  C   UNL     1      50.751 -33.968  45.981  0.00  0.00    +0.000 A 
ATOM     21  C   UNL     1      48.078 -43.477  51.638  0.00  0.00    +0.000 A 
ATOM     22  C   UNL     1      50.789 -34.337  44.641  0.00  0.00    +0.000 A 
ATOM     23  H   UNL     1      48.710 -39.368  52.083  0.00  0.00    +0.000 HD
ATOM     24  H   UNL     1      49.217 -38.184  44.174  0.00  0.00    +0.000 HD
ENDROOT
BRANCH  11  26
ATOM     25  O   UNL     1      49.112 -36.616  51.846  0.00  0.00    +0.000 OA
ATOM     26  C   UNL     1      48.377 -36.760  50.876  0.00  0.00    +0.000 C 
BRANCH  26  27
ATOM     27  O   UNL     1      47.257 -36.049  50.557  0.00  0.00    +0.000 OA
ATOM     28  C   UNL     1      46.394 -35.669  51.595  0.00  0.00    +0.000 C 
ENDBRANCH  26  27
ENDBRANCH  11  26
BRANCH  12  30
ATOM     29  O   UNL     1      48.088 -40.576  44.302  0.00  0.00    +0.000 OA
ATOM     30  C   UNL     1      47.531 -40.227  45.336  0.00  0.00    +0.000 C 
BRANCH  30  31
ATOM     31  O   UNL     1      46.242 -40.461  45.717  0.00  0.00    +0.000 OA
ATOM     32  C   UNL     1      45.632 -41.653  45.298  0.00  0.00    +0.000 C 
ENDBRANCH  30  31
ENDBRANCH  12  30
TORSDOF 4
ENDMDL
MODEL 4
REMARK VINA RESULT:      -7.9      2.570      5.474
REMARK  Name = 5326018_Caulerpin.pdbqt.pdb
REMARK  4 active torsions:
REMARK  status: ('A' for Active; 'I' for Inactive)
REMARK    1  A    between atoms: C_11  and  C_26
REMARK    2  A    between atoms: C_12  and  C_30
REMARK    3  A    between atoms: C_26  and  O_27
REMARK    4  A    between atoms: C_30  and  O_31
REMARK                            x       y       z     vdW  Elec       q    Type
REMARK                         _______ _______ _______ _____ _____    ______ ____
ROOT
ATOM      1  N   UNL     1      48.754 -43.244  48.295  0.00  0.00    +0.000 N 
ATOM      2  N   UNL     1      48.767 -36.719  47.960  0.00  0.00    +0.000 N 
ATOM      3  C   UNL     1      48.851 -41.316  49.385  0.00  0.00    +0.000 C 
ATOM      4  C   UNL     1      49.069 -38.645  46.906  0.00  0.00    +0.000 C 
ATOM      5  C   UNL     1      49.036 -41.903  48.135  0.00  0.00    +0.000 C 
ATOM      6  C   UNL     1      49.023 -38.058  48.167  0.00  0.00    +0.000 C 
ATOM      7  C   UNL     1      48.518 -42.323  50.322  0.00  0.00    +0.000 A 
ATOM      8  C   UNL     1      48.904 -37.640  45.922  0.00  0.00    +0.000 A 
ATOM      9  C   UNL     1      48.468 -43.523  49.614  0.00  0.00    +0.000 A 
ATOM     10  C   UNL     1      48.721 -36.440  46.609  0.00  0.00    +0.000 A 
ATOM     11  C   UNL     1      49.363 -41.347  46.848  0.00  0.00    +0.000 C 
ATOM     12  C   UNL     1      49.115 -38.613  49.493  0.00  0.00    +0.000 C 
ATOM     13  C   UNL     1      49.235 -40.052  46.712  0.00  0.00    +0.000 C 
ATOM     14  C   UNL     1      48.972 -39.908  49.604  0.00  0.00    +0.000 C 
ATOM     15  C   UNL     1      48.234 -42.335  51.700  0.00  0.00    +0.000 A 
ATOM     16  C   UNL     1      48.875 -37.628  44.515  0.00  0.00    +0.000 A 
ATOM     17  C   UNL     1      48.153 -44.746  50.217  0.00  0.00    +0.000 A 
ATOM     18  C   UNL     1      48.513 -35.219  45.959  0.00  0.00    +0.000 A 
ATOM     19  C   UNL     1      47.923 -43.547  52.319  0.00  0.00    +0.000 A 
ATOM     20  C   UNL     1      48.673 -36.418  43.850  0.00  0.00    +0.000 A 
ATOM     21  C   UNL     1      47.885 -44.730  51.588  0.00  0.00    +0.000 A 
ATOM     22  C   UNL     1      48.498 -35.236  44.563  0.00  0.00    +0.000 A 
ATOM     23  H   UNL     1      48.738 -43.949  47.569  0.00  0.00    +0.000 HD
ATOM     24  H   UNL     1      48.617 -36.013  48.670  0.00  0.00    +0.000 HD
ENDROOT
BRANCH  11  26
ATOM     25  O   UNL     1      50.187 -43.304  45.745  0.00  0.00    +0.000 OA
ATOM     26  C   UNL     1      49.955 -42.102  45.706  0.00  0.00    +0.000 C 
BRANCH  26  27
ATOM     27  O   UNL     1      50.151 -41.242  44.664  0.00  0.00    +0.000 OA
ATOM     28  C   UNL     1      50.562 -41.773  43.433  0.00  0.00    +0.000 C 
ENDBRANCH  26  27
ENDBRANCH  11  26
BRANCH  12  30
ATOM     29  O   UNL     1      50.391 -38.201  51.475  0.00  0.00    +0.000 OA
ATOM     30  C   UNL     1      49.488 -37.855  50.723  0.00  0.00    +0.000 C 
BRANCH  30  31
ATOM     31  O   UNL     1      48.687 -36.755  50.821  0.00  0.00    +0.000 OA
ATOM     32  C   UNL     1      47.416 -36.909  51.396  0.00  0.00    +0.000 C 
ENDBRANCH  30  31
ENDBRANCH  12  30
TORSDOF 4
ENDMDL
MODEL 5
REMARK VINA RESULT:      -7.7     10.598     15.453
REMARK  Name = 5326018_Caulerpin.pdbqt.pdb
REMARK  4 active torsions:
REMARK  status: ('A' for Active; 'I' for Inactive)
REMARK    1  A    between atoms: C_11  and  C_26
REMARK    2  A    between atoms: C_12  and  C_30
REMARK    3  A    between atoms: C_26  and  O_27
REMARK    4  A    between atoms: C_30  and  O_31
REMARK                            x       y       z     vdW  Elec       q    Type
REMARK                         _______ _______ _______ _____ _____    ______ ____
ROOT
ATOM      1  N   UNL     1      41.934 -55.537  56.340  0.00  0.00    +0.000 N 
ATOM      2  N   UNL     1      47.092 -51.672  55.266  0.00  0.00    +0.000 N 
ATOM      3  C   UNL     1      43.971 -54.922  56.962  0.00  0.00    +0.000 C 
ATOM      4  C   UNL     1      45.242 -52.589  54.458  0.00  0.00    +0.000 C 
ATOM      5  C   UNL     1      43.078 -54.910  55.892  0.00  0.00    +0.000 C 
ATOM      6  C   UNL     1      46.199 -52.706  55.462  0.00  0.00    +0.000 C 
ATOM      7  C   UNL     1      43.385 -55.621  58.044  0.00  0.00    +0.000 A 
ATOM      8  C   UNL     1      45.594 -51.513  53.608  0.00  0.00    +0.000 A 
ATOM      9  C   UNL     1      42.110 -56.001  57.627  0.00  0.00    +0.000 A 
ATOM     10  C   UNL     1      46.760 -50.959  54.133  0.00  0.00    +0.000 A 
ATOM     11  C   UNL     1      43.158 -54.330  54.578  0.00  0.00    +0.000 C 
ATOM     12  C   UNL     1      46.317 -53.603  56.583  0.00  0.00    +0.000 C 
ATOM     13  C   UNL     1      44.097 -53.442  54.377  0.00  0.00    +0.000 C 
ATOM     14  C   UNL     1      45.251 -54.286  56.909  0.00  0.00    +0.000 C 
ATOM     15  C   UNL     1      43.801 -55.955  59.346  0.00  0.00    +0.000 A 
ATOM     16  C   UNL     1      45.031 -50.942  52.451  0.00  0.00    +0.000 A 
ATOM     17  C   UNL     1      41.223 -56.707  58.447  0.00  0.00    +0.000 A 
ATOM     18  C   UNL     1      47.401 -49.856  53.557  0.00  0.00    +0.000 A 
ATOM     19  C   UNL     1      42.931 -56.666  60.176  0.00  0.00    +0.000 A 
ATOM     20  C   UNL     1      45.661 -49.845  51.860  0.00  0.00    +0.000 A 
ATOM     21  C   UNL     1      41.666 -57.034  59.731  0.00  0.00    +0.000 A 
ATOM     22  C   UNL     1      46.825 -49.315  52.406  0.00  0.00    +0.000 A 
ATOM     23  H   UNL     1      41.068 -55.651  55.830  0.00  0.00    +0.000 HD
ATOM     24  H   UNL     1      47.881 -51.433  55.853  0.00  0.00    +0.000 HD
ENDROOT
BRANCH  11  26
ATOM     25  O   UNL     1      41.619 -55.735  53.401  0.00  0.00    +0.000 OA
ATOM     26  C   UNL     1      42.347 -54.750  53.398  0.00  0.00    +0.000 C 
BRANCH  26  27
ATOM     27  O   UNL     1      42.548 -53.856  52.386  0.00  0.00    +0.000 OA
ATOM     28  C   UNL     1      42.518 -54.331  51.066  0.00  0.00    +0.000 C 
ENDBRANCH  26  27
ENDBRANCH  11  26
BRANCH  12  30
ATOM     29  O   UNL     1      47.619 -54.157  58.513  0.00  0.00    +0.000 OA
ATOM     30  C   UNL     1      47.581 -53.913  57.313  0.00  0.00    +0.000 C 
BRANCH  30  31
ATOM     31  O   UNL     1      48.617 -53.895  56.426  0.00  0.00    +0.000 OA
ATOM     32  C   UNL     1      49.906 -53.631  56.916  0.00  0.00    +0.000 C 
ENDBRANCH  30  31
ENDBRANCH  12  30
TORSDOF 4
ENDMDL
MODEL 6
REMARK VINA RESULT:      -7.7     10.656     15.753
REMARK  Name = 5326018_Caulerpin.pdbqt.pdb
REMARK  4 active torsions:
REMARK  status: ('A' for Active; 'I' for Inactive)
REMARK    1  A    between atoms: C_11  and  C_26
REMARK    2  A    between atoms: C_12  and  C_30
REMARK    3  A    between atoms: C_26  and  O_27
REMARK    4  A    between atoms: C_30  and  O_31
REMARK                            x       y       z     vdW  Elec       q    Type
REMARK                         _______ _______ _______ _____ _____    ______ ____
ROOT
ATOM      1  N   UNL     1      47.093 -51.726  55.323  0.00  0.00    +0.000 N 
ATOM      2  N   UNL     1      41.923 -55.567  56.419  0.00  0.00    +0.000 N 
ATOM      3  C   UNL     1      45.237 -52.635  54.523  0.00  0.00    +0.000 C 
ATOM      4  C   UNL     1      43.964 -54.960  57.034  0.00  0.00    +0.000 C 
ATOM      5  C   UNL     1      46.198 -52.756  55.525  0.00  0.00    +0.000 C 
ATOM      6  C   UNL     1      43.068 -54.945  55.968  0.00  0.00    +0.000 C 
ATOM      7  C   UNL     1      45.592 -51.563  53.670  0.00  0.00    +0.000 A 
ATOM      8  C   UNL     1      43.378 -55.655  58.119  0.00  0.00    +0.000 A 
ATOM      9  C   UNL     1      46.762 -51.012  54.191  0.00  0.00    +0.000 A 
ATOM     10  C   UNL     1      42.100 -56.029  57.706  0.00  0.00    +0.000 A 
ATOM     11  C   UNL     1      46.315 -53.652  56.645  0.00  0.00    +0.000 C 
ATOM     12  C   UNL     1      43.145 -54.367  54.651  0.00  0.00    +0.000 C 
ATOM     13  C   UNL     1      45.247 -54.330  56.976  0.00  0.00    +0.000 C 
ATOM     14  C   UNL     1      44.088 -53.483  54.447  0.00  0.00    +0.000 C 
ATOM     15  C   UNL     1      45.027 -50.990  52.516  0.00  0.00    +0.000 A 
ATOM     16  C   UNL     1      43.797 -55.991  59.420  0.00  0.00    +0.000 A 
ATOM     17  C   UNL     1      47.405 -49.913  53.612  0.00  0.00    +0.000 A 
ATOM     18  C   UNL     1      41.213 -56.731  58.530  0.00  0.00    +0.000 A 
ATOM     19  C   UNL     1      45.659 -49.896  51.921  0.00  0.00    +0.000 A 
ATOM     20  C   UNL     1      42.927 -56.695  60.253  0.00  0.00    +0.000 A 
ATOM     21  C   UNL     1      46.828 -49.371  52.461  0.00  0.00    +0.000 A 
ATOM     22  C   UNL     1      41.659 -57.059  59.812  0.00  0.00    +0.000 A 
ATOM     23  H   UNL     1      47.885 -51.490  55.908  0.00  0.00    +0.000 HD
ATOM     24  H   UNL     1      41.053 -55.677  55.912  0.00  0.00    +0.000 HD
ENDROOT
BRANCH  11  26
ATOM     25  O   UNL     1      47.605 -54.368  58.528  0.00  0.00    +0.000 OA
ATOM     26  C   UNL     1      47.579 -53.966  57.372  0.00  0.00    +0.000 C 
BRANCH  26  27
ATOM     27  O   UNL     1      48.634 -53.751  56.533  0.00  0.00    +0.000 OA
ATOM     28  C   UNL     1      49.911 -53.609  57.095  0.00  0.00    +0.000 C 
ENDBRANCH  26  27
ENDBRANCH  11  26
BRANCH  12  30
ATOM     29  O   UNL     1      41.572 -55.748  53.491  0.00  0.00    +0.000 OA
ATOM     30  C   UNL     1      42.329 -54.785  53.474  0.00  0.00    +0.000 C 
BRANCH  30  31
ATOM     31  O   UNL     1      42.562 -53.916  52.447  0.00  0.00    +0.000 OA
ATOM     32  C   UNL     1      42.552 -54.420  51.137  0.00  0.00    +0.000 C 
ENDBRANCH  30  31
ENDBRANCH  12  30
TORSDOF 4
ENDMDL
MODEL 7
REMARK VINA RESULT:      -7.5      2.132      6.400
REMARK  Name = 5326018_Caulerpin.pdbqt.pdb
REMARK  4 active torsions:
REMARK  status: ('A' for Active; 'I' for Inactive)
REMARK    1  A    between atoms: C_11  and  C_26
REMARK    2  A    between atoms: C_12  and  C_30
REMARK    3  A    between atoms: C_26  and  O_27
REMARK    4  A    between atoms: C_30  and  O_31
REMARK                            x       y       z     vdW  Elec       q    Type
REMARK                         _______ _______ _______ _____ _____    ______ ____
ROOT
ATOM      1  N   UNL     1      48.140 -39.962  47.954  0.00  0.00    +0.000 N 
ATOM      2  N   UNL     1      49.589 -46.251  48.972  0.00  0.00    +0.000 N 
ATOM      3  C   UNL     1      49.302 -41.739  47.319  0.00  0.00    +0.000 C 
ATOM      4  C   UNL     1      48.763 -44.366  49.796  0.00  0.00    +0.000 C 
ATOM      5  C   UNL     1      48.609 -41.183  48.392  0.00  0.00    +0.000 C 
ATOM      6  C   UNL     1      49.573 -44.884  48.789  0.00  0.00    +0.000 C 
ATOM      7  C   UNL     1      49.309 -40.816  46.246  0.00  0.00    +0.000 A 
ATOM      8  C   UNL     1      48.336 -45.424  50.635  0.00  0.00    +0.000 A 
ATOM      9  C   UNL     1      48.577 -39.708  46.672  0.00  0.00    +0.000 A 
ATOM     10  C   UNL     1      48.872 -46.594  50.099  0.00  0.00    +0.000 A 
ATOM     11  C   UNL     1      48.291 -41.691  49.701  0.00  0.00    +0.000 C 
ATOM     12  C   UNL     1      50.246 -44.263  47.677  0.00  0.00    +0.000 C 
ATOM     13  C   UNL     1      48.437 -42.977  49.889  0.00  0.00    +0.000 C 
ATOM     14  C   UNL     1      49.871 -43.050  47.361  0.00  0.00    +0.000 C 
ATOM     15  C   UNL     1      49.847 -40.816  44.946  0.00  0.00    +0.000 A 
ATOM     16  C   UNL     1      47.533 -45.509  51.787  0.00  0.00    +0.000 A 
ATOM     17  C   UNL     1      48.358 -38.588  45.862  0.00  0.00    +0.000 A 
ATOM     18  C   UNL     1      48.649 -47.856  50.662  0.00  0.00    +0.000 A 
ATOM     19  C   UNL     1      49.643 -39.704  44.126  0.00  0.00    +0.000 A 
ATOM     20  C   UNL     1      47.305 -46.759  52.365  0.00  0.00    +0.000 A 
ATOM     21  C   UNL     1      48.911 -38.611  44.580  0.00  0.00    +0.000 A 
ATOM     22  C   UNL     1      47.856 -47.910  51.811  0.00  0.00    +0.000 A 
ATOM     23  H   UNL     1      47.548 -39.322  48.469  0.00  0.00    +0.000 HD
ATOM     24  H   UNL     1      50.040 -46.937  48.380  0.00  0.00    +0.000 HD
ENDROOT
BRANCH  11  26
ATOM     25  O   UNL     1      47.158 -41.229  51.758  0.00  0.00    +0.000 OA
ATOM     26  C   UNL     1      47.937 -40.859  50.888  0.00  0.00    +0.000 C 
BRANCH  26  27
ATOM     27  O   UNL     1      48.633 -39.686  50.826  0.00  0.00    +0.000 OA
ATOM     28  C   UNL     1      47.937 -38.489  51.053  0.00  0.00    +0.000 C 
ENDBRANCH  26  27
ENDBRANCH  11  26
BRANCH  12  30
ATOM     29  O   UNL     1      51.683 -44.548  45.784  0.00  0.00    +0.000 OA
ATOM     30  C   UNL     1      51.414 -44.834  46.945  0.00  0.00    +0.000 C 
BRANCH  30  31
ATOM     31  O   UNL     1      52.095 -45.667  47.785  0.00  0.00    +0.000 OA
ATOM     32  C   UNL     1      53.429 -45.355  48.091  0.00  0.00    +0.000 C 
ENDBRANCH  30  31
ENDBRANCH  12  30
TORSDOF 4
ENDMDL
MODEL 8
REMARK VINA RESULT:      -7.5      3.120      8.084
REMARK  Name = 5326018_Caulerpin.pdbqt.pdb
REMARK  4 active torsions:
REMARK  status: ('A' for Active; 'I' for Inactive)
REMARK    1  A    between atoms: C_11  and  C_26
REMARK    2  A    between atoms: C_12  and  C_30
REMARK    3  A    between atoms: C_26  and  O_27
REMARK    4  A    between atoms: C_30  and  O_31
REMARK                            x       y       z     vdW  Elec       q    Type
REMARK                         _______ _______ _______ _____ _____    ______ ____
ROOT
ATOM      1  N   UNL     1      48.816 -36.083  48.240  0.00  0.00    +0.000 N 
ATOM      2  N   UNL     1      50.820 -40.846  44.241  0.00  0.00    +0.000 N 
ATOM      3  C   UNL     1      49.137 -38.255  47.933  0.00  0.00    +0.000 C 
ATOM      4  C   UNL     1      50.119 -38.753  44.452  0.00  0.00    +0.000 C 
ATOM      5  C   UNL     1      48.979 -37.043  47.263  0.00  0.00    +0.000 C 
ATOM      6  C   UNL     1      50.144 -39.992  45.088  0.00  0.00    +0.000 C 
ATOM      7  C   UNL     1      49.002 -38.033  49.324  0.00  0.00    +0.000 A 
ATOM      8  C   UNL     1      50.729 -38.875  43.180  0.00  0.00    +0.000 A 
ATOM      9  C   UNL     1      48.797 -36.664  49.490  0.00  0.00    +0.000 A 
ATOM     10  C   UNL     1      51.156 -40.198  43.071  0.00  0.00    +0.000 A 
ATOM     11  C   UNL     1      49.038 -36.699  45.867  0.00  0.00    +0.000 C 
ATOM     12  C   UNL     1      49.685 -40.420  46.384  0.00  0.00    +0.000 C 
ATOM     13  C   UNL     1      49.569 -37.582  45.061  0.00  0.00    +0.000 C 
ATOM     14  C   UNL     1      49.413 -39.483  47.255  0.00  0.00    +0.000 C 
ATOM     15  C   UNL     1      49.052 -38.856  50.465  0.00  0.00    +0.000 A 
ATOM     16  C   UNL     1      50.978 -37.990  42.115  0.00  0.00    +0.000 A 
ATOM     17  C   UNL     1      48.633 -36.070  50.746  0.00  0.00    +0.000 A 
ATOM     18  C   UNL     1      51.820 -40.688  41.941  0.00  0.00    +0.000 A 
ATOM     19  C   UNL     1      48.884 -38.280  51.726  0.00  0.00    +0.000 A 
ATOM     20  C   UNL     1      51.635 -38.464  40.978  0.00  0.00    +0.000 A 
ATOM     21  C   UNL     1      48.677 -36.911  51.860  0.00  0.00    +0.000 A 
ATOM     22  C   UNL     1      52.046 -39.791  40.895  0.00  0.00    +0.000 A 
ATOM     23  H   UNL     1      48.731 -35.085  48.098  0.00  0.00    +0.000 HD
ATOM     24  H   UNL     1      51.064 -41.812  44.422  0.00  0.00    +0.000 HD
ENDROOT
BRANCH  11  26
ATOM     25  O   UNL     1      48.203 -34.457  45.877  0.00  0.00    +0.000 OA
ATOM     26  C   UNL     1      48.431 -35.484  45.250  0.00  0.00    +0.000 C 
BRANCH  26  27
ATOM     27  O   UNL     1      48.217 -35.725  43.923  0.00  0.00    +0.000 OA
ATOM     28  C   UNL     1      48.484 -34.694  43.010  0.00  0.00    +0.000 C 
ENDBRANCH  26  27
ENDBRANCH  11  26
BRANCH  12  30
ATOM     29  O   UNL     1      50.091 -42.777  46.481  0.00  0.00    +0.000 OA
ATOM     30  C   UNL     1      49.372 -41.828  46.768  0.00  0.00    +0.000 C 
BRANCH  30  31
ATOM     31  O   UNL     1      48.208 -41.839  47.482  0.00  0.00    +0.000 OA
ATOM     32  C   UNL     1      48.116 -42.701  48.585  0.00  0.00    +0.000 C 
ENDBRANCH  30  31
ENDBRANCH  12  30
TORSDOF 4
ENDMDL
MODEL 9
REMARK VINA RESULT:      -7.2      2.095      5.129
REMARK  Name = 5326018_Caulerpin.pdbqt.pdb
REMARK  4 active torsions:
REMARK  status: ('A' for Active; 'I' for Inactive)
REMARK    1  A    between atoms: C_11  and  C_26
REMARK    2  A    between atoms: C_12  and  C_30
REMARK    3  A    between atoms: C_26  and  O_27
REMARK    4  A    between atoms: C_30  and  O_31
REMARK                            x       y       z     vdW  Elec       q    Type
REMARK                         _______ _______ _______ _____ _____    ______ ____
ROOT
ATOM      1  N   UNL     1      49.220 -45.429  48.873  0.00  0.00    +0.000 N 
ATOM      2  N   UNL     1      48.412 -39.113  47.408  0.00  0.00    +0.000 N 
ATOM      3  C   UNL     1      48.736 -43.390  49.594  0.00  0.00    +0.000 C 
ATOM      4  C   UNL     1      49.264 -41.074  46.822  0.00  0.00    +0.000 C 
ATOM      5  C   UNL     1      49.345 -44.092  48.556  0.00  0.00    +0.000 C 
ATOM      6  C   UNL     1      48.785 -40.344  47.906  0.00  0.00    +0.000 C 
ATOM      7  C   UNL     1      48.298 -44.308  50.578  0.00  0.00    +0.000 A 
ATOM      8  C   UNL     1      49.243 -40.254  45.668  0.00  0.00    +0.000 A 
ATOM      9  C   UNL     1      48.618 -45.580  50.103  0.00  0.00    +0.000 A 
ATOM     10  C   UNL     1      48.709 -39.028  46.064  0.00  0.00    +0.000 A 
ATOM     11  C   UNL     1      49.938 -43.660  47.318  0.00  0.00    +0.000 C 
ATOM     12  C   UNL     1      48.578 -40.693  49.288  0.00  0.00    +0.000 C 
ATOM     13  C   UNL     1      49.674 -42.440  46.928  0.00  0.00    +0.000 C 
ATOM     14  C   UNL     1      48.592 -41.967  49.586  0.00  0.00    +0.000 C 
ATOM     15  C   UNL     1      47.644 -44.190  51.818  0.00  0.00    +0.000 A 
ATOM     16  C   UNL     1      49.608 -40.433  44.321  0.00  0.00    +0.000 A 
ATOM     17  C   UNL     1      48.320 -46.749  50.812  0.00  0.00    +0.000 A 
ATOM     18  C   UNL     1      48.522 -37.962  45.177  0.00  0.00    +0.000 A 
ATOM     19  C   UNL     1      47.345 -45.347  52.541  0.00  0.00    +0.000 A 
ATOM     20  C   UNL     1      49.434 -39.378  43.424  0.00  0.00    +0.000 A 
ATOM     21  C   UNL     1      47.680 -46.602  52.044  0.00  0.00    +0.000 A 
ATOM     22  C   UNL     1      48.902 -38.164  43.848  0.00  0.00    +0.000 A 
ATOM     23  H   UNL     1      49.507 -46.215  48.303  0.00  0.00    +0.000 HD
ATOM     24  H   UNL     1      47.972 -38.359  47.921  0.00  0.00    +0.000 HD
ENDROOT
BRANCH  11  26
ATOM     25  O   UNL     1      50.864 -44.546  45.297  0.00  0.00    +0.000 OA
ATOM     26  C   UNL     1      50.927 -44.438  46.516  0.00  0.00    +0.000 C 
BRANCH  26  27
ATOM     27  O   UNL     1      51.870 -44.952  47.358  0.00  0.00    +0.000 OA
ATOM     28  C   UNL     1      52.761 -45.909  46.851  0.00  0.00    +0.000 C 
ENDBRANCH  26  27
ENDBRANCH  11  26
BRANCH  12  30
ATOM     29  O   UNL     1      47.759 -39.902  51.393  0.00  0.00    +0.000 OA
ATOM     30  C   UNL     1      48.481 -39.725  50.420  0.00  0.00    +0.000 C 
BRANCH  30  31
ATOM     31  O   UNL     1      49.326 -38.681  50.177  0.00  0.00    +0.000 OA
ATOM     32  C   UNL     1      49.671 -37.845  51.250  0.00  0.00    +0.000 C 
ENDBRANCH  30  31
ENDBRANCH  12  30
TORSDOF 4
ENDMDL
