MODEL 1
REMARK VINA RESULT:      -4.1      0.000      0.000
REMARK  Name = 5350_Sulforaphane.pdbqt.pdb
REMARK  3 active torsions:
REMARK  status: ('A' for Active; 'I' for Inactive)
REMARK    1  A    between atoms: C_1  and  C_2
REMARK    2  A    between atoms: C_3  and  N_5
REMARK    3  A    between atoms: C_7  and  S_8
REMARK                            x       y       z     vdW  Elec       q    Type
REMARK                         _______ _______ _______ _____ _____    ______ ____
ROOT
ATOM      1  C   UNL     1      47.741 -41.634  51.171  0.00  0.00    +0.000 C 
ATOM      2  C   UNL     1      47.520 -43.127  51.440  0.00  0.00    +0.000 C 
ENDROOT
BRANCH   2   3
ATOM      3  S   UNL     1      47.263 -44.841  51.754  0.00  0.00    +0.000 S 
ATOM      4  O   UNL     1      48.121 -44.801  52.984  0.00  0.00    +0.000 OA
ATOM      5  C   UNL     1      48.618 -45.335  50.745  0.00  0.00    +0.000 C 
ENDBRANCH   2   3
BRANCH   1   6
ATOM      6  C   UNL     1      47.966 -40.143  50.902  0.00  0.00    +0.000 C 
ATOM      7  C   UNL     1      48.190 -38.651  50.633  0.00  0.00    +0.000 C 
BRANCH   7   9
ATOM      8  S   UNL     1      46.402 -35.786  51.521  0.00  0.00    +0.000 S 
ATOM      9  N   UNL     1      48.397 -37.346  50.406  0.00  0.00    +0.000 NA
ATOM     10  C   UNL     1      47.541 -36.702  50.887  0.00  0.00    +0.000 C 
ENDBRANCH   7   9
ENDBRANCH   1   6
TORSDOF 3
ENDMDL
MODEL 2
REMARK VINA RESULT:      -4.0      3.748      6.961
REMARK  Name = 5350_Sulforaphane.pdbqt.pdb
REMARK  3 active torsions:
REMARK  status: ('A' for Active; 'I' for Inactive)
REMARK    1  A    between atoms: C_1  and  C_2
REMARK    2  A    between atoms: C_3  and  N_5
REMARK    3  A    between atoms: C_7  and  S_8
REMARK                            x       y       z     vdW  Elec       q    Type
REMARK                         _______ _______ _______ _____ _____    ______ ____
ROOT
ATOM      1  C   UNL     1      48.189 -40.298  51.250  0.00  0.00    +0.000 C 
ATOM      2  C   UNL     1      48.250 -38.839  50.786  0.00  0.00    +0.000 C 
ENDROOT
BRANCH   2   3
ATOM      3  S   UNL     1      48.323 -37.162  50.248  0.00  0.00    +0.000 S 
ATOM      4  O   UNL     1      49.237 -36.783  51.375  0.00  0.00    +0.000 OA
ATOM      5  C   UNL     1      46.893 -36.699  51.165  0.00  0.00    +0.000 C 
ENDBRANCH   2   3
BRANCH   1   6
ATOM      6  C   UNL     1      48.131 -41.756  51.715  0.00  0.00    +0.000 C 
ATOM      7  C   UNL     1      48.072 -43.215  52.182  0.00  0.00    +0.000 C 
BRANCH   7   9
ATOM      8  S   UNL     1      45.880 -45.837  51.461  0.00  0.00    +0.000 S 
ATOM      9  N   UNL     1      48.027 -44.494  52.578  0.00  0.00    +0.000 NA
ATOM     10  C   UNL     1      47.111 -45.046  52.094  0.00  0.00    +0.000 C 
ENDBRANCH   7   9
ENDBRANCH   1   6
TORSDOF 3
ENDMDL
MODEL 3
REMARK VINA RESULT:      -3.7      4.376      6.981
REMARK  Name = 5350_Sulforaphane.pdbqt.pdb
REMARK  3 active torsions:
REMARK  status: ('A' for Active; 'I' for Inactive)
REMARK    1  A    between atoms: C_1  and  C_2
REMARK    2  A    between atoms: C_3  and  N_5
REMARK    3  A    between atoms: C_7  and  S_8
REMARK                            x       y       z     vdW  Elec       q    Type
REMARK                         _______ _______ _______ _____ _____    ______ ____
ROOT
ATOM      1  C   UNL     1      49.294 -37.874  50.143  0.00  0.00    +0.000 C 
ATOM      2  C   UNL     1      49.077 -36.801  51.216  0.00  0.00    +0.000 C 
ENDROOT
BRANCH   2   3
ATOM      3  S   UNL     1      48.829 -35.565  52.446  0.00  0.00    +0.000 S 
ATOM      4  O   UNL     1      48.509 -36.592  53.491  0.00  0.00    +0.000 OA
ATOM      5  C   UNL     1      47.129 -35.353  52.039  0.00  0.00    +0.000 C 
ENDBRANCH   2   3
BRANCH   1   6
ATOM      6  C   UNL     1      49.514 -38.947  49.073  0.00  0.00    +0.000 C 
ATOM      7  C   UNL     1      49.734 -40.021  48.001  0.00  0.00    +0.000 C 
BRANCH   7   9
ATOM      8  S   UNL     1      48.985 -43.431  47.902  0.00  0.00    +0.000 S 
ATOM      9  N   UNL     1      49.913 -40.962  47.064  0.00  0.00    +0.000 NA
ATOM     10  C   UNL     1      49.513 -42.000  47.438  0.00  0.00    +0.000 C 
ENDBRANCH   7   9
ENDBRANCH   1   6
TORSDOF 3
ENDMDL
MODEL 4
REMARK VINA RESULT:      -3.6      5.746      7.447
REMARK  Name = 5350_Sulforaphane.pdbqt.pdb
REMARK  3 active torsions:
REMARK  status: ('A' for Active; 'I' for Inactive)
REMARK    1  A    between atoms: C_1  and  C_2
REMARK    2  A    between atoms: C_3  and  N_5
REMARK    3  A    between atoms: C_7  and  S_8
REMARK                            x       y       z     vdW  Elec       q    Type
REMARK                         _______ _______ _______ _____ _____    ______ ____
ROOT
ATOM      1  C   UNL     1      48.815 -36.413  48.607  0.00  0.00    +0.000 C 
ATOM      2  C   UNL     1      48.396 -36.746  50.043  0.00  0.00    +0.000 C 
ENDROOT
BRANCH   2   3
ATOM      3  S   UNL     1      47.912 -37.131  51.693  0.00  0.00    +0.000 S 
ATOM      4  O   UNL     1      46.462 -37.182  51.313  0.00  0.00    +0.000 OA
ATOM      5  C   UNL     1      47.796 -35.438  52.163  0.00  0.00    +0.000 C 
ENDBRANCH   2   3
BRANCH   1   6
ATOM      6  C   UNL     1      49.232 -36.078  47.172  0.00  0.00    +0.000 C 
ATOM      7  C   UNL     1      49.649 -35.742  45.735  0.00  0.00    +0.000 C 
BRANCH   7   9
ATOM      8  S   UNL     1      52.159 -33.688  44.439  0.00  0.00    +0.000 S 
ATOM      9  N   UNL     1      50.013 -35.436  44.483  0.00  0.00    +0.000 NA
ATOM     10  C   UNL     1      50.924 -34.695  44.486  0.00  0.00    +0.000 C 
ENDBRANCH   7   9
ENDBRANCH   1   6
TORSDOF 3
ENDMDL
MODEL 5
REMARK VINA RESULT:      -3.6      3.591      4.081
REMARK  Name = 5350_Sulforaphane.pdbqt.pdb
REMARK  3 active torsions:
REMARK  status: ('A' for Active; 'I' for Inactive)
REMARK    1  A    between atoms: C_1  and  C_2
REMARK    2  A    between atoms: C_3  and  N_5
REMARK    3  A    between atoms: C_7  and  S_8
REMARK                            x       y       z     vdW  Elec       q    Type
REMARK                         _______ _______ _______ _____ _____    ______ ____
ROOT
ATOM      1  C   UNL     1      49.835 -43.844  49.453  0.00  0.00    +0.000 C 
ATOM      2  C   UNL     1      50.668 -45.039  48.976  0.00  0.00    +0.000 C 
ENDROOT
BRANCH   2   3
ATOM      3  S   UNL     1      51.622 -46.415  48.429  0.00  0.00    +0.000 S 
ATOM      4  O   UNL     1      52.049 -46.745  49.828  0.00  0.00    +0.000 OA
ATOM      5  C   UNL     1      53.060 -45.439  48.149  0.00  0.00    +0.000 C 
ENDBRANCH   2   3
BRANCH   1   6
ATOM      6  C   UNL     1      49.005 -42.650  49.932  0.00  0.00    +0.000 C 
ATOM      7  C   UNL     1      48.173 -41.454  50.412  0.00  0.00    +0.000 C 
BRANCH   7   9
ATOM      8  S   UNL     1      48.927 -38.088  50.955  0.00  0.00    +0.000 S 
ATOM      9  N   UNL     1      47.436 -40.416  50.829  0.00  0.00    +0.000 NA
ATOM     10  C   UNL     1      48.085 -39.439  50.875  0.00  0.00    +0.000 C 
ENDBRANCH   7   9
ENDBRANCH   1   6
TORSDOF 3
ENDMDL
MODEL 6
REMARK VINA RESULT:      -3.5      4.747      7.890
REMARK  Name = 5350_Sulforaphane.pdbqt.pdb
REMARK  3 active torsions:
REMARK  status: ('A' for Active; 'I' for Inactive)
REMARK    1  A    between atoms: C_1  and  C_2
REMARK    2  A    between atoms: C_3  and  N_5
REMARK    3  A    between atoms: C_7  and  S_8
REMARK                            x       y       z     vdW  Elec       q    Type
REMARK                         _______ _______ _______ _____ _____    ______ ____
ROOT
ATOM      1  C   UNL     1      47.617 -43.617  51.456  0.00  0.00    +0.000 C 
ATOM      2  C   UNL     1      47.832 -42.128  51.164  0.00  0.00    +0.000 C 
ENDROOT
BRANCH   2   3
ATOM      3  S   UNL     1      48.083 -40.417  50.826  0.00  0.00    +0.000 S 
ATOM      4  O   UNL     1      46.630 -40.209  50.516  0.00  0.00    +0.000 OA
ATOM      5  C   UNL     1      48.472 -40.702  49.133  0.00  0.00    +0.000 C 
ENDBRANCH   2   3
BRANCH   1   6
ATOM      6  C   UNL     1      47.403 -45.104  51.752  0.00  0.00    +0.000 C 
ATOM      7  C   UNL     1      47.189 -46.593  52.048  0.00  0.00    +0.000 C 
BRANCH   7   9
ATOM      8  S   UNL     1      49.125 -49.417  51.360  0.00  0.00    +0.000 S 
ATOM      9  N   UNL     1      47.010 -47.898  52.297  0.00  0.00    +0.000 NA
ATOM     10  C   UNL     1      47.917 -48.524  51.893  0.00  0.00    +0.000 C 
ENDBRANCH   7   9
ENDBRANCH   1   6
TORSDOF 3
ENDMDL
MODEL 7
REMARK VINA RESULT:      -3.4      7.093      8.744
REMARK  Name = 5350_Sulforaphane.pdbqt.pdb
REMARK  3 active torsions:
REMARK  status: ('A' for Active; 'I' for Inactive)
REMARK    1  A    between atoms: C_1  and  C_2
REMARK    2  A    between atoms: C_3  and  N_5
REMARK    3  A    between atoms: C_7  and  S_8
REMARK                            x       y       z     vdW  Elec       q    Type
REMARK                         _______ _______ _______ _____ _____    ______ ____
ROOT
ATOM      1  C   UNL     1      42.366 -46.538  50.786  0.00  0.00    +0.000 C 
ATOM      2  C   UNL     1      41.029 -46.557  50.037  0.00  0.00    +0.000 C 
ENDROOT
BRANCH   2   3
ATOM      3  S   UNL     1      39.492 -46.574  49.175  0.00  0.00    +0.000 S 
ATOM      4  O   UNL     1      38.880 -45.599  50.136  0.00  0.00    +0.000 OA
ATOM      5  C   UNL     1      38.881 -47.954  50.082  0.00  0.00    +0.000 C 
ENDBRANCH   2   3
BRANCH   1   6
ATOM      6  C   UNL     1      43.700 -46.520  51.537  0.00  0.00    +0.000 C 
ATOM      7  C   UNL     1      45.036 -46.501  52.289  0.00  0.00    +0.000 C 
BRANCH   7   9
ATOM      8  S   UNL     1      47.868 -44.469  52.074  0.00  0.00    +0.000 S 
ATOM      9  N   UNL     1      46.199 -46.494  52.954  0.00  0.00    +0.000 NA
ATOM     10  C   UNL     1      46.892 -45.629  52.567  0.00  0.00    +0.000 C 
ENDBRANCH   7   9
ENDBRANCH   1   6
TORSDOF 3
ENDMDL
MODEL 8
REMARK VINA RESULT:      -3.3     20.875     21.988
REMARK  Name = 5350_Sulforaphane.pdbqt.pdb
REMARK  3 active torsions:
REMARK  status: ('A' for Active; 'I' for Inactive)
REMARK    1  A    between atoms: C_1  and  C_2
REMARK    2  A    between atoms: C_3  and  N_5
REMARK    3  A    between atoms: C_7  and  S_8
REMARK                            x       y       z     vdW  Elec       q    Type
REMARK                         _______ _______ _______ _____ _____    ______ ____
ROOT
ATOM      1  C   UNL     1      43.756 -55.044  67.141  0.00  0.00    +0.000 C 
ATOM      2  C   UNL     1      44.083 -54.797  68.617  0.00  0.00    +0.000 C 
ENDROOT
BRANCH   2   3
ATOM      3  S   UNL     1      44.455 -54.515  70.316  0.00  0.00    +0.000 S 
ATOM      4  O   UNL     1      43.493 -53.367  70.393  0.00  0.00    +0.000 OA
ATOM      5  C   UNL     1      45.805 -53.445  69.950  0.00  0.00    +0.000 C 
ENDBRANCH   2   3
BRANCH   1   6
ATOM      6  C   UNL     1      43.428 -55.288  65.665  0.00  0.00    +0.000 C 
ATOM      7  C   UNL     1      43.100 -55.531  64.187  0.00  0.00    +0.000 C 
BRANCH   7   9
ATOM      8  S   UNL     1      40.336 -56.961  62.601  0.00  0.00    +0.000 S 
ATOM      9  N   UNL     1      42.810 -55.757  62.898  0.00  0.00    +0.000 NA
ATOM     10  C   UNL     1      41.758 -56.267  62.793  0.00  0.00    +0.000 C 
ENDBRANCH   7   9
ENDBRANCH   1   6
TORSDOF 3
ENDMDL
MODEL 9
REMARK VINA RESULT:      -3.3      8.445     12.066
REMARK  Name = 5350_Sulforaphane.pdbqt.pdb
REMARK  3 active torsions:
REMARK  status: ('A' for Active; 'I' for Inactive)
REMARK    1  A    between atoms: C_1  and  C_2
REMARK    2  A    between atoms: C_3  and  N_5
REMARK    3  A    between atoms: C_7  and  S_8
REMARK                            x       y       z     vdW  Elec       q    Type
REMARK                         _______ _______ _______ _____ _____    ______ ____
ROOT
ATOM      1  C   UNL     1      46.866 -49.924  53.653  0.00  0.00    +0.000 C 
ATOM      2  C   UNL     1      46.760 -48.756  52.667  0.00  0.00    +0.000 C 
ENDROOT
BRANCH   2   3
ATOM      3  S   UNL     1      46.641 -47.410  51.536  0.00  0.00    +0.000 S 
ATOM      4  O   UNL     1      48.093 -47.072  51.701  0.00  0.00    +0.000 OA
ATOM      5  C   UNL     1      46.166 -46.265  52.787  0.00  0.00    +0.000 C 
ENDBRANCH   2   3
BRANCH   1   6
ATOM      6  C   UNL     1      46.969 -51.091  54.639  0.00  0.00    +0.000 C 
ATOM      7  C   UNL     1      47.073 -52.260  55.626  0.00  0.00    +0.000 C 
BRANCH   7   9
ATOM      8  S   UNL     1      49.751 -53.717  57.329  0.00  0.00    +0.000 S 
ATOM      9  N   UNL     1      47.151 -53.282  56.489  0.00  0.00    +0.000 NA
ATOM     10  C   UNL     1      48.260 -53.450  56.833  0.00  0.00    +0.000 C 
ENDBRANCH   7   9
ENDBRANCH   1   6
TORSDOF 3
ENDMDL
