MODEL 1
REMARK VINA RESULT:      -5.5      0.000      0.000
REMARK  Name = 5357283_Methylferulate.pdbqt.pdb
REMARK  5 active torsions:
REMARK  status: ('A' for Active; 'I' for Inactive)
REMARK    1  A    between atoms: C_1  and  C_11
REMARK    2  A    between atoms: C_2  and  O_7
REMARK    3  A    between atoms: C_5  and  O_9
REMARK    4  A    between atoms: C_12  and  C_14
REMARK    5  A    between atoms: C_14  and  O_15
REMARK                            x       y       z     vdW  Elec       q    Type
REMARK                         _______ _______ _______ _____ _____    ______ ____
ROOT
ATOM      1  C   UNL     1      49.453 -36.917  48.489  0.00  0.00    +0.000 A 
ATOM      2  C   UNL     1      48.327 -37.560  50.538  0.00  0.00    +0.000 A 
ATOM      3  C   UNL     1      48.557 -36.632  49.519  0.00  0.00    +0.000 A 
ATOM      4  C   UNL     1      50.129 -38.134  48.468  0.00  0.00    +0.000 A 
ATOM      5  C   UNL     1      49.012 -38.777  50.504  0.00  0.00    +0.000 A 
ATOM      6  C   UNL     1      49.909 -39.067  49.477  0.00  0.00    +0.000 A 
ENDROOT
BRANCH   2   7
ATOM      7  O   UNL     1      47.462 -37.359  51.587  0.00  0.00    +0.000 OA
ATOM      8  C   UNL     1      46.559 -36.296  51.428  0.00  0.00    +0.000 C 
ENDBRANCH   2   7
BRANCH   5   9
ATOM      9  O   UNL     1      48.800 -39.699  51.493  0.00  0.00    +0.000 OA
ATOM     10  H   UNL     1      48.104 -40.316  51.201  0.00  0.00    +0.000 HD
ENDBRANCH   5   9
BRANCH   1  11
ATOM     11  C   UNL     1      49.676 -35.958  47.458  0.00  0.00    +0.000 C 
ATOM     12  C   UNL     1      49.864 -35.148  46.589  0.00  0.00    +0.000 C 
BRANCH  12  14
ATOM     13  O   UNL     1      50.357 -34.548  44.413  0.00  0.00    +0.000 OA
ATOM     14  C   UNL     1      50.085 -34.174  45.546  0.00  0.00    +0.000 C 
BRANCH  14  15
ATOM     15  O   UNL     1      49.947 -32.901  46.022  0.00  0.00    +0.000 OA
ATOM     16  C   UNL     1      50.980 -32.382  46.821  0.00  0.00    +0.000 C 
ENDBRANCH  14  15
ENDBRANCH  12  14
ENDBRANCH   1  11
TORSDOF 5
ENDMDL
MODEL 2
REMARK VINA RESULT:      -5.2      3.712      5.396
REMARK  Name = 5357283_Methylferulate.pdbqt.pdb
REMARK  5 active torsions:
REMARK  status: ('A' for Active; 'I' for Inactive)
REMARK    1  A    between atoms: C_1  and  C_11
REMARK    2  A    between atoms: C_2  and  O_7
REMARK    3  A    between atoms: C_5  and  O_9
REMARK    4  A    between atoms: C_12  and  C_14
REMARK    5  A    between atoms: C_14  and  O_15
REMARK                            x       y       z     vdW  Elec       q    Type
REMARK                         _______ _______ _______ _____ _____    ______ ____
ROOT
ATOM      1  C   UNL     1      49.277 -38.585  49.456  0.00  0.00    +0.000 A 
ATOM      2  C   UNL     1      49.058 -40.878  48.697  0.00  0.00    +0.000 A 
ATOM      3  C   UNL     1      48.854 -39.896  49.671  0.00  0.00    +0.000 A 
ATOM      4  C   UNL     1      49.908 -38.241  48.262  0.00  0.00    +0.000 A 
ATOM      5  C   UNL     1      49.692 -40.518  47.505  0.00  0.00    +0.000 A 
ATOM      6  C   UNL     1      50.117 -39.209  47.284  0.00  0.00    +0.000 A 
ENDROOT
BRANCH   2   7
ATOM      7  O   UNL     1      48.673 -42.190  48.829  0.00  0.00    +0.000 OA
ATOM      8  C   UNL     1      49.436 -42.954  49.725  0.00  0.00    +0.000 C 
ENDBRANCH   2   7
BRANCH   5   9
ATOM      9  O   UNL     1      49.900 -41.465  46.538  0.00  0.00    +0.000 OA
ATOM     10  H   UNL     1      49.040 -41.851  46.289  0.00  0.00    +0.000 HD
ENDBRANCH   5   9
BRANCH   1  11
ATOM     11  C   UNL     1      49.062 -37.597  50.461  0.00  0.00    +0.000 C 
ATOM     12  C   UNL     1      48.883 -36.763  51.308  0.00  0.00    +0.000 C 
BRANCH  12  14
ATOM     13  O   UNL     1      49.611 -35.081  52.716  0.00  0.00    +0.000 OA
ATOM     14  C   UNL     1      48.671 -35.762  52.328  0.00  0.00    +0.000 C 
BRANCH  14  15
ATOM     15  O   UNL     1      47.365 -35.733  52.727  0.00  0.00    +0.000 OA
ATOM     16  C   UNL     1      46.382 -35.520  51.745  0.00  0.00    +0.000 C 
ENDBRANCH  14  15
ENDBRANCH  12  14
ENDBRANCH   1  11
TORSDOF 5
ENDMDL
MODEL 3
REMARK VINA RESULT:      -5.2      1.738      2.289
REMARK  Name = 5357283_Methylferulate.pdbqt.pdb
REMARK  5 active torsions:
REMARK  status: ('A' for Active; 'I' for Inactive)
REMARK    1  A    between atoms: C_1  and  C_11
REMARK    2  A    between atoms: C_2  and  O_7
REMARK    3  A    between atoms: C_5  and  O_9
REMARK    4  A    between atoms: C_12  and  C_14
REMARK    5  A    between atoms: C_14  and  O_15
REMARK                            x       y       z     vdW  Elec       q    Type
REMARK                         _______ _______ _______ _____ _____    ______ ____
ROOT
ATOM      1  C   UNL     1      49.210 -36.876  48.266  0.00  0.00    +0.000 A 
ATOM      2  C   UNL     1      48.987 -37.116  50.669  0.00  0.00    +0.000 A 
ATOM      3  C   UNL     1      48.713 -36.422  49.487  0.00  0.00    +0.000 A 
ATOM      4  C   UNL     1      49.987 -38.031  48.214  0.00  0.00    +0.000 A 
ATOM      5  C   UNL     1      49.767 -38.273  50.601  0.00  0.00    +0.000 A 
ATOM      6  C   UNL     1      50.267 -38.732  49.383  0.00  0.00    +0.000 A 
ENDROOT
BRANCH   2   7
ATOM      7  O   UNL     1      48.536 -36.738  51.911  0.00  0.00    +0.000 OA
ATOM      8  C   UNL     1      49.153 -35.600  52.453  0.00  0.00    +0.000 C 
ENDBRANCH   2   7
BRANCH   5   9
ATOM      9  O   UNL     1      50.046 -38.968  51.747  0.00  0.00    +0.000 OA
ATOM     10  H   UNL     1      49.378 -39.669  51.857  0.00  0.00    +0.000 HD
ENDBRANCH   5   9
BRANCH   1  11
ATOM     11  C   UNL     1      48.922 -36.154  47.070  0.00  0.00    +0.000 C 
ATOM     12  C   UNL     1      48.679 -35.544  46.063  0.00  0.00    +0.000 C 
BRANCH  12  14
ATOM     13  O   UNL     1      47.874 -33.699  44.928  0.00  0.00    +0.000 OA
ATOM     14  C   UNL     1      48.383 -34.810  44.855  0.00  0.00    +0.000 C 
BRANCH  14  15
ATOM     15  O   UNL     1      48.742 -35.520  43.745  0.00  0.00    +0.000 OA
ATOM     16  C   UNL     1      48.253 -36.831  43.616  0.00  0.00    +0.000 C 
ENDBRANCH  14  15
ENDBRANCH  12  14
ENDBRANCH   1  11
TORSDOF 5
ENDMDL
MODEL 4
REMARK VINA RESULT:      -5.1      1.536      2.819
REMARK  Name = 5357283_Methylferulate.pdbqt.pdb
REMARK  5 active torsions:
REMARK  status: ('A' for Active; 'I' for Inactive)
REMARK    1  A    between atoms: C_1  and  C_11
REMARK    2  A    between atoms: C_2  and  O_7
REMARK    3  A    between atoms: C_5  and  O_9
REMARK    4  A    between atoms: C_12  and  C_14
REMARK    5  A    between atoms: C_14  and  O_15
REMARK                            x       y       z     vdW  Elec       q    Type
REMARK                         _______ _______ _______ _____ _____    ______ ____
ROOT
ATOM      1  C   UNL     1      48.990 -37.469  48.998  0.00  0.00    +0.000 A 
ATOM      2  C   UNL     1      48.997 -39.821  49.590  0.00  0.00    +0.000 A 
ATOM      3  C   UNL     1      49.214 -38.802  48.658  0.00  0.00    +0.000 A 
ATOM      4  C   UNL     1      48.546 -37.139  50.276  0.00  0.00    +0.000 A 
ATOM      5  C   UNL     1      48.552 -39.475  50.869  0.00  0.00    +0.000 A 
ATOM      6  C   UNL     1      48.326 -38.143  51.214  0.00  0.00    +0.000 A 
ENDROOT
BRANCH   2   7
ATOM      7  O   UNL     1      49.193 -41.157  49.337  0.00  0.00    +0.000 OA
ATOM      8  C   UNL     1      49.508 -41.478  48.007  0.00  0.00    +0.000 C 
ENDBRANCH   2   7
BRANCH   5   9
ATOM      9  O   UNL     1      48.334 -40.458  51.796  0.00  0.00    +0.000 OA
ATOM     10  H   UNL     1      48.273 -40.047  52.678  0.00  0.00    +0.000 HD
ENDBRANCH   5   9
BRANCH   1  11
ATOM     11  C   UNL     1      49.216 -36.443  48.034  0.00  0.00    +0.000 C 
ATOM     12  C   UNL     1      49.407 -35.578  47.221  0.00  0.00    +0.000 C 
BRANCH  12  14
ATOM     13  O   UNL     1      50.734 -34.425  45.720  0.00  0.00    +0.000 OA
ATOM     14  C   UNL     1      49.635 -34.535  46.248  0.00  0.00    +0.000 C 
BRANCH  14  15
ATOM     15  O   UNL     1      48.511 -33.783  46.058  0.00  0.00    +0.000 OA
ATOM     16  C   UNL     1      48.051 -33.609  44.742  0.00  0.00    +0.000 C 
ENDBRANCH  14  15
ENDBRANCH  12  14
ENDBRANCH   1  11
TORSDOF 5
ENDMDL
MODEL 5
REMARK VINA RESULT:      -5.1      4.208      6.298
REMARK  Name = 5357283_Methylferulate.pdbqt.pdb
REMARK  5 active torsions:
REMARK  status: ('A' for Active; 'I' for Inactive)
REMARK    1  A    between atoms: C_1  and  C_11
REMARK    2  A    between atoms: C_2  and  O_7
REMARK    3  A    between atoms: C_5  and  O_9
REMARK    4  A    between atoms: C_12  and  C_14
REMARK    5  A    between atoms: C_14  and  O_15
REMARK                            x       y       z     vdW  Elec       q    Type
REMARK                         _______ _______ _______ _____ _____    ______ ____
ROOT
ATOM      1  C   UNL     1      48.233 -41.198  50.792  0.00  0.00    +0.000 A 
ATOM      2  C   UNL     1      48.926 -43.172  49.565  0.00  0.00    +0.000 A 
ATOM      3  C   UNL     1      48.737 -41.788  49.634  0.00  0.00    +0.000 A 
ATOM      4  C   UNL     1      47.912 -41.986  51.895  0.00  0.00    +0.000 A 
ATOM      5  C   UNL     1      48.600 -43.949  50.680  0.00  0.00    +0.000 A 
ATOM      6  C   UNL     1      48.096 -43.364  51.840  0.00  0.00    +0.000 A 
ENDROOT
BRANCH   2   7
ATOM      7  O   UNL     1      49.417 -43.832  48.465  0.00  0.00    +0.000 OA
ATOM      8  C   UNL     1      49.735 -43.017  47.366  0.00  0.00    +0.000 C 
ENDBRANCH   2   7
BRANCH   5   9
ATOM      9  O   UNL     1      48.780 -45.305  50.633  0.00  0.00    +0.000 OA
ATOM     10  H   UNL     1      49.709 -45.505  50.848  0.00  0.00    +0.000 HD
ENDBRANCH   5   9
BRANCH   1  11
ATOM     11  C   UNL     1      48.045 -39.785  50.844  0.00  0.00    +0.000 C 
ATOM     12  C   UNL     1      47.888 -38.594  50.889  0.00  0.00    +0.000 C 
BRANCH  12  14
ATOM     13  O   UNL     1      48.613 -36.415  50.636  0.00  0.00    +0.000 OA
ATOM     14  C   UNL     1      47.697 -37.164  50.947  0.00  0.00    +0.000 C 
BRANCH  14  15
ATOM     15  O   UNL     1      46.437 -36.850  51.371  0.00  0.00    +0.000 OA
ATOM     16  C   UNL     1      46.158 -35.506  51.670  0.00  0.00    +0.000 C 
ENDBRANCH  14  15
ENDBRANCH  12  14
ENDBRANCH   1  11
TORSDOF 5
ENDMDL
MODEL 6
REMARK VINA RESULT:      -5.0      2.391      5.449
REMARK  Name = 5357283_Methylferulate.pdbqt.pdb
REMARK  5 active torsions:
REMARK  status: ('A' for Active; 'I' for Inactive)
REMARK    1  A    between atoms: C_1  and  C_11
REMARK    2  A    between atoms: C_2  and  O_7
REMARK    3  A    between atoms: C_5  and  O_9
REMARK    4  A    between atoms: C_12  and  C_14
REMARK    5  A    between atoms: C_14  and  O_15
REMARK                            x       y       z     vdW  Elec       q    Type
REMARK                         _______ _______ _______ _____ _____    ______ ____
ROOT
ATOM      1  C   UNL     1      49.204 -37.446  48.891  0.00  0.00    +0.000 A 
ATOM      2  C   UNL     1      49.390 -37.414  46.473  0.00  0.00    +0.000 A 
ATOM      3  C   UNL     1      49.099 -36.767  47.677  0.00  0.00    +0.000 A 
ATOM      4  C   UNL     1      49.601 -38.781  48.912  0.00  0.00    +0.000 A 
ATOM      5  C   UNL     1      49.787 -38.753  46.510  0.00  0.00    +0.000 A 
ATOM      6  C   UNL     1      49.893 -39.437  47.720  0.00  0.00    +0.000 A 
ENDROOT
BRANCH   2   7
ATOM      7  O   UNL     1      49.312 -36.819  45.236  0.00  0.00    +0.000 OA
ATOM      8  C   UNL     1      48.500 -35.677  45.168  0.00  0.00    +0.000 C 
ENDBRANCH   2   7
BRANCH   5   9
ATOM      9  O   UNL     1      50.077 -39.404  45.341  0.00  0.00    +0.000 OA
ATOM     10  H   UNL     1      49.509 -39.046  44.635  0.00  0.00    +0.000 HD
ENDBRANCH   5   9
BRANCH   1  11
ATOM     11  C   UNL     1      48.902 -36.770  50.109  0.00  0.00    +0.000 C 
ATOM     12  C   UNL     1      48.646 -36.201  51.137  0.00  0.00    +0.000 C 
BRANCH  12  14
ATOM     13  O   UNL     1      49.216 -34.902  52.961  0.00  0.00    +0.000 OA
ATOM     14  C   UNL     1      48.336 -35.513  52.369  0.00  0.00    +0.000 C 
BRANCH  14  15
ATOM     15  O   UNL     1      47.020 -35.663  52.701  0.00  0.00    +0.000 OA
ATOM     16  C   UNL     1      46.063 -35.500  51.685  0.00  0.00    +0.000 C 
ENDBRANCH  14  15
ENDBRANCH  12  14
ENDBRANCH   1  11
TORSDOF 5
ENDMDL
MODEL 7
REMARK VINA RESULT:      -5.0      2.544      3.109
REMARK  Name = 5357283_Methylferulate.pdbqt.pdb
REMARK  5 active torsions:
REMARK  status: ('A' for Active; 'I' for Inactive)
REMARK    1  A    between atoms: C_1  and  C_11
REMARK    2  A    between atoms: C_2  and  O_7
REMARK    3  A    between atoms: C_5  and  O_9
REMARK    4  A    between atoms: C_12  and  C_14
REMARK    5  A    between atoms: C_14  and  O_15
REMARK                            x       y       z     vdW  Elec       q    Type
REMARK                         _______ _______ _______ _____ _____    ______ ____
ROOT
ATOM      1  C   UNL     1      49.278 -37.468  48.752  0.00  0.00    +0.000 A 
ATOM      2  C   UNL     1      48.470 -36.430  50.789  0.00  0.00    +0.000 A 
ATOM      3  C   UNL     1      48.524 -36.487  49.394  0.00  0.00    +0.000 A 
ATOM      4  C   UNL     1      49.988 -38.404  49.500  0.00  0.00    +0.000 A 
ATOM      5  C   UNL     1      49.187 -37.376  51.527  0.00  0.00    +0.000 A 
ATOM      6  C   UNL     1      49.943 -38.359  50.890  0.00  0.00    +0.000 A 
ENDROOT
BRANCH   2   7
ATOM      7  O   UNL     1      47.752 -35.497  51.499  0.00  0.00    +0.000 OA
ATOM      8  C   UNL     1      46.370 -35.730  51.572  0.00  0.00    +0.000 C 
ENDBRANCH   2   7
BRANCH   5   9
ATOM      9  O   UNL     1      49.146 -37.337  52.895  0.00  0.00    +0.000 OA
ATOM     10  H   UNL     1      48.438 -37.933  53.203  0.00  0.00    +0.000 HD
ENDBRANCH   5   9
BRANCH   1  11
ATOM     11  C   UNL     1      49.323 -37.510  47.328  0.00  0.00    +0.000 C 
ATOM     12  C   UNL     1      49.360 -37.544  46.126  0.00  0.00    +0.000 C 
BRANCH  12  14
ATOM     13  O   UNL     1      48.608 -36.912  44.035  0.00  0.00    +0.000 OA
ATOM     14  C   UNL     1      49.400 -37.583  44.683  0.00  0.00    +0.000 C 
BRANCH  14  15
ATOM     15  O   UNL     1      50.383 -38.420  44.239  0.00  0.00    +0.000 OA
ATOM     16  C   UNL     1      50.257 -39.791  44.521  0.00  0.00    +0.000 C 
ENDBRANCH  14  15
ENDBRANCH  12  14
ENDBRANCH   1  11
TORSDOF 5
ENDMDL
MODEL 8
REMARK VINA RESULT:      -5.0      3.424      7.617
REMARK  Name = 5357283_Methylferulate.pdbqt.pdb
REMARK  5 active torsions:
REMARK  status: ('A' for Active; 'I' for Inactive)
REMARK    1  A    between atoms: C_1  and  C_11
REMARK    2  A    between atoms: C_2  and  O_7
REMARK    3  A    between atoms: C_5  and  O_9
REMARK    4  A    between atoms: C_12  and  C_14
REMARK    5  A    between atoms: C_14  and  O_15
REMARK                            x       y       z     vdW  Elec       q    Type
REMARK                         _______ _______ _______ _____ _____    ______ ____
ROOT
ATOM      1  C   UNL     1      48.450 -40.163  50.431  0.00  0.00    +0.000 A 
ATOM      2  C   UNL     1      48.221 -37.755  50.613  0.00  0.00    +0.000 A 
ATOM      3  C   UNL     1      48.000 -39.038  51.121  0.00  0.00    +0.000 A 
ATOM      4  C   UNL     1      49.127 -40.016  49.222  0.00  0.00    +0.000 A 
ATOM      5  C   UNL     1      48.902 -37.623  49.400  0.00  0.00    +0.000 A 
ATOM      6  C   UNL     1      49.354 -38.744  48.705  0.00  0.00    +0.000 A 
ENDROOT
BRANCH   2   7
ATOM      7  O   UNL     1      47.812 -36.597  51.229  0.00  0.00    +0.000 OA
ATOM      8  C   UNL     1      46.437 -36.325  51.147  0.00  0.00    +0.000 C 
ENDBRANCH   2   7
BRANCH   5   9
ATOM      9  O   UNL     1      49.130 -36.375  48.886  0.00  0.00    +0.000 OA
ATOM     10  H   UNL     1      50.045 -36.336  48.553  0.00  0.00    +0.000 HD
ENDBRANCH   5   9
BRANCH   1  11
ATOM     11  C   UNL     1      48.214 -41.464  50.964  0.00  0.00    +0.000 C 
ATOM     12  C   UNL     1      48.015 -42.562  51.412  0.00  0.00    +0.000 C 
BRANCH  12  14
ATOM     13  O   UNL     1      48.005 -44.110  53.128  0.00  0.00    +0.000 OA
ATOM     14  C   UNL     1      47.771 -43.881  51.948  0.00  0.00    +0.000 C 
BRANCH  14  15
ATOM     15  O   UNL     1      47.284 -44.722  50.989  0.00  0.00    +0.000 OA
ATOM     16  C   UNL     1      47.989 -45.912  50.739  0.00  0.00    +0.000 C 
ENDBRANCH  14  15
ENDBRANCH  12  14
ENDBRANCH   1  11
TORSDOF 5
ENDMDL
MODEL 9
REMARK VINA RESULT:      -4.9     12.791     15.467
REMARK  Name = 5357283_Methylferulate.pdbqt.pdb
REMARK  5 active torsions:
REMARK  status: ('A' for Active; 'I' for Inactive)
REMARK    1  A    between atoms: C_1  and  C_11
REMARK    2  A    between atoms: C_2  and  O_7
REMARK    3  A    between atoms: C_5  and  O_9
REMARK    4  A    between atoms: C_12  and  C_14
REMARK    5  A    between atoms: C_14  and  O_15
REMARK                            x       y       z     vdW  Elec       q    Type
REMARK                         _______ _______ _______ _____ _____    ______ ____
ROOT
ATOM      1  C   UNL     1      38.255 -28.199  55.254  0.00  0.00    +0.000 A 
ATOM      2  C   UNL     1      35.853 -27.876  55.347  0.00  0.00    +0.000 A 
ATOM      3  C   UNL     1      36.996 -28.304  54.665  0.00  0.00    +0.000 A 
ATOM      4  C   UNL     1      38.385 -27.665  56.534  0.00  0.00    +0.000 A 
ATOM      5  C   UNL     1      35.999 -27.343  56.630  0.00  0.00    +0.000 A 
ATOM      6  C   UNL     1      37.256 -27.236  57.224  0.00  0.00    +0.000 A 
ENDROOT
BRANCH   2   7
ATOM      7  O   UNL     1      34.578 -27.944  54.840  0.00  0.00    +0.000 OA
ATOM      8  C   UNL     1      34.299 -27.053  53.793  0.00  0.00    +0.000 C 
ENDBRANCH   2   7
BRANCH   5   9
ATOM      9  O   UNL     1      34.892 -26.920  57.316  0.00  0.00    +0.000 OA
ATOM     10  H   UNL     1      34.247 -26.565  56.678  0.00  0.00    +0.000 HD
ENDBRANCH   5   9
BRANCH   1  11
ATOM     11  C   UNL     1      39.410 -28.638  54.542  0.00  0.00    +0.000 C 
ATOM     12  C   UNL     1      40.384 -29.010  53.943  0.00  0.00    +0.000 C 
BRANCH  12  14
ATOM     13  O   UNL     1      41.511 -30.488  52.570  0.00  0.00    +0.000 OA
ATOM     14  C   UNL     1      41.556 -29.457  53.227  0.00  0.00    +0.000 C 
BRANCH  14  15
ATOM     15  O   UNL     1      42.603 -28.599  53.410  0.00  0.00    +0.000 OA
ATOM     16  C   UNL     1      43.801 -28.868  52.726  0.00  0.00    +0.000 C 
ENDBRANCH  14  15
ENDBRANCH  12  14
ENDBRANCH   1  11
TORSDOF 5
ENDMDL
