MODEL 1
REMARK VINA RESULT:      -8.5      0.000      0.000
REMARK  Name = 5358691_Yuanhuacine.pdbqt.pdb
REMARK  12 active torsions:
REMARK  status: ('A' for Active; 'I' for Inactive)
REMARK    1  A    between atoms: C_9  and  C_48
REMARK    2  A    between atoms: C_13  and  C_23
REMARK    3  A    between atoms: C_14  and  O_26
REMARK    4  A    between atoms: C_15  and  O_28
REMARK    5  A    between atoms: C_16  and  O_39
REMARK    6  A    between atoms: C_17  and  C_30
REMARK    7  A    between atoms: C_31  and  C_32
REMARK    8  A    between atoms: C_33  and  C_34
REMARK    9  A    between atoms: C_35  and  C_36
REMARK   10  A    between atoms: O_39  and  C_41
REMARK   11  A    between atoms: C_41  and  C_42
REMARK   12  A    between atoms: C_48  and  O_49
REMARK                            x       y       z     vdW  Elec       q    Type
REMARK                         _______ _______ _______ _____ _____    ______ ____
ROOT
ATOM      1  O   UNL     1      46.840 -42.326  45.001  0.00  0.00    +0.000 OA
ATOM      2  O   UNL     1      49.828 -42.312  46.827  0.00  0.00    +0.000 OA
ATOM      3  O   UNL     1      48.241 -43.881  47.635  0.00  0.00    +0.000 OA
ATOM      4  O   UNL     1      49.777 -43.006  49.095  0.00  0.00    +0.000 OA
ATOM      5  O   UNL     1      48.348 -37.493  43.781  0.00  0.00    +0.000 OA
ATOM      6  C   UNL     1      47.484 -41.781  47.191  0.00  0.00    +0.000 C 
ATOM      7  C   UNL     1      48.886 -41.202  46.952  0.00  0.00    +0.000 C 
ATOM      8  C   UNL     1      46.424 -41.868  46.226  0.00  0.00    +0.000 C 
ATOM      9  C   UNL     1      46.048 -41.131  45.019  0.00  0.00    +0.000 C 
ATOM     10  C   UNL     1      47.634 -42.787  48.249  0.00  0.00    +0.000 C 
ATOM     11  C   UNL     1      48.963 -40.413  45.681  0.00  0.00    +0.000 C 
ATOM     12  C   UNL     1      49.289 -40.349  48.192  0.00  0.00    +0.000 C 
ATOM     13  C   UNL     1      48.510 -42.390  49.462  0.00  0.00    +0.000 C 
ATOM     14  C   UNL     1      47.949 -39.337  45.363  0.00  0.00    +0.000 C 
ATOM     15  C   UNL     1      46.669 -39.808  44.737  0.00  0.00    +0.000 C 
ATOM     16  C   UNL     1      48.833 -40.906  49.456  0.00  0.00    +0.000 C 
ATOM     17  C   UNL     1      49.590 -43.410  47.741  0.00  0.00    +0.000 C 
ATOM     18  C   UNL     1      50.115 -40.197  44.881  0.00  0.00    +0.000 C 
ATOM     19  C   UNL     1      50.271 -39.177  48.202  0.00  0.00    +0.000 C 
ATOM     20  C   UNL     1      48.778 -38.505  44.329  0.00  0.00    +0.000 C 
ATOM     21  C   UNL     1      50.117 -39.149  44.127  0.00  0.00    +0.000 C 
ATOM     22  C   UNL     1      51.005 -38.983  42.937  0.00  0.00    +0.000 C 
ENDROOT
BRANCH  13  23
ATOM     23  C   UNL     1      47.907 -42.973  50.761  0.00  0.00    +0.000 C 
ATOM     24  C   UNL     1      48.307 -42.529  52.167  0.00  0.00    +0.000 C 
ATOM     25  C   UNL     1      47.188 -44.114  50.802  0.00  0.00    +0.000 C 
ENDBRANCH  13  23
BRANCH  14  26
ATOM     26  O   UNL     1      47.621 -38.588  46.513  0.00  0.00    +0.000 OA
ATOM     27  H   UNL     1      46.797 -38.966  46.880  0.00  0.00    +0.000 HD
ENDBRANCH  14  26
BRANCH  15  28
ATOM     28  O   UNL     1      45.945 -38.869  43.998  0.00  0.00    +0.000 OA
ATOM     29  H   UNL     1      45.249 -38.394  44.500  0.00  0.00    +0.000 HD
ENDBRANCH  15  28
BRANCH  17  30
ATOM     30  C   UNL     1      50.516 -44.493  47.426  0.00  0.00    +0.000 C 
ATOM     31  C   UNL     1      51.276 -45.385  47.165  0.00  0.00    +0.000 C 
BRANCH  31  32
ATOM     32  C   UNL     1      52.246 -46.521  46.832  0.00  0.00    +0.000 C 
ATOM     33  C   UNL     1      53.006 -47.413  46.569  0.00  0.00    +0.000 C 
BRANCH  33  34
ATOM     34  C   UNL     1      53.974 -48.552  46.233  0.00  0.00    +0.000 C 
ATOM     35  C   UNL     1      54.940 -49.690  45.896  0.00  0.00    +0.000 C 
BRANCH  35  36
ATOM     36  C   UNL     1      55.907 -50.830  45.558  0.00  0.00    +0.000 C 
ATOM     37  C   UNL     1      56.874 -51.968  45.219  0.00  0.00    +0.000 C 
ATOM     38  C   UNL     1      57.841 -53.107  44.879  0.00  0.00    +0.000 C 
ENDBRANCH  35  36
ENDBRANCH  33  34
ENDBRANCH  31  32
ENDBRANCH  17  30
BRANCH  16  39
ATOM     39  O   UNL     1      48.771 -40.053  50.570  0.00  0.00    +0.000 OA
BRANCH  39  41
ATOM     40  O   UNL     1      46.503 -39.750  50.361  0.00  0.00    +0.000 OA
ATOM     41  C   UNL     1      47.610 -39.341  50.670  0.00  0.00    +0.000 C 
BRANCH  41  42
ATOM     42  C   UNL     1      47.884 -37.980  51.165  0.00  0.00    +0.000 A 
ATOM     43  C   UNL     1      46.892 -37.000  51.191  0.00  0.00    +0.000 A 
ATOM     44  C   UNL     1      49.170 -37.688  51.614  0.00  0.00    +0.000 A 
ATOM     45  C   UNL     1      47.189 -35.725  51.668  0.00  0.00    +0.000 A 
ATOM     46  C   UNL     1      49.465 -36.413  52.090  0.00  0.00    +0.000 A 
ATOM     47  C   UNL     1      48.475 -35.433  52.117  0.00  0.00    +0.000 A 
ENDBRANCH  41  42
ENDBRANCH  39  41
ENDBRANCH  16  39
BRANCH   9  48
ATOM     48  C   UNL     1      44.742 -41.401  44.433  0.00  0.00    +0.000 C 
BRANCH  48  49
ATOM     49  O   UNL     1      43.549 -41.653  43.900  0.00  0.00    +0.000 OA
ATOM     50  H   UNL     1      43.285 -40.933  43.302  0.00  0.00    +0.000 HD
ENDBRANCH  48  49
ENDBRANCH   9  48
TORSDOF 12
ENDMDL
MODEL 2
REMARK VINA RESULT:      -7.4      4.781      9.526
REMARK  Name = 5358691_Yuanhuacine.pdbqt.pdb
REMARK  12 active torsions:
REMARK  status: ('A' for Active; 'I' for Inactive)
REMARK    1  A    between atoms: C_9  and  C_48
REMARK    2  A    between atoms: C_13  and  C_23
REMARK    3  A    between atoms: C_14  and  O_26
REMARK    4  A    between atoms: C_15  and  O_28
REMARK    5  A    between atoms: C_16  and  O_39
REMARK    6  A    between atoms: C_17  and  C_30
REMARK    7  A    between atoms: C_31  and  C_32
REMARK    8  A    between atoms: C_33  and  C_34
REMARK    9  A    between atoms: C_35  and  C_36
REMARK   10  A    between atoms: O_39  and  C_41
REMARK   11  A    between atoms: C_41  and  C_42
REMARK   12  A    between atoms: C_48  and  O_49
REMARK                            x       y       z     vdW  Elec       q    Type
REMARK                         _______ _______ _______ _____ _____    ______ ____
ROOT
ATOM      1  O   UNL     1      47.303 -42.681  50.224  0.00  0.00    +0.000 OA
ATOM      2  O   UNL     1      46.747 -45.766  48.665  0.00  0.00    +0.000 OA
ATOM      3  O   UNL     1      47.103 -45.946  51.005  0.00  0.00    +0.000 OA
ATOM      4  O   UNL     1      47.651 -47.722  49.661  0.00  0.00    +0.000 OA
ATOM      5  O   UNL     1      48.762 -41.280  45.425  0.00  0.00    +0.000 OA
ATOM      6  C   UNL     1      48.548 -44.632  49.839  0.00  0.00    +0.000 C 
ATOM      7  C   UNL     1      48.011 -45.061  48.466  0.00  0.00    +0.000 C 
ATOM      8  C   UNL     1      48.513 -43.306  50.390  0.00  0.00    +0.000 C 
ATOM      9  C   UNL     1      48.476 -41.949  49.844  0.00  0.00    +0.000 C 
ATOM     10  C   UNL     1      48.457 -45.817  50.700  0.00  0.00    +0.000 C 
ATOM     11  C   UNL     1      47.725 -43.887  47.579  0.00  0.00    +0.000 C 
ATOM     12  C   UNL     1      49.031 -46.045  47.818  0.00  0.00    +0.000 C 
ATOM     13  C   UNL     1      48.924 -47.158  50.084  0.00  0.00    +0.000 C 
ATOM     14  C   UNL     1      48.752 -42.798  47.363  0.00  0.00    +0.000 C 
ATOM     15  C   UNL     1      48.793 -41.721  48.408  0.00  0.00    +0.000 C 
ATOM     16  C   UNL     1      49.660 -46.944  48.772  0.00  0.00    +0.000 C 
ATOM     17  C   UNL     1      46.725 -46.648  49.815  0.00  0.00    +0.000 C 
ATOM     18  C   UNL     1      46.777 -43.827  46.525  0.00  0.00    +0.000 C 
ATOM     19  C   UNL     1      49.227 -46.286  46.321  0.00  0.00    +0.000 C 
ATOM     20  C   UNL     1      48.223 -42.215  46.011  0.00  0.00    +0.000 C 
ATOM     21  C   UNL     1      46.987 -42.956  45.596  0.00  0.00    +0.000 C 
ATOM     22  C   UNL     1      45.927 -42.456  44.671  0.00  0.00    +0.000 C 
ENDROOT
BRANCH  13  23
ATOM     23  C   UNL     1      49.637 -48.011  51.159  0.00  0.00    +0.000 C 
ATOM     24  C   UNL     1      49.451 -49.519  51.319  0.00  0.00    +0.000 C 
ATOM     25  C   UNL     1      50.264 -47.485  52.232  0.00  0.00    +0.000 C 
ENDBRANCH  13  23
BRANCH  14  26
ATOM     26  O   UNL     1      50.051 -43.337  47.242  0.00  0.00    +0.000 OA
ATOM     27  H   UNL     1      49.983 -44.134  46.680  0.00  0.00    +0.000 HD
ENDBRANCH  14  26
BRANCH  15  28
ATOM     28  O   UNL     1      49.338 -40.493  48.025  0.00  0.00    +0.000 OA
ATOM     29  H   UNL     1      49.202 -40.255  47.083  0.00  0.00    +0.000 HD
ENDBRANCH  15  28
BRANCH  17  30
ATOM     30  C   UNL     1      45.378 -47.188  49.967  0.00  0.00    +0.000 C 
ATOM     31  C   UNL     1      44.269 -47.630  50.092  0.00  0.00    +0.000 C 
BRANCH  31  32
ATOM     32  C   UNL     1      42.854 -48.193  50.251  0.00  0.00    +0.000 C 
ATOM     33  C   UNL     1      41.745 -48.634  50.374  0.00  0.00    +0.000 C 
BRANCH  33  34
ATOM     34  C   UNL     1      40.328 -49.195  50.530  0.00  0.00    +0.000 C 
ATOM     35  C   UNL     1      38.913 -49.757  50.685  0.00  0.00    +0.000 C 
BRANCH  35  36
ATOM     36  C   UNL     1      37.496 -50.320  50.842  0.00  0.00    +0.000 C 
ATOM     37  C   UNL     1      36.081 -50.884  50.999  0.00  0.00    +0.000 C 
ATOM     38  C   UNL     1      34.665 -51.449  51.157  0.00  0.00    +0.000 C 
ENDBRANCH  35  36
ENDBRANCH  33  34
ENDBRANCH  31  32
ENDBRANCH  17  30
BRANCH  16  39
ATOM     39  O   UNL     1      50.858 -47.573  48.397  0.00  0.00    +0.000 OA
BRANCH  39  41
ATOM     40  O   UNL     1      52.330 -46.323  49.643  0.00  0.00    +0.000 OA
ATOM     41  C   UNL     1      51.976 -46.811  48.583  0.00  0.00    +0.000 C 
BRANCH  41  42
ATOM     42  C   UNL     1      52.682 -46.616  47.304  0.00  0.00    +0.000 A 
ATOM     43  C   UNL     1      52.762 -47.633  46.353  0.00  0.00    +0.000 A 
ATOM     44  C   UNL     1      53.275 -45.379  47.059  0.00  0.00    +0.000 A 
ATOM     45  C   UNL     1      53.437 -47.410  45.155  0.00  0.00    +0.000 A 
ATOM     46  C   UNL     1      53.949 -45.159  45.861  0.00  0.00    +0.000 A 
ATOM     47  C   UNL     1      54.030 -46.174  44.910  0.00  0.00    +0.000 A 
ENDBRANCH  41  42
ENDBRANCH  39  41
ENDBRANCH  16  39
BRANCH   9  48
ATOM     48  C   UNL     1      48.679 -40.837  50.763  0.00  0.00    +0.000 C 
BRANCH  48  49
ATOM     49  O   UNL     1      48.870 -39.821  51.600  0.00  0.00    +0.000 OA
ATOM     50  H   UNL     1      48.059 -39.641  52.107  0.00  0.00    +0.000 HD
ENDBRANCH  48  49
ENDBRANCH   9  48
TORSDOF 12
ENDMDL
MODEL 3
REMARK VINA RESULT:      -7.2      2.948      8.812
REMARK  Name = 5358691_Yuanhuacine.pdbqt.pdb
REMARK  12 active torsions:
REMARK  status: ('A' for Active; 'I' for Inactive)
REMARK    1  A    between atoms: C_9  and  C_48
REMARK    2  A    between atoms: C_13  and  C_23
REMARK    3  A    between atoms: C_14  and  O_26
REMARK    4  A    between atoms: C_15  and  O_28
REMARK    5  A    between atoms: C_16  and  O_39
REMARK    6  A    between atoms: C_17  and  C_30
REMARK    7  A    between atoms: C_31  and  C_32
REMARK    8  A    between atoms: C_33  and  C_34
REMARK    9  A    between atoms: C_35  and  C_36
REMARK   10  A    between atoms: O_39  and  C_41
REMARK   11  A    between atoms: C_41  and  C_42
REMARK   12  A    between atoms: C_48  and  O_49
REMARK                            x       y       z     vdW  Elec       q    Type
REMARK                         _______ _______ _______ _____ _____    ______ ____
ROOT
ATOM      1  O   UNL     1      49.911 -44.761  46.515  0.00  0.00    +0.000 OA
ATOM      2  O   UNL     1      47.094 -43.069  47.724  0.00  0.00    +0.000 OA
ATOM      3  O   UNL     1      48.184 -41.931  45.950  0.00  0.00    +0.000 OA
ATOM      4  O   UNL     1      46.996 -40.710  47.486  0.00  0.00    +0.000 OA
ATOM      5  O   UNL     1      49.819 -46.914  51.256  0.00  0.00    +0.000 OA
ATOM      6  C   UNL     1      49.499 -42.735  47.624  0.00  0.00    +0.000 C 
ATOM      7  C   UNL     1      48.316 -43.123  48.522  0.00  0.00    +0.000 C 
ATOM      8  C   UNL     1      50.468 -43.632  47.058  0.00  0.00    +0.000 C 
ATOM      9  C   UNL     1      51.012 -44.943  47.416  0.00  0.00    +0.000 C 
ATOM     10  C   UNL     1      49.092 -41.512  46.921  0.00  0.00    +0.000 C 
ATOM     11  C   UNL     1      48.439 -44.522  49.046  0.00  0.00    +0.000 C 
ATOM     12  C   UNL     1      48.202 -42.079  49.673  0.00  0.00    +0.000 C 
ATOM     13  C   UNL     1      48.394 -40.424  47.773  0.00  0.00    +0.000 C 
ATOM     14  C   UNL     1      49.711 -45.003  49.708  0.00  0.00    +0.000 C 
ATOM     15  C   UNL     1      50.788 -45.487  48.783  0.00  0.00    +0.000 C 
ATOM     16  C   UNL     1      48.508 -40.719  49.258  0.00  0.00    +0.000 C 
ATOM     17  C   UNL     1      47.029 -41.958  46.796  0.00  0.00    +0.000 C 
ATOM     18  C   UNL     1      47.379 -45.385  49.426  0.00  0.00    +0.000 C 
ATOM     19  C   UNL     1      47.597 -42.321  51.056  0.00  0.00    +0.000 C 
ATOM     20  C   UNL     1      49.131 -46.200  50.532  0.00  0.00    +0.000 C 
ATOM     21  C   UNL     1      47.659 -46.322  50.269  0.00  0.00    +0.000 C 
ATOM     22  C   UNL     1      46.829 -47.549  50.453  0.00  0.00    +0.000 C 
ENDROOT
BRANCH  13  23
ATOM     23  C   UNL     1      48.835 -39.020  47.298  0.00  0.00    +0.000 C 
ATOM     24  C   UNL     1      48.268 -38.315  46.067  0.00  0.00    +0.000 C 
ATOM     25  C   UNL     1      49.948 -38.400  47.740  0.00  0.00    +0.000 C 
ENDBRANCH  13  23
BRANCH  14  26
ATOM     26  O   UNL     1      50.265 -44.003  50.536  0.00  0.00    +0.000 OA
ATOM     27  H   UNL     1      50.533 -43.262  49.956  0.00  0.00    +0.000 HD
ENDBRANCH  14  26
BRANCH  15  28
ATOM     28  O   UNL     1      51.733 -46.365  49.320  0.00  0.00    +0.000 OA
ATOM     29  H   UNL     1      52.424 -46.666  48.691  0.00  0.00    +0.000 HD
ENDBRANCH  15  28
BRANCH  17  30
ATOM     30  C   UNL     1      45.825 -42.095  45.983  0.00  0.00    +0.000 C 
ATOM     31  C   UNL     1      44.836 -42.208  45.312  0.00  0.00    +0.000 C 
BRANCH  31  32
ATOM     32  C   UNL     1      43.575 -42.354  44.457  0.00  0.00    +0.000 C 
ATOM     33  C   UNL     1      42.586 -42.467  43.786  0.00  0.00    +0.000 C 
BRANCH  33  34
ATOM     34  C   UNL     1      41.324 -42.610  42.928  0.00  0.00    +0.000 C 
ATOM     35  C   UNL     1      40.064 -42.752  42.071  0.00  0.00    +0.000 C 
BRANCH  35  36
ATOM     36  C   UNL     1      38.803 -42.894  41.212  0.00  0.00    +0.000 C 
ATOM     37  C   UNL     1      37.543 -43.038  40.354  0.00  0.00    +0.000 C 
ATOM     38  C   UNL     1      36.281 -43.181  39.497  0.00  0.00    +0.000 C 
ENDBRANCH  35  36
ENDBRANCH  33  34
ENDBRANCH  31  32
ENDBRANCH  17  30
BRANCH  16  39
ATOM     39  O   UNL     1      48.837 -39.783  50.253  0.00  0.00    +0.000 OA
BRANCH  39  41
ATOM     40  O   UNL     1      46.604 -39.324  50.542  0.00  0.00    +0.000 OA
ATOM     41  C   UNL     1      47.780 -39.042  50.699  0.00  0.00    +0.000 C 
BRANCH  41  42
ATOM     42  C   UNL     1      48.257 -37.817  51.365  0.00  0.00    +0.000 A 
ATOM     43  C   UNL     1      49.569 -37.699  51.822  0.00  0.00    +0.000 A 
ATOM     44  C   UNL     1      47.360 -36.763  51.530  0.00  0.00    +0.000 A 
ATOM     45  C   UNL     1      49.984 -36.525  52.446  0.00  0.00    +0.000 A 
ATOM     46  C   UNL     1      47.777 -35.590  52.154  0.00  0.00    +0.000 A 
ATOM     47  C   UNL     1      49.087 -35.472  52.611  0.00  0.00    +0.000 A 
ENDBRANCH  41  42
ENDBRANCH  39  41
ENDBRANCH  16  39
BRANCH   9  48
ATOM     48  C   UNL     1      52.172 -45.425  46.680  0.00  0.00    +0.000 C 
BRANCH  48  49
ATOM     49  O   UNL     1      53.229 -45.870  46.005  0.00  0.00    +0.000 OA
ATOM     50  H   UNL     1      53.044 -46.747  45.624  0.00  0.00    +0.000 HD
ENDBRANCH  48  49
ENDBRANCH   9  48
TORSDOF 12
ENDMDL
MODEL 4
REMARK VINA RESULT:      -7.2      3.745      8.835
REMARK  Name = 5358691_Yuanhuacine.pdbqt.pdb
REMARK  12 active torsions:
REMARK  status: ('A' for Active; 'I' for Inactive)
REMARK    1  A    between atoms: C_9  and  C_48
REMARK    2  A    between atoms: C_13  and  C_23
REMARK    3  A    between atoms: C_14  and  O_26
REMARK    4  A    between atoms: C_15  and  O_28
REMARK    5  A    between atoms: C_16  and  O_39
REMARK    6  A    between atoms: C_17  and  C_30
REMARK    7  A    between atoms: C_31  and  C_32
REMARK    8  A    between atoms: C_33  and  C_34
REMARK    9  A    between atoms: C_35  and  C_36
REMARK   10  A    between atoms: O_39  and  C_41
REMARK   11  A    between atoms: C_41  and  C_42
REMARK   12  A    between atoms: C_48  and  O_49
REMARK                            x       y       z     vdW  Elec       q    Type
REMARK                         _______ _______ _______ _____ _____    ______ ____
ROOT
ATOM      1  O   UNL     1      48.157 -40.754  49.717  0.00  0.00    +0.000 OA
ATOM      2  O   UNL     1      47.446 -43.404  47.542  0.00  0.00    +0.000 OA
ATOM      3  O   UNL     1      48.348 -44.111  49.620  0.00  0.00    +0.000 OA
ATOM      4  O   UNL     1      48.678 -45.420  47.767  0.00  0.00    +0.000 OA
ATOM      5  O   UNL     1      48.365 -38.048  45.273  0.00  0.00    +0.000 OA
ATOM      6  C   UNL     1      49.397 -42.384  48.573  0.00  0.00    +0.000 C 
ATOM      7  C   UNL     1      48.582 -42.523  47.279  0.00  0.00    +0.000 C 
ATOM      8  C   UNL     1      49.409 -41.250  49.453  0.00  0.00    +0.000 C 
ATOM      9  C   UNL     1      49.161 -39.814  49.310  0.00  0.00    +0.000 C 
ATOM     10  C   UNL     1      49.583 -43.747  49.085  0.00  0.00    +0.000 C 
ATOM     11  C   UNL     1      48.024 -41.211  46.818  0.00  0.00    +0.000 C 
ATOM     12  C   UNL     1      49.482 -43.187  46.193  0.00  0.00    +0.000 C 
ATOM     13  C   UNL     1      49.977 -44.828  48.049  0.00  0.00    +0.000 C 
ATOM     14  C   UNL     1      48.902 -39.986  46.692  0.00  0.00    +0.000 C 
ATOM     15  C   UNL     1      49.119 -39.203  47.954  0.00  0.00    +0.000 C 
ATOM     16  C   UNL     1      50.371 -44.210  46.719  0.00  0.00    +0.000 C 
ATOM     17  C   UNL     1      47.748 -44.538  48.392  0.00  0.00    +0.000 C 
ATOM     18  C   UNL     1      46.855 -41.009  46.041  0.00  0.00    +0.000 C 
ATOM     19  C   UNL     1      49.338 -43.025  44.680  0.00  0.00    +0.000 C 
ATOM     20  C   UNL     1      48.037 -39.156  45.687  0.00  0.00    +0.000 C 
ATOM     21  C   UNL     1      46.787 -39.917  45.356  0.00  0.00    +0.000 C 
ATOM     22  C   UNL     1      45.511 -39.336  44.842  0.00  0.00    +0.000 C 
ENDROOT
BRANCH  13  23
ATOM     23  C   UNL     1      50.973 -45.827  48.683  0.00  0.00    +0.000 C 
ATOM     24  C   UNL     1      50.573 -47.181  49.269  0.00  0.00    +0.000 C 
ATOM     25  C   UNL     1      52.231 -45.498  49.042  0.00  0.00    +0.000 C 
ENDBRANCH  13  23
BRANCH  14  26
ATOM     26  O   UNL     1      50.168 -40.318  46.163  0.00  0.00    +0.000 OA
ATOM     27  H   UNL     1      50.150 -40.099  45.210  0.00  0.00    +0.000 HD
ENDBRANCH  14  26
BRANCH  15  28
ATOM     28  O   UNL     1      49.481 -37.862  47.809  0.00  0.00    +0.000 OA
ATOM     29  H   UNL     1      50.316 -37.607  48.257  0.00  0.00    +0.000 HD
ENDBRANCH  15  28
BRANCH  17  30
ATOM     30  C   UNL     1      46.510 -45.258  48.672  0.00  0.00    +0.000 C 
ATOM     31  C   UNL     1      45.492 -45.851  48.902  0.00  0.00    +0.000 C 
BRANCH  31  32
ATOM     32  C   UNL     1      44.195 -46.609  49.194  0.00  0.00    +0.000 C 
ATOM     33  C   UNL     1      43.177 -47.203  49.423  0.00  0.00    +0.000 C 
BRANCH  33  34
ATOM     34  C   UNL     1      41.877 -47.959  49.715  0.00  0.00    +0.000 C 
ATOM     35  C   UNL     1      40.578 -48.714  50.008  0.00  0.00    +0.000 C 
BRANCH  35  36
ATOM     36  C   UNL     1      39.276 -49.468  50.302  0.00  0.00    +0.000 C 
ATOM     37  C   UNL     1      37.976 -50.223  50.594  0.00  0.00    +0.000 C 
ATOM     38  C   UNL     1      36.676 -50.978  50.888  0.00  0.00    +0.000 C 
ENDBRANCH  35  36
ENDBRANCH  33  34
ENDBRANCH  31  32
ENDBRANCH  17  30
BRANCH  16  39
ATOM     39  O   UNL     1      51.486 -44.578  45.947  0.00  0.00    +0.000 OA
BRANCH  39  41
ATOM     40  O   UNL     1      50.431 -46.291  44.837  0.00  0.00    +0.000 OA
ATOM     41  C   UNL     1      51.406 -45.829  45.405  0.00  0.00    +0.000 C 
BRANCH  41  42
ATOM     42  C   UNL     1      52.658 -46.570  45.641  0.00  0.00    +0.000 A 
ATOM     43  C   UNL     1      52.651 -47.898  46.066  0.00  0.00    +0.000 A 
ATOM     44  C   UNL     1      53.867 -45.909  45.428  0.00  0.00    +0.000 A 
ATOM     45  C   UNL     1      53.855 -48.565  46.276  0.00  0.00    +0.000 A 
ATOM     46  C   UNL     1      55.069 -46.578  45.639  0.00  0.00    +0.000 A 
ATOM     47  C   UNL     1      55.063 -47.905  46.063  0.00  0.00    +0.000 A 
ENDBRANCH  41  42
ENDBRANCH  39  41
ENDBRANCH  16  39
BRANCH   9  48
ATOM     48  C   UNL     1      49.502 -38.947  50.430  0.00  0.00    +0.000 C 
BRANCH  48  49
ATOM     49  O   UNL     1      49.814 -38.161  51.456  0.00  0.00    +0.000 OA
ATOM     50  H   UNL     1      49.247 -38.360  52.222  0.00  0.00    +0.000 HD
ENDBRANCH  48  49
ENDBRANCH   9  48
TORSDOF 12
ENDMDL
MODEL 5
REMARK VINA RESULT:      -7.0     11.485     16.749
REMARK  Name = 5358691_Yuanhuacine.pdbqt.pdb
REMARK  12 active torsions:
REMARK  status: ('A' for Active; 'I' for Inactive)
REMARK    1  A    between atoms: C_9  and  C_48
REMARK    2  A    between atoms: C_13  and  C_23
REMARK    3  A    between atoms: C_14  and  O_26
REMARK    4  A    between atoms: C_15  and  O_28
REMARK    5  A    between atoms: C_16  and  O_39
REMARK    6  A    between atoms: C_17  and  C_30
REMARK    7  A    between atoms: C_31  and  C_32
REMARK    8  A    between atoms: C_33  and  C_34
REMARK    9  A    between atoms: C_35  and  C_36
REMARK   10  A    between atoms: O_39  and  C_41
REMARK   11  A    between atoms: C_41  and  C_42
REMARK   12  A    between atoms: C_48  and  O_49
REMARK                            x       y       z     vdW  Elec       q    Type
REMARK                         _______ _______ _______ _____ _____    ______ ____
ROOT
ATOM      1  O   UNL     1      48.441 -53.606  57.155  0.00  0.00    +0.000 OA
ATOM      2  O   UNL     1      47.716 -52.792  53.828  0.00  0.00    +0.000 OA
ATOM      3  O   UNL     1      46.001 -52.164  55.344  0.00  0.00    +0.000 OA
ATOM      4  O   UNL     1      45.442 -52.626  53.168  0.00  0.00    +0.000 OA
ATOM      5  O   UNL     1      51.563 -57.118  54.911  0.00  0.00    +0.000 OA
ATOM      6  C   UNL     1      46.852 -54.263  55.560  0.00  0.00    +0.000 C 
ATOM      7  C   UNL     1      47.679 -54.185  54.268  0.00  0.00    +0.000 C 
ATOM      8  C   UNL     1      47.367 -54.417  56.891  0.00  0.00    +0.000 C 
ATOM      9  C   UNL     1      48.574 -54.995  57.484  0.00  0.00    +0.000 C 
ATOM     10  C   UNL     1      45.622 -53.505  55.302  0.00  0.00    +0.000 C 
ATOM     11  C   UNL     1      49.097 -54.619  54.477  0.00  0.00    +0.000 C 
ATOM     12  C   UNL     1      46.967 -55.032  53.170  0.00  0.00    +0.000 C 
ATOM     13  C   UNL     1      44.930 -53.750  53.939  0.00  0.00    +0.000 C 
ATOM     14  C   UNL     1      49.425 -55.923  55.168  0.00  0.00    +0.000 C 
ATOM     15  C   UNL     1      49.444 -55.884  56.668  0.00  0.00    +0.000 C 
ATOM     16  C   UNL     1      45.516 -54.955  53.224  0.00  0.00    +0.000 C 
ATOM     17  C   UNL     1      46.467 -52.076  53.993  0.00  0.00    +0.000 C 
ATOM     18  C   UNL     1      50.233 -54.204  53.735  0.00  0.00    +0.000 C 
ATOM     19  C   UNL     1      47.638 -55.699  51.969  0.00  0.00    +0.000 C 
ATOM     20  C   UNL     1      50.873 -56.145  54.617  0.00  0.00    +0.000 C 
ATOM     21  C   UNL     1      51.250 -54.999  53.727  0.00  0.00    +0.000 C 
ATOM     22  C   UNL     1      52.638 -54.569  53.383  0.00  0.00    +0.000 C 
ENDROOT
BRANCH  13  23
ATOM     23  C   UNL     1      43.394 -53.714  54.114  0.00  0.00    +0.000 C 
ATOM     24  C   UNL     1      42.408 -53.442  52.979  0.00  0.00    +0.000 C 
ATOM     25  C   UNL     1      42.783 -53.634  55.314  0.00  0.00    +0.000 C 
ENDBRANCH  13  23
BRANCH  14  26
ATOM     26  O   UNL     1      48.538 -56.948  54.771  0.00  0.00    +0.000 OA
ATOM     27  H   UNL     1      49.047 -57.575  54.220  0.00  0.00    +0.000 HD
ENDBRANCH  14  26
BRANCH  15  28
ATOM     28  O   UNL     1      50.193 -56.871  57.315  0.00  0.00    +0.000 OA
ATOM     29  H   UNL     1      49.673 -57.480  57.883  0.00  0.00    +0.000 HD
ENDBRANCH  15  28
BRANCH  17  30
ATOM     30  C   UNL     1      46.678 -50.677  53.634  0.00  0.00    +0.000 C 
ATOM     31  C   UNL     1      46.850 -49.526  53.338  0.00  0.00    +0.000 C 
BRANCH  31  32
ATOM     32  C   UNL     1      47.069 -48.059  52.959  0.00  0.00    +0.000 C 
ATOM     33  C   UNL     1      47.241 -46.909  52.663  0.00  0.00    +0.000 C 
BRANCH  33  34
ATOM     34  C   UNL     1      47.460 -45.440  52.287  0.00  0.00    +0.000 C 
ATOM     35  C   UNL     1      47.680 -43.972  51.912  0.00  0.00    +0.000 C 
BRANCH  35  36
ATOM     36  C   UNL     1      47.902 -42.503  51.537  0.00  0.00    +0.000 C 
ATOM     37  C   UNL     1      48.124 -41.035  51.161  0.00  0.00    +0.000 C 
ATOM     38  C   UNL     1      48.347 -39.567  50.783  0.00  0.00    +0.000 C 
ENDBRANCH  35  36
ENDBRANCH  33  34
ENDBRANCH  31  32
ENDBRANCH  17  30
BRANCH  16  39
ATOM     39  O   UNL     1      44.776 -55.961  52.580  0.00  0.00    +0.000 OA
BRANCH  39  41
ATOM     40  O   UNL     1      45.479 -58.060  53.195  0.00  0.00    +0.000 OA
ATOM     41  C   UNL     1      44.693 -57.131  53.278  0.00  0.00    +0.000 C 
BRANCH  41  42
ATOM     42  C   UNL     1      43.486 -57.138  54.124  0.00  0.00    +0.000 A 
ATOM     43  C   UNL     1      42.207 -57.081  53.570  0.00  0.00    +0.000 A 
ATOM     44  C   UNL     1      43.649 -57.206  55.506  0.00  0.00    +0.000 A 
ATOM     45  C   UNL     1      41.090 -57.092  54.403  0.00  0.00    +0.000 A 
ATOM     46  C   UNL     1      42.531 -57.217  56.336  0.00  0.00    +0.000 A 
ATOM     47  C   UNL     1      41.253 -57.160  55.784  0.00  0.00    +0.000 A 
ENDBRANCH  41  42
ENDBRANCH  39  41
ENDBRANCH  16  39
BRANCH   9  48
ATOM     48  C   UNL     1      48.615 -55.155  58.931  0.00  0.00    +0.000 C 
BRANCH  48  49
ATOM     49  O   UNL     1      48.649 -55.295  60.253  0.00  0.00    +0.000 OA
ATOM     50  H   UNL     1      48.245 -56.140  60.516  0.00  0.00    +0.000 HD
ENDBRANCH  48  49
ENDBRANCH   9  48
TORSDOF 12
ENDMDL
MODEL 6
REMARK VINA RESULT:      -7.0      4.303      8.540
REMARK  Name = 5358691_Yuanhuacine.pdbqt.pdb
REMARK  12 active torsions:
REMARK  status: ('A' for Active; 'I' for Inactive)
REMARK    1  A    between atoms: C_9  and  C_48
REMARK    2  A    between atoms: C_13  and  C_23
REMARK    3  A    between atoms: C_14  and  O_26
REMARK    4  A    between atoms: C_15  and  O_28
REMARK    5  A    between atoms: C_16  and  O_39
REMARK    6  A    between atoms: C_17  and  C_30
REMARK    7  A    between atoms: C_31  and  C_32
REMARK    8  A    between atoms: C_33  and  C_34
REMARK    9  A    between atoms: C_35  and  C_36
REMARK   10  A    between atoms: O_39  and  C_41
REMARK   11  A    between atoms: C_41  and  C_42
REMARK   12  A    between atoms: C_48  and  O_49
REMARK                            x       y       z     vdW  Elec       q    Type
REMARK                         _______ _______ _______ _____ _____    ______ ____
ROOT
ATOM      1  O   UNL     1      48.617 -42.455  49.381  0.00  0.00    +0.000 OA
ATOM      2  O   UNL     1      48.572 -45.801  48.350  0.00  0.00    +0.000 OA
ATOM      3  O   UNL     1      50.436 -45.264  49.718  0.00  0.00    +0.000 OA
ATOM      4  O   UNL     1      50.631 -46.971  48.199  0.00  0.00    +0.000 OA
ATOM      5  O   UNL     1      45.661 -41.810  45.143  0.00  0.00    +0.000 OA
ATOM      6  C   UNL     1      49.951 -43.826  48.023  0.00  0.00    +0.000 C 
ATOM      7  C   UNL     1      48.891 -44.742  47.395  0.00  0.00    +0.000 C 
ATOM      8  C   UNL     1      49.726 -42.520  48.576  0.00  0.00    +0.000 C 
ATOM      9  C   UNL     1      48.749 -41.451  48.367  0.00  0.00    +0.000 C 
ATOM     10  C   UNL     1      50.988 -44.713  48.563  0.00  0.00    +0.000 C 
ATOM     11  C   UNL     1      47.615 -44.014  47.102  0.00  0.00    +0.000 C 
ATOM     12  C   UNL     1      49.495 -45.396  46.115  0.00  0.00    +0.000 C 
ATOM     13  C   UNL     1      51.436 -45.886  47.657  0.00  0.00    +0.000 C 
ATOM     14  C   UNL     1      47.615 -42.705  46.344  0.00  0.00    +0.000 C 
ATOM     15  C   UNL     1      47.876 -41.474  47.162  0.00  0.00    +0.000 C 
ATOM     16  C   UNL     1      50.903 -45.734  46.243  0.00  0.00    +0.000 C 
ATOM     17  C   UNL     1      49.713 -46.321  49.075  0.00  0.00    +0.000 C 
ATOM     18  C   UNL     1      46.312 -44.570  47.040  0.00  0.00    +0.000 C 
ATOM     19  C   UNL     1      48.711 -45.898  44.902  0.00  0.00    +0.000 C 
ATOM     20  C   UNL     1      46.136 -42.708  45.833  0.00  0.00    +0.000 C 
ATOM     21  C   UNL     1      45.436 -43.936  46.335  0.00  0.00    +0.000 C 
ATOM     22  C   UNL     1      43.961 -44.109  46.490  0.00  0.00    +0.000 C 
ENDROOT
BRANCH  13  23
ATOM     23  C   UNL     1      52.956 -46.122  47.815  0.00  0.00    +0.000 C 
ATOM     24  C   UNL     1      53.970 -45.017  48.108  0.00  0.00    +0.000 C 
ATOM     25  C   UNL     1      53.577 -47.258  47.434  0.00  0.00    +0.000 C 
ENDBRANCH  13  23
BRANCH  14  26
ATOM     26  O   UNL     1      48.548 -42.729  45.284  0.00  0.00    +0.000 OA
ATOM     27  H   UNL     1      48.128 -43.202  44.539  0.00  0.00    +0.000 HD
ENDBRANCH  14  26
BRANCH  15  28
ATOM     28  O   UNL     1      47.413 -40.262  46.642  0.00  0.00    +0.000 OA
ATOM     29  H   UNL     1      47.429 -39.509  47.271  0.00  0.00    +0.000 HD
ENDBRANCH  15  28
BRANCH  17  30
ATOM     30  C   UNL     1      49.240 -47.273  50.075  0.00  0.00    +0.000 C 
ATOM     31  C   UNL     1      48.852 -48.058  50.896  0.00  0.00    +0.000 C 
BRANCH  31  32
ATOM     32  C   UNL     1      48.358 -49.060  51.942  0.00  0.00    +0.000 C 
ATOM     33  C   UNL     1      47.971 -49.847  52.762  0.00  0.00    +0.000 C 
BRANCH  33  34
ATOM     34  C   UNL     1      47.478 -50.852  53.808  0.00  0.00    +0.000 C 
ATOM     35  C   UNL     1      46.986 -51.858  54.852  0.00  0.00    +0.000 C 
BRANCH  35  36
ATOM     36  C   UNL     1      46.494 -52.865  55.897  0.00  0.00    +0.000 C 
ATOM     37  C   UNL     1      46.003 -53.873  56.940  0.00  0.00    +0.000 C 
ATOM     38  C   UNL     1      45.513 -54.881  57.984  0.00  0.00    +0.000 C 
ENDBRANCH  35  36
ENDBRANCH  33  34
ENDBRANCH  31  32
ENDBRANCH  17  30
BRANCH  16  39
ATOM     39  O   UNL     1      51.643 -45.938  45.066  0.00  0.00    +0.000 OA
BRANCH  39  41
ATOM     40  O   UNL     1      51.826 -43.737  44.430  0.00  0.00    +0.000 OA
ATOM     41  C   UNL     1      52.319 -44.834  44.629  0.00  0.00    +0.000 C 
BRANCH  41  42
ATOM     42  C   UNL     1      53.735 -45.164  44.387  0.00  0.00    +0.000 A 
ATOM     43  C   UNL     1      54.752 -44.240  44.630  0.00  0.00    +0.000 A 
ATOM     44  C   UNL     1      54.044 -46.435  43.905  0.00  0.00    +0.000 A 
ATOM     45  C   UNL     1      56.079 -44.590  44.389  0.00  0.00    +0.000 A 
ATOM     46  C   UNL     1      55.371 -46.782  43.666  0.00  0.00    +0.000 A 
ATOM     47  C   UNL     1      56.387 -45.860  43.908  0.00  0.00    +0.000 A 
ENDBRANCH  41  42
ENDBRANCH  39  41
ENDBRANCH  16  39
BRANCH   9  48
ATOM     48  C   UNL     1      49.007 -40.158  48.987  0.00  0.00    +0.000 C 
BRANCH  48  49
ATOM     49  O   UNL     1      49.245 -38.981  49.558  0.00  0.00    +0.000 OA
ATOM     50  H   UNL     1      50.109 -38.634  49.275  0.00  0.00    +0.000 HD
ENDBRANCH  48  49
ENDBRANCH   9  48
TORSDOF 12
ENDMDL
MODEL 7
REMARK VINA RESULT:      -6.9      3.066      5.050
REMARK  Name = 5358691_Yuanhuacine.pdbqt.pdb
REMARK  12 active torsions:
REMARK  status: ('A' for Active; 'I' for Inactive)
REMARK    1  A    between atoms: C_9  and  C_48
REMARK    2  A    between atoms: C_13  and  C_23
REMARK    3  A    between atoms: C_14  and  O_26
REMARK    4  A    between atoms: C_15  and  O_28
REMARK    5  A    between atoms: C_16  and  O_39
REMARK    6  A    between atoms: C_17  and  C_30
REMARK    7  A    between atoms: C_31  and  C_32
REMARK    8  A    between atoms: C_33  and  C_34
REMARK    9  A    between atoms: C_35  and  C_36
REMARK   10  A    between atoms: O_39  and  C_41
REMARK   11  A    between atoms: C_41  and  C_42
REMARK   12  A    between atoms: C_48  and  O_49
REMARK                            x       y       z     vdW  Elec       q    Type
REMARK                         _______ _______ _______ _____ _____    ______ ____
ROOT
ATOM      1  O   UNL     1      47.555 -45.189  45.169  0.00  0.00    +0.000 OA
ATOM      2  O   UNL     1      50.345 -44.492  47.167  0.00  0.00    +0.000 OA
ATOM      3  O   UNL     1      49.691 -46.773  47.230  0.00  0.00    +0.000 OA
ATOM      4  O   UNL     1      50.774 -45.880  49.043  0.00  0.00    +0.000 OA
ATOM      5  O   UNL     1      46.649 -40.105  45.834  0.00  0.00    +0.000 OA
ATOM      6  C   UNL     1      48.044 -45.219  47.463  0.00  0.00    +0.000 C 
ATOM      7  C   UNL     1      49.018 -44.037  47.575  0.00  0.00    +0.000 C 
ATOM      8  C   UNL     1      47.068 -45.423  46.430  0.00  0.00    +0.000 C 
ATOM      9  C   UNL     1      46.315 -44.560  45.519  0.00  0.00    +0.000 C 
ATOM     10  C   UNL     1      48.704 -46.353  48.122  0.00  0.00    +0.000 C 
ATOM     11  C   UNL     1      48.641 -42.907  46.666  0.00  0.00    +0.000 C 
ATOM     12  C   UNL     1      49.085 -43.587  49.065  0.00  0.00    +0.000 C 
ATOM     13  C   UNL     1      49.396 -46.061  49.475  0.00  0.00    +0.000 C 
ATOM     14  C   UNL     1      47.232 -42.357  46.640  0.00  0.00    +0.000 C 
ATOM     15  C   UNL     1      46.257 -43.094  45.770  0.00  0.00    +0.000 C 
ATOM     16  C   UNL     1      49.019 -44.690  50.010  0.00  0.00    +0.000 C 
ATOM     17  C   UNL     1      50.690 -45.824  47.621  0.00  0.00    +0.000 C 
ATOM     18  C   UNL     1      49.512 -41.939  46.104  0.00  0.00    +0.000 C 
ATOM     19  C   UNL     1      49.436 -42.188  49.571  0.00  0.00    +0.000 C 
ATOM     20  C   UNL     1      47.524 -40.941  46.041  0.00  0.00    +0.000 C 
ATOM     21  C   UNL     1      48.991 -40.810  45.759  0.00  0.00    +0.000 C 
ATOM     22  C   UNL     1      49.622 -39.864  44.791  0.00  0.00    +0.000 C 
ENDROOT
BRANCH  13  23
ATOM     23  C   UNL     1      49.213 -47.264  50.430  0.00  0.00    +0.000 C 
ATOM     24  C   UNL     1      50.169 -47.604  51.572  0.00  0.00    +0.000 C 
ATOM     25  C   UNL     1      48.369 -48.287  50.186  0.00  0.00    +0.000 C 
ENDBRANCH  13  23
BRANCH  14  26
ATOM     26  O   UNL     1      46.688 -42.286  47.941  0.00  0.00    +0.000 OA
ATOM     27  H   UNL     1      46.409 -41.360  48.088  0.00  0.00    +0.000 HD
ENDBRANCH  14  26
BRANCH  15  28
ATOM     28  O   UNL     1      45.138 -42.381  45.333  0.00  0.00    +0.000 OA
ATOM     29  H   UNL     1      45.096 -41.448  45.636  0.00  0.00    +0.000 HD
ENDBRANCH  15  28
BRANCH  17  30
ATOM     30  C   UNL     1      51.977 -46.198  47.044  0.00  0.00    +0.000 C 
ATOM     31  C   UNL     1      53.035 -46.506  46.568  0.00  0.00    +0.000 C 
BRANCH  31  32
ATOM     32  C   UNL     1      54.384 -46.898  45.959  0.00  0.00    +0.000 C 
ATOM     33  C   UNL     1      55.442 -47.204  45.482  0.00  0.00    +0.000 C 
BRANCH  33  34
ATOM     34  C   UNL     1      56.792 -47.594  44.871  0.00  0.00    +0.000 C 
ATOM     35  C   UNL     1      58.141 -47.982  44.261  0.00  0.00    +0.000 C 
BRANCH  35  36
ATOM     36  C   UNL     1      59.492 -48.371  43.652  0.00  0.00    +0.000 C 
ATOM     37  C   UNL     1      60.842 -48.759  43.043  0.00  0.00    +0.000 C 
ATOM     38  C   UNL     1      62.193 -49.147  42.432  0.00  0.00    +0.000 C 
ENDBRANCH  35  36
ENDBRANCH  33  34
ENDBRANCH  31  32
ENDBRANCH  17  30
BRANCH  16  39
ATOM     39  O   UNL     1      48.663 -44.403  51.339  0.00  0.00    +0.000 OA
BRANCH  39  41
ATOM     40  O   UNL     1      46.907 -42.948  51.628  0.00  0.00    +0.000 OA
ATOM     41  C   UNL     1      47.347 -44.079  51.510  0.00  0.00    +0.000 C 
BRANCH  41  42
ATOM     42  C   UNL     1      46.525 -45.301  51.579  0.00  0.00    +0.000 A 
ATOM     43  C   UNL     1      46.506 -46.104  52.719  0.00  0.00    +0.000 A 
ATOM     44  C   UNL     1      45.753 -45.640  50.469  0.00  0.00    +0.000 A 
ATOM     45  C   UNL     1      45.714 -47.250  52.746  0.00  0.00    +0.000 A 
ATOM     46  C   UNL     1      44.963 -46.786  50.499  0.00  0.00    +0.000 A 
ATOM     47  C   UNL     1      44.944 -47.590  51.637  0.00  0.00    +0.000 A 
ENDBRANCH  41  42
ENDBRANCH  39  41
ENDBRANCH  16  39
BRANCH   9  48
ATOM     48  C   UNL     1      45.230 -45.156  44.753  0.00  0.00    +0.000 C 
BRANCH  48  49
ATOM     49  O   UNL     1      44.239 -45.697  44.049  0.00  0.00    +0.000 OA
ATOM     50  H   UNL     1      44.201 -46.658  44.197  0.00  0.00    +0.000 HD
ENDBRANCH  48  49
ENDBRANCH   9  48
TORSDOF 12
ENDMDL
MODEL 8
REMARK VINA RESULT:      -6.8     10.616     15.428
REMARK  Name = 5358691_Yuanhuacine.pdbqt.pdb
REMARK  12 active torsions:
REMARK  status: ('A' for Active; 'I' for Inactive)
REMARK    1  A    between atoms: C_9  and  C_48
REMARK    2  A    between atoms: C_13  and  C_23
REMARK    3  A    between atoms: C_14  and  O_26
REMARK    4  A    between atoms: C_15  and  O_28
REMARK    5  A    between atoms: C_16  and  O_39
REMARK    6  A    between atoms: C_17  and  C_30
REMARK    7  A    between atoms: C_31  and  C_32
REMARK    8  A    between atoms: C_33  and  C_34
REMARK    9  A    between atoms: C_35  and  C_36
REMARK   10  A    between atoms: O_39  and  C_41
REMARK   11  A    between atoms: C_41  and  C_42
REMARK   12  A    between atoms: C_48  and  O_49
REMARK                            x       y       z     vdW  Elec       q    Type
REMARK                         _______ _______ _______ _____ _____    ______ ____
ROOT
ATOM      1  O   UNL     1      46.550 -53.798  50.203  0.00  0.00    +0.000 OA
ATOM      2  O   UNL     1      45.195 -51.573  52.542  0.00  0.00    +0.000 OA
ATOM      3  O   UNL     1      47.525 -51.924  52.821  0.00  0.00    +0.000 OA
ATOM      4  O   UNL     1      46.266 -51.346  54.648  0.00  0.00    +0.000 OA
ATOM      5  O   UNL     1      41.625 -55.471  49.944  0.00  0.00    +0.000 OA
ATOM      6  C   UNL     1      46.230 -53.772  52.527  0.00  0.00    +0.000 C 
ATOM      7  C   UNL     1      44.906 -53.002  52.636  0.00  0.00    +0.000 C 
ATOM      8  C   UNL     1      46.705 -54.490  51.378  0.00  0.00    +0.000 C 
ATOM      9  C   UNL     1      46.083 -55.153  50.231  0.00  0.00    +0.000 C 
ATOM     10  C   UNL     1      47.161 -53.113  53.451  0.00  0.00    +0.000 C 
ATOM     11  C   UNL     1      43.965 -53.335  51.519  0.00  0.00    +0.000 C 
ATOM     12  C   UNL     1      44.277 -53.289  54.032  0.00  0.00    +0.000 C 
ATOM     13  C   UNL     1      46.605 -52.746  54.849  0.00  0.00    +0.000 C 
ATOM     14  C   UNL     1      43.647 -54.770  51.162  0.00  0.00    +0.000 C 
ATOM     15  C   UNL     1      44.625 -55.450  50.250  0.00  0.00    +0.000 C 
ATOM     16  C   UNL     1      45.256 -53.396  55.102  0.00  0.00    +0.000 C 
ATOM     17  C   UNL     1      46.393 -51.154  53.240  0.00  0.00    +0.000 C 
ATOM     18  C   UNL     1      42.947 -52.503  50.986  0.00  0.00    +0.000 C 
ATOM     19  C   UNL     1      42.790 -53.230  54.382  0.00  0.00    +0.000 C 
ATOM     20  C   UNL     1      42.285 -54.552  50.424  0.00  0.00    +0.000 C 
ATOM     21  C   UNL     1      41.962 -53.088  50.392  0.00  0.00    +0.000 C 
ATOM     22  C   UNL     1      41.051 -52.407  49.424  0.00  0.00    +0.000 C 
ENDROOT
BRANCH  13  23
ATOM     23  C   UNL     1      47.700 -52.956  55.922  0.00  0.00    +0.000 C 
ATOM     24  C   UNL     1      49.056 -53.604  55.648  0.00  0.00    +0.000 C 
ATOM     25  C   UNL     1      47.472 -52.855  57.247  0.00  0.00    +0.000 C 
ENDBRANCH  13  23
BRANCH  14  26
ATOM     26  O   UNL     1      43.507 -55.565  52.321  0.00  0.00    +0.000 OA
ATOM     27  H   UNL     1      43.235 -56.458  52.029  0.00  0.00    +0.000 HD
ENDBRANCH  14  26
BRANCH  15  28
ATOM     28  O   UNL     1      44.152 -56.544  49.521  0.00  0.00    +0.000 OA
ATOM     29  H   UNL     1      44.089 -57.383  50.025  0.00  0.00    +0.000 HD
ENDBRANCH  15  28
BRANCH  17  30
ATOM     30  C   UNL     1      46.629 -49.741  52.963  0.00  0.00    +0.000 C 
ATOM     31  C   UNL     1      46.821 -48.578  52.734  0.00  0.00    +0.000 C 
BRANCH  31  32
ATOM     32  C   UNL     1      47.065 -47.095  52.442  0.00  0.00    +0.000 C 
ATOM     33  C   UNL     1      47.255 -45.932  52.212  0.00  0.00    +0.000 C 
BRANCH  33  34
ATOM     34  C   UNL     1      47.498 -44.449  51.916  0.00  0.00    +0.000 C 
ATOM     35  C   UNL     1      47.740 -42.967  51.620  0.00  0.00    +0.000 C 
BRANCH  35  36
ATOM     36  C   UNL     1      47.981 -41.482  51.325  0.00  0.00    +0.000 C 
ATOM     37  C   UNL     1      48.221 -39.999  51.030  0.00  0.00    +0.000 C 
ATOM     38  C   UNL     1      48.460 -38.514  50.736  0.00  0.00    +0.000 C 
ENDBRANCH  35  36
ENDBRANCH  33  34
ENDBRANCH  31  32
ENDBRANCH  17  30
BRANCH  16  39
ATOM     39  O   UNL     1      44.871 -54.042  56.289  0.00  0.00    +0.000 OA
BRANCH  39  41
ATOM     40  O   UNL     1      45.946 -56.042  55.936  0.00  0.00    +0.000 OA
ATOM     41  C   UNL     1      44.952 -55.404  56.239  0.00  0.00    +0.000 C 
BRANCH  41  42
ATOM     42  C   UNL     1      43.646 -56.007  56.562  0.00  0.00    +0.000 A 
ATOM     43  C   UNL     1      42.967 -56.810  55.646  0.00  0.00    +0.000 A 
ATOM     44  C   UNL     1      43.096 -55.757  57.818  0.00  0.00    +0.000 A 
ATOM     45  C   UNL     1      41.735 -57.363  55.989  0.00  0.00    +0.000 A 
ATOM     46  C   UNL     1      41.865 -56.311  58.158  0.00  0.00    +0.000 A 
ATOM     47  C   UNL     1      41.186 -57.113  57.244  0.00  0.00    +0.000 A 
ENDBRANCH  41  42
ENDBRANCH  39  41
ENDBRANCH  16  39
BRANCH   9  48
ATOM     48  C   UNL     1      46.928 -55.980  49.379  0.00  0.00    +0.000 C 
BRANCH  48  49
ATOM     49  O   UNL     1      47.698 -56.730  48.597  0.00  0.00    +0.000 OA
ATOM     50  H   UNL     1      48.236 -57.340  49.132  0.00  0.00    +0.000 HD
ENDBRANCH  48  49
ENDBRANCH   9  48
TORSDOF 12
ENDMDL
MODEL 9
REMARK VINA RESULT:      -6.7      9.840     13.331
REMARK  Name = 5358691_Yuanhuacine.pdbqt.pdb
REMARK  12 active torsions:
REMARK  status: ('A' for Active; 'I' for Inactive)
REMARK    1  A    between atoms: C_9  and  C_48
REMARK    2  A    between atoms: C_13  and  C_23
REMARK    3  A    between atoms: C_14  and  O_26
REMARK    4  A    between atoms: C_15  and  O_28
REMARK    5  A    between atoms: C_16  and  O_39
REMARK    6  A    between atoms: C_17  and  C_30
REMARK    7  A    between atoms: C_31  and  C_32
REMARK    8  A    between atoms: C_33  and  C_34
REMARK    9  A    between atoms: C_35  and  C_36
REMARK   10  A    between atoms: O_39  and  C_41
REMARK   11  A    between atoms: C_41  and  C_42
REMARK   12  A    between atoms: C_48  and  O_49
REMARK                            x       y       z     vdW  Elec       q    Type
REMARK                         _______ _______ _______ _____ _____    ______ ____
ROOT
ATOM      1  O   UNL     1      48.305 -52.735  49.262  0.00  0.00    +0.000 OA
ATOM      2  O   UNL     1      49.240 -52.512  52.629  0.00  0.00    +0.000 OA
ATOM      3  O   UNL     1      48.691 -54.719  51.951  0.00  0.00    +0.000 OA
ATOM      4  O   UNL     1      48.408 -54.132  54.149  0.00  0.00    +0.000 OA
ATOM      5  O   UNL     1      47.179 -47.696  49.938  0.00  0.00    +0.000 OA
ATOM      6  C   UNL     1      47.257 -53.063  51.335  0.00  0.00    +0.000 C 
ATOM      7  C   UNL     1      47.949 -51.990  52.190  0.00  0.00    +0.000 C 
ATOM      8  C   UNL     1      47.138 -53.064  49.905  0.00  0.00    +0.000 C 
ATOM      9  C   UNL     1      47.117 -52.041  48.857  0.00  0.00    +0.000 C 
ATOM     10  C   UNL     1      47.364 -54.316  52.092  0.00  0.00    +0.000 C 
ATOM     11  C   UNL     1      48.220 -50.737  51.414  0.00  0.00    +0.000 C 
ATOM     12  C   UNL     1      47.072 -51.716  53.449  0.00  0.00    +0.000 C 
ATOM     13  C   UNL     1      47.061 -54.238  53.608  0.00  0.00    +0.000 C 
ATOM     14  C   UNL     1      47.134 -50.066  50.603  0.00  0.00    +0.000 C 
ATOM     15  C   UNL     1      46.914 -50.613  49.223  0.00  0.00    +0.000 C 
ATOM     16  C   UNL     1      46.432 -52.908  53.984  0.00  0.00    +0.000 C 
ATOM     17  C   UNL     1      49.228 -53.911  53.004  0.00  0.00    +0.000 C 
ATOM     18  C   UNL     1      49.251 -49.793  51.654  0.00  0.00    +0.000 C 
ATOM     19  C   UNL     1      47.031 -50.418  54.256  0.00  0.00    +0.000 C 
ATOM     20  C   UNL     1      47.735 -48.624  50.520  0.00  0.00    +0.000 C 
ATOM     21  C   UNL     1      49.058 -48.591  51.226  0.00  0.00    +0.000 C 
ATOM     22  C   UNL     1      50.155 -47.603  51.000  0.00  0.00    +0.000 C 
ENDROOT
BRANCH  13  23
ATOM     23  C   UNL     1      46.324 -55.519  54.064  0.00  0.00    +0.000 C 
ATOM     24  C   UNL     1      46.558 -56.211  55.405  0.00  0.00    +0.000 C 
ATOM     25  C   UNL     1      45.619 -56.310  53.228  0.00  0.00    +0.000 C 
ENDBRANCH  13  23
BRANCH  14  26
ATOM     26  O   UNL     1      45.898 -50.092  51.284  0.00  0.00    +0.000 OA
ATOM     27  H   UNL     1      46.032 -50.599  52.110  0.00  0.00    +0.000 HD
ENDBRANCH  14  26
BRANCH  15  28
ATOM     28  O   UNL     1      46.311 -49.760  48.295  0.00  0.00    +0.000 OA
ATOM     29  H   UNL     1      45.369 -49.553  48.474  0.00  0.00    +0.000 HD
ENDBRANCH  15  28
BRANCH  17  30
ATOM     30  C   UNL     1      50.595 -54.331  53.299  0.00  0.00    +0.000 C 
ATOM     31  C   UNL     1      51.719 -54.677  53.539  0.00  0.00    +0.000 C 
BRANCH  31  32
ATOM     32  C   UNL     1      53.153 -55.117  53.845  0.00  0.00    +0.000 C 
ATOM     33  C   UNL     1      54.277 -55.464  54.084  0.00  0.00    +0.000 C 
BRANCH  33  34
ATOM     34  C   UNL     1      55.711 -55.908  54.391  0.00  0.00    +0.000 C 
ATOM     35  C   UNL     1      57.143 -56.351  54.697  0.00  0.00    +0.000 C 
BRANCH  35  36
ATOM     36  C   UNL     1      58.578 -56.793  55.004  0.00  0.00    +0.000 C 
ATOM     37  C   UNL     1      60.012 -57.234  55.311  0.00  0.00    +0.000 C 
ATOM     38  C   UNL     1      61.447 -57.674  55.620  0.00  0.00    +0.000 C 
ENDBRANCH  35  36
ENDBRANCH  33  34
ENDBRANCH  31  32
ENDBRANCH  17  30
BRANCH  16  39
ATOM     39  O   UNL     1      45.326 -52.739  54.833  0.00  0.00    +0.000 OA
BRANCH  39  41
ATOM     40  O   UNL     1      43.713 -52.283  53.260  0.00  0.00    +0.000 OA
ATOM     41  C   UNL     1      44.117 -52.915  54.222  0.00  0.00    +0.000 C 
BRANCH  41  42
ATOM     42  C   UNL     1      43.337 -53.953  54.919  0.00  0.00    +0.000 A 
ATOM     43  C   UNL     1      43.518 -54.214  56.277  0.00  0.00    +0.000 A 
ATOM     44  C   UNL     1      42.400 -54.679  54.185  0.00  0.00    +0.000 A 
ATOM     45  C   UNL     1      42.761 -55.203  56.900  0.00  0.00    +0.000 A 
ATOM     46  C   UNL     1      41.644 -55.666  54.810  0.00  0.00    +0.000 A 
ATOM     47  C   UNL     1      41.825 -55.928  56.167  0.00  0.00    +0.000 A 
ENDBRANCH  41  42
ENDBRANCH  39  41
ENDBRANCH  16  39
BRANCH   9  48
ATOM     48  C   UNL     1      46.746 -52.451  47.510  0.00  0.00    +0.000 C 
BRANCH  48  49
ATOM     49  O   UNL     1      46.401 -52.823  46.280  0.00  0.00    +0.000 OA
ATOM     50  H   UNL     1      47.165 -52.767  45.681  0.00  0.00    +0.000 HD
ENDBRANCH  48  49
ENDBRANCH   9  48
TORSDOF 12
ENDMDL
