MODEL 1
REMARK VINA RESULT:      -5.7      0.000      0.000
REMARK  Name = 5386_Tegafur.pdbqt.pdb
REMARK  1 active torsions:
REMARK  status: ('A' for Active; 'I' for Inactive)
REMARK    1  A    between atoms: N_4  and  C_12
REMARK                            x       y       z     vdW  Elec       q    Type
REMARK                         _______ _______ _______ _____ _____    ______ ____
ROOT
ATOM      1  F   UNL     1      41.804 -29.274  53.197  0.00  0.00    +0.000 F 
ATOM      2  O   UNL     1      37.653 -28.369  56.581  0.00  0.00    +0.000 OA
ATOM      3  O   UNL     1      40.658 -31.329  54.767  0.00  0.00    +0.000 OA
ATOM      4  N   UNL     1      39.363 -27.503  55.194  0.00  0.00    +0.000 N 
ATOM      5  N   UNL     1      39.230 -29.791  55.714  0.00  0.00    +0.000 N 
ATOM      6  C   UNL     1      38.656 -28.510  55.891  0.00  0.00    +0.000 C 
ATOM      7  C   UNL     1      40.441 -27.888  54.481  0.00  0.00    +0.000 C 
ATOM      8  C   UNL     1      41.033 -29.014  54.265  0.00  0.00    +0.000 C 
ATOM      9  C   UNL     1      40.324 -30.160  54.921  0.00  0.00    +0.000 C 
ATOM     10  H   UNL     1      38.736 -30.549  56.163  0.00  0.00    +0.000 HD
ENDROOT
BRANCH   4  12
ATOM     11  O   UNL     1      38.339 -25.585  56.273  0.00  0.00    +0.000 OA
ATOM     12  C   UNL     1      39.011 -26.185  55.201  0.00  0.00    +0.000 C 
ATOM     13  C   UNL     1      39.221 -25.198  54.200  0.00  0.00    +0.000 C 
ATOM     14  C   UNL     1      38.751 -23.752  54.369  0.00  0.00    +0.000 C 
ATOM     15  C   UNL     1      38.296 -24.383  55.683  0.00  0.00    +0.000 C 
ENDBRANCH   4  12
TORSDOF 1
ENDMDL
MODEL 2
REMARK VINA RESULT:      -5.4     14.485     17.213
REMARK  Name = 5386_Tegafur.pdbqt.pdb
REMARK  1 active torsions:
REMARK  status: ('A' for Active; 'I' for Inactive)
REMARK    1  A    between atoms: N_4  and  C_12
REMARK                            x       y       z     vdW  Elec       q    Type
REMARK                         _______ _______ _______ _____ _____    ______ ____
ROOT
ATOM      1  F   UNL     1      50.503 -37.330  48.603  0.00  0.00    +0.000 F 
ATOM      2  O   UNL     1      46.898 -40.674  50.910  0.00  0.00    +0.000 OA
ATOM      3  O   UNL     1      48.491 -36.403  50.361  0.00  0.00    +0.000 OA
ATOM      4  N   UNL     1      48.588 -40.320  49.293  0.00  0.00    +0.000 N 
ATOM      5  N   UNL     1      47.673 -38.548  50.536  0.00  0.00    +0.000 N 
ATOM      6  C   UNL     1      47.657 -39.941  50.287  0.00  0.00    +0.000 C 
ATOM      7  C   UNL     1      49.337 -39.341  48.744  0.00  0.00    +0.000 C 
ATOM      8  C   UNL     1      49.419 -38.064  48.901  0.00  0.00    +0.000 C 
ATOM      9  C   UNL     1      48.504 -37.567  49.980  0.00  0.00    +0.000 C 
ATOM     10  H   UNL     1      47.050 -38.235  51.267  0.00  0.00    +0.000 HD
ENDROOT
BRANCH   4  12
ATOM     11  O   UNL     1      48.197 -42.107  47.697  0.00  0.00    +0.000 OA
ATOM     12  C   UNL     1      48.769 -41.606  48.873  0.00  0.00    +0.000 C 
ATOM     13  C   UNL     1      49.512 -42.650  49.485  0.00  0.00    +0.000 C 
ATOM     14  C   UNL     1      49.606 -44.050  48.876  0.00  0.00    +0.000 C 
ATOM     15  C   UNL     1      48.719 -43.329  47.863  0.00  0.00    +0.000 C 
ENDBRANCH   4  12
TORSDOF 1
ENDMDL
MODEL 3
REMARK VINA RESULT:      -5.3     16.229     17.173
REMARK  Name = 5386_Tegafur.pdbqt.pdb
REMARK  1 active torsions:
REMARK  status: ('A' for Active; 'I' for Inactive)
REMARK    1  A    between atoms: N_4  and  C_12
REMARK                            x       y       z     vdW  Elec       q    Type
REMARK                         _______ _______ _______ _____ _____    ______ ____
ROOT
ATOM      1  F   UNL     1      47.005 -43.133  49.880  0.00  0.00    +0.000 F 
ATOM      2  O   UNL     1      49.524 -38.337  50.268  0.00  0.00    +0.000 OA
ATOM      3  O   UNL     1      47.523 -41.894  52.370  0.00  0.00    +0.000 OA
ATOM      4  N   UNL     1      48.902 -40.198  48.947  0.00  0.00    +0.000 N 
ATOM      5  N   UNL     1      48.596 -40.175  51.277  0.00  0.00    +0.000 N 
ATOM      6  C   UNL     1      49.059 -39.464  50.145  0.00  0.00    +0.000 C 
ATOM      7  C   UNL     1      48.351 -41.425  49.044  0.00  0.00    +0.000 C 
ATOM      8  C   UNL     1      47.907 -42.147  50.016  0.00  0.00    +0.000 C 
ATOM      9  C   UNL     1      47.979 -41.432  51.331  0.00  0.00    +0.000 C 
ATOM     10  H   UNL     1      48.652 -39.674  52.152  0.00  0.00    +0.000 HD
ENDROOT
BRANCH   4  12
ATOM     11  O   UNL     1      50.074 -40.468  46.839  0.00  0.00    +0.000 OA
ATOM     12  C   UNL     1      49.269 -39.733  47.718  0.00  0.00    +0.000 C 
ATOM     13  C   UNL     1      48.953 -38.494  47.100  0.00  0.00    +0.000 C 
ATOM     14  C   UNL     1      49.458 -38.126  45.703  0.00  0.00    +0.000 C 
ATOM     15  C   UNL     1      50.062 -39.516  45.897  0.00  0.00    +0.000 C 
ENDBRANCH   4  12
TORSDOF 1
ENDMDL
MODEL 4
REMARK VINA RESULT:      -5.2     16.204     19.144
REMARK  Name = 5386_Tegafur.pdbqt.pdb
REMARK  1 active torsions:
REMARK  status: ('A' for Active; 'I' for Inactive)
REMARK    1  A    between atoms: N_4  and  C_12
REMARK                            x       y       z     vdW  Elec       q    Type
REMARK                         _______ _______ _______ _____ _____    ______ ____
ROOT
ATOM      1  F   UNL     1      49.070 -40.158  48.861  0.00  0.00    +0.000 F 
ATOM      2  O   UNL     1      48.137 -43.749  52.829  0.00  0.00    +0.000 OA
ATOM      3  O   UNL     1      48.137 -39.380  51.416  0.00  0.00    +0.000 OA
ATOM      4  N   UNL     1      48.579 -43.322  50.544  0.00  0.00    +0.000 N 
ATOM      5  N   UNL     1      48.068 -41.592  52.050  0.00  0.00    +0.000 N 
ATOM      6  C   UNL     1      48.254 -42.984  51.878  0.00  0.00    +0.000 C 
ATOM      7  C   UNL     1      48.668 -42.310  49.656  0.00  0.00    +0.000 C 
ATOM      8  C   UNL     1      48.516 -41.031  49.718  0.00  0.00    +0.000 C 
ATOM      9  C   UNL     1      48.222 -40.564  51.111  0.00  0.00    +0.000 C 
ATOM     10  H   UNL     1      47.872 -41.298  52.997  0.00  0.00    +0.000 HD
ENDROOT
BRANCH   4  12
ATOM     11  O   UNL     1      47.837 -45.604  50.178  0.00  0.00    +0.000 OA
ATOM     12  C   UNL     1      48.809 -44.598  50.118  0.00  0.00    +0.000 C 
ATOM     13  C   UNL     1      49.994 -45.157  49.568  0.00  0.00    +0.000 C 
ATOM     14  C   UNL     1      50.083 -46.624  49.144  0.00  0.00    +0.000 C 
ATOM     15  C   UNL     1      48.646 -46.534  49.655  0.00  0.00    +0.000 C 
ENDBRANCH   4  12
TORSDOF 1
ENDMDL
MODEL 5
REMARK VINA RESULT:      -5.2     28.085     29.682
REMARK  Name = 5386_Tegafur.pdbqt.pdb
REMARK  1 active torsions:
REMARK  status: ('A' for Active; 'I' for Inactive)
REMARK    1  A    between atoms: N_4  and  C_12
REMARK                            x       y       z     vdW  Elec       q    Type
REMARK                         _______ _______ _______ _____ _____    ______ ____
ROOT
ATOM      1  F   UNL     1      57.890 -51.921  64.425  0.00  0.00    +0.000 F 
ATOM      2  O   UNL     1      57.596 -49.871  59.404  0.00  0.00    +0.000 OA
ATOM      3  O   UNL     1      56.882 -53.409  62.240  0.00  0.00    +0.000 OA
ATOM      4  N   UNL     1      57.932 -49.521  61.719  0.00  0.00    +0.000 N 
ATOM      5  N   UNL     1      57.175 -51.579  60.875  0.00  0.00    +0.000 N 
ATOM      6  C   UNL     1      57.577 -50.258  60.566  0.00  0.00    +0.000 C 
ATOM      7  C   UNL     1      57.847 -50.155  62.907  0.00  0.00    +0.000 C 
ATOM      8  C   UNL     1      57.494 -51.338  63.282  0.00  0.00    +0.000 C 
ATOM      9  C   UNL     1      57.149 -52.220  62.120  0.00  0.00    +0.000 C 
ATOM     10  H   UNL     1      56.948 -52.157  60.078  0.00  0.00    +0.000 HD
ENDROOT
BRANCH   4  12
ATOM     11  O   UNL     1      57.476 -47.142  61.573  0.00  0.00    +0.000 OA
ATOM     12  C   UNL     1      58.356 -48.224  61.691  0.00  0.00    +0.000 C 
ATOM     13  C   UNL     1      59.680 -47.715  61.761  0.00  0.00    +0.000 C 
ATOM     14  C   UNL     1      59.982 -46.216  61.708  0.00  0.00    +0.000 C 
ATOM     15  C   UNL     1      58.458 -46.231  61.599  0.00  0.00    +0.000 C 
ENDBRANCH   4  12
TORSDOF 1
ENDMDL
MODEL 6
REMARK VINA RESULT:      -5.1     11.344     11.893
REMARK  Name = 5386_Tegafur.pdbqt.pdb
REMARK  1 active torsions:
REMARK  status: ('A' for Active; 'I' for Inactive)
REMARK    1  A    between atoms: N_4  and  C_12
REMARK                            x       y       z     vdW  Elec       q    Type
REMARK                         _______ _______ _______ _____ _____    ______ ____
ROOT
ATOM      1  F   UNL     1      48.534 -20.969  61.911  0.00  0.00    +0.000 F 
ATOM      2  O   UNL     1      48.560 -26.146  60.268  0.00  0.00    +0.000 OA
ATOM      3  O   UNL     1      50.529 -21.999  60.190  0.00  0.00    +0.000 OA
ATOM      4  N   UNL     1      47.701 -24.483  61.715  0.00  0.00    +0.000 N 
ATOM      5  N   UNL     1      49.557 -24.081  60.331  0.00  0.00    +0.000 N 
ATOM      6  C   UNL     1      48.582 -25.018  60.746  0.00  0.00    +0.000 C 
ATOM      7  C   UNL     1      47.902 -23.204  62.091  0.00  0.00    +0.000 C 
ATOM      8  C   UNL     1      48.752 -22.287  61.776  0.00  0.00    +0.000 C 
ATOM      9  C   UNL     1      49.702 -22.740  60.708  0.00  0.00    +0.000 C 
ATOM     10  H   UNL     1      50.185 -24.406  59.610  0.00  0.00    +0.000 HD
ENDROOT
BRANCH   4  12
ATOM     11  O   UNL     1      46.549 -25.376  63.656  0.00  0.00    +0.000 OA
ATOM     12  C   UNL     1      46.672 -25.183  62.274  0.00  0.00    +0.000 C 
ATOM     13  C   UNL     1      45.581 -25.833  61.636  0.00  0.00    +0.000 C 
ATOM     14  C   UNL     1      44.507 -26.587  62.423  0.00  0.00    +0.000 C 
ATOM     15  C   UNL     1      45.422 -26.091  63.541  0.00  0.00    +0.000 C 
ENDBRANCH   4  12
TORSDOF 1
ENDMDL
MODEL 7
REMARK VINA RESULT:      -5.1     28.242     29.273
REMARK  Name = 5386_Tegafur.pdbqt.pdb
REMARK  1 active torsions:
REMARK  status: ('A' for Active; 'I' for Inactive)
REMARK    1  A    between atoms: N_4  and  C_12
REMARK                            x       y       z     vdW  Elec       q    Type
REMARK                         _______ _______ _______ _____ _____    ______ ____
ROOT
ATOM      1  F   UNL     1      61.372 -46.534  57.893  0.00  0.00    +0.000 F 
ATOM      2  O   UNL     1      58.651 -47.464  62.500  0.00  0.00    +0.000 OA
ATOM      3  O   UNL     1      61.126 -44.581  59.923  0.00  0.00    +0.000 OA
ATOM      4  N   UNL     1      59.196 -48.135  60.298  0.00  0.00    +0.000 N 
ATOM      5  N   UNL     1      59.814 -46.030  61.141  0.00  0.00    +0.000 N 
ATOM      6  C   UNL     1      59.161 -47.256  61.405  0.00  0.00    +0.000 C 
ATOM      7  C   UNL     1      59.827 -47.701  59.187  0.00  0.00    +0.000 C 
ATOM      8  C   UNL     1      60.440 -46.616  58.856  0.00  0.00    +0.000 C 
ATOM      9  C   UNL     1      60.506 -45.636  59.988  0.00  0.00    +0.000 C 
ATOM     10  H   UNL     1      59.849 -45.384  61.917  0.00  0.00    +0.000 HD
ENDROOT
BRANCH   4  12
ATOM     11  O   UNL     1      57.255 -49.591  60.328  0.00  0.00    +0.000 OA
ATOM     12  C   UNL     1      58.638 -49.380  60.298  0.00  0.00    +0.000 C 
ATOM     13  C   UNL     1      59.281 -50.647  60.279  0.00  0.00    +0.000 C 
ATOM     14  C   UNL     1      58.496 -51.960  60.289  0.00  0.00    +0.000 C 
ATOM     15  C   UNL     1      57.373 -50.926  60.319  0.00  0.00    +0.000 C 
ENDBRANCH   4  12
TORSDOF 1
ENDMDL
MODEL 8
REMARK VINA RESULT:      -5.1      3.287      5.079
REMARK  Name = 5386_Tegafur.pdbqt.pdb
REMARK  1 active torsions:
REMARK  status: ('A' for Active; 'I' for Inactive)
REMARK    1  A    between atoms: N_4  and  C_12
REMARK                            x       y       z     vdW  Elec       q    Type
REMARK                         _______ _______ _______ _____ _____    ______ ____
ROOT
ATOM      1  F   UNL     1      34.135 -29.240  54.925  0.00  0.00    +0.000 F 
ATOM      2  O   UNL     1      38.177 -26.704  57.519  0.00  0.00    +0.000 OA
ATOM      3  O   UNL     1      33.691 -27.629  57.207  0.00  0.00    +0.000 OA
ATOM      4  N   UNL     1      37.484 -28.307  55.924  0.00  0.00    +0.000 N 
ATOM      5  N   UNL     1      35.958 -27.265  57.376  0.00  0.00    +0.000 N 
ATOM      6  C   UNL     1      37.310 -27.377  56.975  0.00  0.00    +0.000 C 
ATOM      7  C   UNL     1      36.380 -28.931  55.464  0.00  0.00    +0.000 C 
ATOM      8  C   UNL     1      35.126 -28.897  55.764  0.00  0.00    +0.000 C 
ATOM      9  C   UNL     1      34.828 -27.895  56.837  0.00  0.00    +0.000 C 
ATOM     10  H   UNL     1      35.779 -26.583  58.099  0.00  0.00    +0.000 HD
ENDROOT
BRANCH   4  12
ATOM     11  O   UNL     1      39.257 -27.816  54.340  0.00  0.00    +0.000 OA
ATOM     12  C   UNL     1      38.691 -28.595  55.356  0.00  0.00    +0.000 C 
ATOM     13  C   UNL     1      39.576 -29.671  55.637  0.00  0.00    +0.000 C 
ATOM     14  C   UNL     1      40.901 -29.852  54.894  0.00  0.00    +0.000 C 
ATOM     15  C   UNL     1      40.346 -28.589  54.238  0.00  0.00    +0.000 C 
ENDBRANCH   4  12
TORSDOF 1
ENDMDL
MODEL 9
REMARK VINA RESULT:      -5.0     16.848     17.607
REMARK  Name = 5386_Tegafur.pdbqt.pdb
REMARK  1 active torsions:
REMARK  status: ('A' for Active; 'I' for Inactive)
REMARK    1  A    between atoms: N_4  and  C_12
REMARK                            x       y       z     vdW  Elec       q    Type
REMARK                         _______ _______ _______ _____ _____    ______ ____
ROOT
ATOM      1  F   UNL     1      47.903 -40.309  45.262  0.00  0.00    +0.000 F 
ATOM      2  O   UNL     1      50.784 -39.144  49.717  0.00  0.00    +0.000 OA
ATOM      3  O   UNL     1      49.882 -38.288  45.297  0.00  0.00    +0.000 OA
ATOM      4  N   UNL     1      48.944 -40.253  48.726  0.00  0.00    +0.000 N 
ATOM      5  N   UNL     1      50.237 -38.693  47.536  0.00  0.00    +0.000 N 
ATOM      6  C   UNL     1      50.040 -39.361  48.767  0.00  0.00    +0.000 C 
ATOM      7  C   UNL     1      48.267 -40.344  47.563  0.00  0.00    +0.000 C 
ATOM      8  C   UNL     1      48.369 -39.782  46.406  0.00  0.00    +0.000 C 
ATOM      9  C   UNL     1      49.542 -38.852  46.330  0.00  0.00    +0.000 C 
ATOM     10  H   UNL     1      51.034 -38.073  47.506  0.00  0.00    +0.000 HD
ENDROOT
BRANCH   4  12
ATOM     11  O   UNL     1      47.816 -40.503  50.860  0.00  0.00    +0.000 OA
ATOM     12  C   UNL     1      48.547 -41.018  49.783  0.00  0.00    +0.000 C 
ATOM     13  C   UNL     1      48.773 -42.401  50.021  0.00  0.00    +0.000 C 
ATOM     14  C   UNL     1      48.257 -43.108  51.276  0.00  0.00    +0.000 C 
ATOM     15  C   UNL     1      47.765 -41.679  51.499  0.00  0.00    +0.000 C 
ENDBRANCH   4  12
TORSDOF 1
ENDMDL
