MODEL 1
REMARK VINA RESULT:      -6.2      0.000      0.000
REMARK  Name = 5470187_Zerumbone.pdbqt.pdb
REMARK  0 active torsions:
REMARK  status: ('A' for Active; 'I' for Inactive)
REMARK                            x       y       z     vdW  Elec       q    Type
REMARK                         _______ _______ _______ _____ _____    ______ ____
ROOT
ATOM      1  O   UNL     1      50.044 -41.541  46.760  0.00  0.00    +0.000 OA
ATOM      2  C   UNL     1      49.165 -36.764  47.288  0.00  0.00    +0.000 C 
ATOM      3  C   UNL     1      48.661 -36.349  48.618  0.00  0.00    +0.000 C 
ATOM      4  C   UNL     1      50.511 -36.061  46.988  0.00  0.00    +0.000 C 
ATOM      5  C   UNL     1      48.112 -36.422  46.204  0.00  0.00    +0.000 C 
ATOM      6  C   UNL     1      49.365 -38.248  47.353  0.00  0.00    +0.000 C 
ATOM      7  C   UNL     1      48.173 -36.340  50.078  0.00  0.00    +0.000 C 
ATOM      8  C   UNL     1      47.846 -36.760  51.264  0.00  0.00    +0.000 C 
ATOM      9  C   UNL     1      47.985 -38.168  51.365  0.00  0.00    +0.000 C 
ATOM     10  C   UNL     1      48.330 -39.585  50.904  0.00  0.00    +0.000 C 
ATOM     11  C   UNL     1      49.491 -39.440  47.491  0.00  0.00    +0.000 C 
ATOM     12  C   UNL     1      48.067 -35.894  52.460  0.00  0.00    +0.000 C 
ATOM     13  C   UNL     1      48.806 -40.712  49.983  0.00  0.00    +0.000 C 
ATOM     14  C   UNL     1      49.245 -41.486  49.033  0.00  0.00    +0.000 C 
ATOM     15  C   UNL     1      49.623 -40.882  47.703  0.00  0.00    +0.000 C 
ATOM     16  C   UNL     1      49.335 -42.962  49.336  0.00  0.00    +0.000 C 
ENDROOT
TORSDOF 0
ENDMDL
MODEL 2
REMARK VINA RESULT:      -6.0     13.791     17.070
REMARK  Name = 5470187_Zerumbone.pdbqt.pdb
REMARK  0 active torsions:
REMARK  status: ('A' for Active; 'I' for Inactive)
REMARK                            x       y       z     vdW  Elec       q    Type
REMARK                         _______ _______ _______ _____ _____    ______ ____
ROOT
ATOM      1  O   UNL     1      42.030 -53.708  54.726  0.00  0.00    +0.000 OA
ATOM      2  C   UNL     1      46.515 -51.821  54.281  0.00  0.00    +0.000 C 
ATOM      3  C   UNL     1      47.498 -52.260  55.300  0.00  0.00    +0.000 C 
ATOM      4  C   UNL     1      46.997 -52.230  52.869  0.00  0.00    +0.000 C 
ATOM      5  C   UNL     1      46.322 -50.287  54.374  0.00  0.00    +0.000 C 
ATOM      6  C   UNL     1      45.228 -52.516  54.606  0.00  0.00    +0.000 C 
ATOM      7  C   UNL     1      48.181 -52.940  56.500  0.00  0.00    +0.000 C 
ATOM      8  C   UNL     1      48.356 -53.688  57.549  0.00  0.00    +0.000 C 
ATOM      9  C   UNL     1      47.153 -54.343  57.918  0.00  0.00    +0.000 C 
ATOM     10  C   UNL     1      45.681 -54.748  57.812  0.00  0.00    +0.000 C 
ATOM     11  C   UNL     1      44.233 -53.111  54.942  0.00  0.00    +0.000 C 
ATOM     12  C   UNL     1      49.675 -54.341  57.800  0.00  0.00    +0.000 C 
ATOM     13  C   UNL     1      44.255 -54.822  57.259  0.00  0.00    +0.000 C 
ATOM     14  C   UNL     1      43.130 -54.728  56.613  0.00  0.00    +0.000 C 
ATOM     15  C   UNL     1      43.051 -53.850  55.389  0.00  0.00    +0.000 C 
ATOM     16  C   UNL     1      41.959 -55.513  57.154  0.00  0.00    +0.000 C 
ENDROOT
TORSDOF 0
ENDMDL
MODEL 3
REMARK VINA RESULT:      -5.9      6.464      9.416
REMARK  Name = 5470187_Zerumbone.pdbqt.pdb
REMARK  0 active torsions:
REMARK  status: ('A' for Active; 'I' for Inactive)
REMARK                            x       y       z     vdW  Elec       q    Type
REMARK                         _______ _______ _______ _____ _____    ______ ____
ROOT
ATOM      1  O   UNL     1      49.008 -51.071  51.994  0.00  0.00    +0.000 OA
ATOM      2  C   UNL     1      50.217 -47.131  49.369  0.00  0.00    +0.000 C 
ATOM      3  C   UNL     1      49.428 -45.908  49.650  0.00  0.00    +0.000 C 
ATOM      4  C   UNL     1      51.714 -46.877  49.670  0.00  0.00    +0.000 C 
ATOM      5  C   UNL     1      50.016 -47.550  47.891  0.00  0.00    +0.000 C 
ATOM      6  C   UNL     1      49.685 -48.198  50.277  0.00  0.00    +0.000 C 
ATOM      7  C   UNL     1      48.416 -44.900  50.223  0.00  0.00    +0.000 C 
ATOM      8  C   UNL     1      47.457 -44.401  50.945  0.00  0.00    +0.000 C 
ATOM      9  C   UNL     1      46.895 -45.385  51.799  0.00  0.00    +0.000 C 
ATOM     10  C   UNL     1      46.735 -46.762  52.447  0.00  0.00    +0.000 C 
ATOM     11  C   UNL     1      49.193 -48.996  51.036  0.00  0.00    +0.000 C 
ATOM     12  C   UNL     1      47.496 -42.970  51.368  0.00  0.00    +0.000 C 
ATOM     13  C   UNL     1      47.007 -48.238  52.753  0.00  0.00    +0.000 C 
ATOM     14  C   UNL     1      47.419 -49.469  52.842  0.00  0.00    +0.000 C 
ATOM     15  C   UNL     1      48.562 -49.930  51.971  0.00  0.00    +0.000 C 
ATOM     16  C   UNL     1      46.701 -50.365  53.821  0.00  0.00    +0.000 C 
ENDROOT
TORSDOF 0
ENDMDL
MODEL 4
REMARK VINA RESULT:      -5.7      4.335      8.220
REMARK  Name = 5470187_Zerumbone.pdbqt.pdb
REMARK  0 active torsions:
REMARK  status: ('A' for Active; 'I' for Inactive)
REMARK                            x       y       z     vdW  Elec       q    Type
REMARK                         _______ _______ _______ _____ _____    ______ ____
ROOT
ATOM      1  O   UNL     1      49.843 -42.156  47.036  0.00  0.00    +0.000 OA
ATOM      2  C   UNL     1      51.963 -46.400  48.209  0.00  0.00    +0.000 C 
ATOM      3  C   UNL     1      51.386 -47.101  49.380  0.00  0.00    +0.000 C 
ATOM      4  C   UNL     1      51.839 -47.286  46.947  0.00  0.00    +0.000 C 
ATOM      5  C   UNL     1      53.445 -46.049  48.493  0.00  0.00    +0.000 C 
ATOM      6  C   UNL     1      51.168 -45.142  48.033  0.00  0.00    +0.000 C 
ATOM      7  C   UNL     1      50.526 -47.488  50.597  0.00  0.00    +0.000 C 
ATOM      8  C   UNL     1      49.607 -47.436  51.515  0.00  0.00    +0.000 C 
ATOM      9  C   UNL     1      48.847 -46.243  51.412  0.00  0.00    +0.000 C 
ATOM     10  C   UNL     1      48.407 -44.900  50.824  0.00  0.00    +0.000 C 
ATOM     11  C   UNL     1      50.481 -44.152  47.968  0.00  0.00    +0.000 C 
ATOM     12  C   UNL     1      48.975 -48.689  52.022  0.00  0.00    +0.000 C 
ATOM     13  C   UNL     1      48.377 -43.693  49.882  0.00  0.00    +0.000 C 
ATOM     14  C   UNL     1      48.541 -42.784  48.965  0.00  0.00    +0.000 C 
ATOM     15  C   UNL     1      49.625 -42.965  47.931  0.00  0.00    +0.000 C 
ATOM     16  C   UNL     1      47.623 -41.587  49.013  0.00  0.00    +0.000 C 
ENDROOT
TORSDOF 0
ENDMDL
MODEL 5
REMARK VINA RESULT:      -5.5      1.497      4.422
REMARK  Name = 5470187_Zerumbone.pdbqt.pdb
REMARK  0 active torsions:
REMARK  status: ('A' for Active; 'I' for Inactive)
REMARK                            x       y       z     vdW  Elec       q    Type
REMARK                         _______ _______ _______ _____ _____    ______ ____
ROOT
ATOM      1  O   UNL     1      48.459 -39.135  44.406  0.00  0.00    +0.000 OA
ATOM      2  C   UNL     1      48.505 -40.960  48.938  0.00  0.00    +0.000 C 
ATOM      3  C   UNL     1      48.609 -39.962  50.029  0.00  0.00    +0.000 C 
ATOM      4  C   UNL     1      47.187 -41.759  49.076  0.00  0.00    +0.000 C 
ATOM      5  C   UNL     1      49.730 -41.907  48.983  0.00  0.00    +0.000 C 
ATOM      6  C   UNL     1      48.506 -40.188  47.654  0.00  0.00    +0.000 C 
ATOM      7  C   UNL     1      48.723 -38.652  50.830  0.00  0.00    +0.000 C 
ATOM      8  C   UNL     1      48.809 -37.383  51.099  0.00  0.00    +0.000 C 
ATOM      9  C   UNL     1      48.848 -36.609  49.911  0.00  0.00    +0.000 C 
ATOM     10  C   UNL     1      48.827 -36.340  48.405  0.00  0.00    +0.000 C 
ATOM     11  C   UNL     1      48.519 -39.489  46.671  0.00  0.00    +0.000 C 
ATOM     12  C   UNL     1      48.186 -36.830  52.337  0.00  0.00    +0.000 C 
ATOM     13  C   UNL     1      48.751 -36.627  46.902  0.00  0.00    +0.000 C 
ATOM     14  C   UNL     1      48.668 -37.111  45.697  0.00  0.00    +0.000 C 
ATOM     15  C   UNL     1      48.542 -38.601  45.506  0.00  0.00    +0.000 C 
ATOM     16  C   UNL     1      48.715 -36.123  44.556  0.00  0.00    +0.000 C 
ENDROOT
TORSDOF 0
ENDMDL
MODEL 6
REMARK VINA RESULT:      -5.4     13.745     17.543
REMARK  Name = 5470187_Zerumbone.pdbqt.pdb
REMARK  0 active torsions:
REMARK  status: ('A' for Active; 'I' for Inactive)
REMARK                            x       y       z     vdW  Elec       q    Type
REMARK                         _______ _______ _______ _____ _____    ______ ____
ROOT
ATOM      1  O   UNL     1      44.692 -56.781  58.002  0.00  0.00    +0.000 OA
ATOM      2  C   UNL     1      48.533 -54.248  56.359  0.00  0.00    +0.000 C 
ATOM      3  C   UNL     1      48.213 -53.090  55.490  0.00  0.00    +0.000 C 
ATOM      4  C   UNL     1      49.285 -53.769  57.624  0.00  0.00    +0.000 C 
ATOM      5  C   UNL     1      49.386 -55.270  55.566  0.00  0.00    +0.000 C 
ATOM      6  C   UNL     1      47.224 -54.867  56.742  0.00  0.00    +0.000 C 
ATOM      7  C   UNL     1      47.477 -52.021  54.663  0.00  0.00    +0.000 C 
ATOM      8  C   UNL     1      46.512 -51.343  54.117  0.00  0.00    +0.000 C 
ATOM      9  C   UNL     1      45.249 -51.911  54.423  0.00  0.00    +0.000 C 
ATOM     10  C   UNL     1      44.265 -52.890  55.067  0.00  0.00    +0.000 C 
ATOM     11  C   UNL     1      46.128 -55.303  56.997  0.00  0.00    +0.000 C 
ATOM     12  C   UNL     1      46.645 -49.869  53.914  0.00  0.00    +0.000 C 
ATOM     13  C   UNL     1      43.764 -54.068  55.908  0.00  0.00    +0.000 C 
ATOM     14  C   UNL     1      43.582 -55.106  56.671  0.00  0.00    +0.000 C 
ATOM     15  C   UNL     1      44.778 -55.799  57.274  0.00  0.00    +0.000 C 
ATOM     16  C   UNL     1      42.158 -55.557  56.890  0.00  0.00    +0.000 C 
ENDROOT
TORSDOF 0
ENDMDL
MODEL 7
REMARK VINA RESULT:      -5.2      3.005      4.364
REMARK  Name = 5470187_Zerumbone.pdbqt.pdb
REMARK  0 active torsions:
REMARK  status: ('A' for Active; 'I' for Inactive)
REMARK                            x       y       z     vdW  Elec       q    Type
REMARK                         _______ _______ _______ _____ _____    ______ ____
ROOT
ATOM      1  O   UNL     1      50.808 -37.522  41.998  0.00  0.00    +0.000 OA
ATOM      2  C   UNL     1      49.625 -34.740  45.836  0.00  0.00    +0.000 C 
ATOM      3  C   UNL     1      49.384 -35.468  47.105  0.00  0.00    +0.000 C 
ATOM      4  C   UNL     1      50.803 -33.751  46.009  0.00  0.00    +0.000 C 
ATOM      5  C   UNL     1      48.336 -33.992  45.415  0.00  0.00    +0.000 C 
ATOM      6  C   UNL     1      49.970 -35.776  44.811  0.00  0.00    +0.000 C 
ATOM      7  C   UNL     1      49.225 -36.564  48.174  0.00  0.00    +0.000 C 
ATOM      8  C   UNL     1      49.202 -37.737  48.733  0.00  0.00    +0.000 C 
ATOM      9  C   UNL     1      49.489 -38.758  47.792  0.00  0.00    +0.000 C 
ATOM     10  C   UNL     1      49.856 -39.357  46.433  0.00  0.00    +0.000 C 
ATOM     11  C   UNL     1      50.233 -36.675  44.050  0.00  0.00    +0.000 C 
ATOM     12  C   UNL     1      49.595 -37.900  50.164  0.00  0.00    +0.000 C 
ATOM     13  C   UNL     1      50.224 -39.412  44.947  0.00  0.00    +0.000 C 
ATOM     14  C   UNL     1      50.517 -39.209  43.696  0.00  0.00    +0.000 C 
ATOM     15  C   UNL     1      50.541 -37.798  43.162  0.00  0.00    +0.000 C 
ATOM     16  C   UNL     1      50.807 -40.426  42.851  0.00  0.00    +0.000 C 
ENDROOT
TORSDOF 0
ENDMDL
MODEL 8
REMARK VINA RESULT:      -5.2     14.293     17.365
REMARK  Name = 5470187_Zerumbone.pdbqt.pdb
REMARK  0 active torsions:
REMARK  status: ('A' for Active; 'I' for Inactive)
REMARK                            x       y       z     vdW  Elec       q    Type
REMARK                         _______ _______ _______ _____ _____    ______ ____
ROOT
ATOM      1  O   UNL     1      45.471 -54.107  58.633  0.00  0.00    +0.000 OA
ATOM      2  C   UNL     1      46.966 -52.411  54.302  0.00  0.00    +0.000 C 
ATOM      3  C   UNL     1      48.326 -52.829  53.886  0.00  0.00    +0.000 C 
ATOM      4  C   UNL     1      45.920 -52.914  53.278  0.00  0.00    +0.000 C 
ATOM      5  C   UNL     1      46.913 -50.868  54.429  0.00  0.00    +0.000 C 
ATOM      6  C   UNL     1      46.719 -53.040  55.639  0.00  0.00    +0.000 C 
ATOM      7  C   UNL     1      49.726 -53.467  53.832  0.00  0.00    +0.000 C 
ATOM      8  C   UNL     1      50.770 -54.161  54.173  0.00  0.00    +0.000 C 
ATOM      9  C   UNL     1      50.598 -54.751  55.451  0.00  0.00    +0.000 C 
ATOM     10  C   UNL     1      49.874 -55.108  56.751  0.00  0.00    +0.000 C 
ATOM     11  C   UNL     1      46.606 -53.580  56.713  0.00  0.00    +0.000 C 
ATOM     12  C   UNL     1      51.593 -54.846  53.133  0.00  0.00    +0.000 C 
ATOM     13  C   UNL     1      48.757 -55.161  57.797  0.00  0.00    +0.000 C 
ATOM     14  C   UNL     1      47.681 -55.062  58.522  0.00  0.00    +0.000 C 
ATOM     15  C   UNL     1      46.517 -54.250  58.012  0.00  0.00    +0.000 C 
ATOM     16  C   UNL     1      47.683 -55.773  59.854  0.00  0.00    +0.000 C 
ENDROOT
TORSDOF 0
ENDMDL
MODEL 9
REMARK VINA RESULT:      -5.1     17.908     20.883
REMARK  Name = 5470187_Zerumbone.pdbqt.pdb
REMARK  0 active torsions:
REMARK  status: ('A' for Active; 'I' for Inactive)
REMARK                            x       y       z     vdW  Elec       q    Type
REMARK                         _______ _______ _______ _____ _____    ______ ____
ROOT
ATOM      1  O   UNL     1      49.753 -20.645  59.507  0.00  0.00    +0.000 OA
ATOM      2  C   UNL     1      48.726 -24.803  61.859  0.00  0.00    +0.000 C 
ATOM      3  C   UNL     1      49.720 -25.226  62.874  0.00  0.00    +0.000 C 
ATOM      4  C   UNL     1      47.350 -24.570  62.529  0.00  0.00    +0.000 C 
ATOM      5  C   UNL     1      48.623 -25.881  60.752  0.00  0.00    +0.000 C 
ATOM      6  C   UNL     1      49.236 -23.521  61.274  0.00  0.00    +0.000 C 
ATOM      7  C   UNL     1      50.947 -25.306  63.799  0.00  0.00    +0.000 C 
ATOM      8  C   UNL     1      52.073 -24.997  64.372  0.00  0.00    +0.000 C 
ATOM      9  C   UNL     1      52.615 -23.805  63.826  0.00  0.00    +0.000 C 
ATOM     10  C   UNL     1      52.674 -22.567  62.929  0.00  0.00    +0.000 C 
ATOM     11  C   UNL     1      49.722 -22.499  60.856  0.00  0.00    +0.000 C 
ATOM     12  C   UNL     1      52.312 -25.346  65.803  0.00  0.00    +0.000 C 
ATOM     13  C   UNL     1      52.243 -21.545  61.873  0.00  0.00    +0.000 C 
ATOM     14  C   UNL     1      51.674 -20.824  60.951  0.00  0.00    +0.000 C 
ATOM     15  C   UNL     1      50.352 -21.267  60.377  0.00  0.00    +0.000 C 
ATOM     16  C   UNL     1      52.403 -19.578  60.507  0.00  0.00    +0.000 C 
ENDROOT
TORSDOF 0
ENDMDL
