MODEL 1
REMARK VINA RESULT:      -7.7      0.000      0.000
REMARK  Name = 60953_Capecitabine.pdbqt.pdb
REMARK  6 active torsions:
REMARK  status: ('A' for Active; 'I' for Inactive)
REMARK    1  A    between atoms: N_4  and  C_16
REMARK    2  A    between atoms: C_11  and  O_23
REMARK    3  A    between atoms: C_14  and  O_19
REMARK    4  A    between atoms: C_15  and  O_21
REMARK    5  A    between atoms: O_23  and  C_24
REMARK    6  A    between atoms: C_25  and  C_26
REMARK                            x       y       z     vdW  Elec       q    Type
REMARK                         _______ _______ _______ _____ _____    ______ ____
ROOT
ATOM      1  F   UNL     1      48.323 -40.493  51.287  0.00  0.00    +0.000 F 
ATOM      2  O   UNL     1      48.074 -45.067  48.509  0.00  0.00    +0.000 OA
ATOM      3  O   UNL     1      49.884 -41.202  46.601  0.00  0.00    +0.000 OA
ATOM      4  N   UNL     1      47.470 -43.876  50.410  0.00  0.00    +0.000 N 
ATOM      5  N   UNL     1      48.556 -42.829  48.544  0.00  0.00    +0.000 NA
ATOM      6  N   UNL     1      49.062 -40.532  48.673  0.00  0.00    +0.000 N 
ATOM      7  C   UNL     1      47.479 -42.646  50.960  0.00  0.00    +0.000 C 
ATOM      8  C   UNL     1      48.030 -43.997  49.112  0.00  0.00    +0.000 C 
ATOM      9  C   UNL     1      47.882 -41.506  50.521  0.00  0.00    +0.000 C 
ATOM     10  C   UNL     1      48.515 -41.694  49.177  0.00  0.00    +0.000 C 
ATOM     11  C   UNL     1      49.711 -40.360  47.470  0.00  0.00    +0.000 C 
ATOM     12  H   UNL     1      49.022 -39.696  49.239  0.00  0.00    +0.000 HD
ENDROOT
BRANCH   4  16
ATOM     13  O   UNL     1      45.728 -45.534  50.686  0.00  0.00    +0.000 OA
ATOM     14  C   UNL     1      47.283 -45.500  52.389  0.00  0.00    +0.000 A 
ATOM     15  C   UNL     1      46.285 -46.474  52.710  0.00  0.00    +0.000 A 
ATOM     16  C   UNL     1      46.908 -44.898  51.130  0.00  0.00    +0.000 A 
ATOM     17  C   UNL     1      45.333 -46.491  51.634  0.00  0.00    +0.000 A 
ATOM     18  C   UNL     1      43.982 -47.112  51.535  0.00  0.00    +0.000 C 
BRANCH  14  19
ATOM     19  O   UNL     1      47.952 -44.866  53.398  0.00  0.00    +0.000 OA
ATOM     20  H   UNL     1      48.867 -44.617  53.136  0.00  0.00    +0.000 HD
ENDBRANCH  14  19
BRANCH  15  21
ATOM     21  O   UNL     1      45.963 -46.753  54.013  0.00  0.00    +0.000 OA
ATOM     22  H   UNL     1      45.634 -45.951  54.462  0.00  0.00    +0.000 HD
ENDBRANCH  15  21
ENDBRANCH   4  16
BRANCH  11  23
ATOM     23  O   UNL     1      50.132 -39.062  47.388  0.00  0.00    +0.000 OA
BRANCH  23  24
ATOM     24  C   UNL     1      49.818 -38.285  48.423  0.00  0.00    +0.000 C 
ATOM     25  C   UNL     1      49.458 -37.393  49.615  0.00  0.00    +0.000 C 
BRANCH  25  26
ATOM     26  C   UNL     1      49.098 -36.502  50.808  0.00  0.00    +0.000 C 
ATOM     27  C   UNL     1      48.732 -35.617  52.002  0.00  0.00    +0.000 C 
ATOM     28  C   UNL     1      48.361 -34.740  53.203  0.00  0.00    +0.000 C 
ENDBRANCH  25  26
ENDBRANCH  23  24
ENDBRANCH  11  23
TORSDOF 6
ENDMDL
MODEL 2
REMARK VINA RESULT:      -7.5      3.543      7.681
REMARK  Name = 60953_Capecitabine.pdbqt.pdb
REMARK  6 active torsions:
REMARK  status: ('A' for Active; 'I' for Inactive)
REMARK    1  A    between atoms: N_4  and  C_16
REMARK    2  A    between atoms: C_11  and  O_23
REMARK    3  A    between atoms: C_14  and  O_19
REMARK    4  A    between atoms: C_15  and  O_21
REMARK    5  A    between atoms: O_23  and  C_24
REMARK    6  A    between atoms: C_25  and  C_26
REMARK                            x       y       z     vdW  Elec       q    Type
REMARK                         _______ _______ _______ _____ _____    ______ ____
ROOT
ATOM      1  F   UNL     1      49.800 -41.670  47.493  0.00  0.00    +0.000 F 
ATOM      2  O   UNL     1      47.443 -41.634  52.304  0.00  0.00    +0.000 OA
ATOM      3  O   UNL     1      48.042 -45.634  49.960  0.00  0.00    +0.000 OA
ATOM      4  N   UNL     1      48.266 -40.424  50.500  0.00  0.00    +0.000 N 
ATOM      5  N   UNL     1      48.056 -42.814  50.440  0.00  0.00    +0.000 NA
ATOM      6  N   UNL     1      48.751 -43.963  48.504  0.00  0.00    +0.000 N 
ATOM      7  C   UNL     1      48.732 -40.547  49.240  0.00  0.00    +0.000 C 
ATOM      8  C   UNL     1      47.885 -41.622  51.157  0.00  0.00    +0.000 C 
ATOM      9  C   UNL     1      48.884 -41.567  48.471  0.00  0.00    +0.000 C 
ATOM     10  C   UNL     1      48.525 -42.810  49.227  0.00  0.00    +0.000 C 
ATOM     11  C   UNL     1      48.527 -45.262  48.902  0.00  0.00    +0.000 C 
ATOM     12  H   UNL     1      49.151 -43.881  47.580  0.00  0.00    +0.000 HD
ENDROOT
BRANCH   4  16
ATOM     13  O   UNL     1      47.012 -38.385  50.855  0.00  0.00    +0.000 OA
ATOM     14  C   UNL     1      49.126 -38.370  51.776  0.00  0.00    +0.000 A 
ATOM     15  C   UNL     1      48.527 -37.091  52.004  0.00  0.00    +0.000 A 
ATOM     16  C   UNL     1      48.177 -39.164  51.030  0.00  0.00    +0.000 A 
ATOM     17  C   UNL     1      47.207 -37.122  51.436  0.00  0.00    +0.000 A 
ATOM     18  C   UNL     1      46.237 -36.025  51.160  0.00  0.00    +0.000 C 
BRANCH  14  19
ATOM     19  O   UNL     1      50.485 -38.467  51.676  0.00  0.00    +0.000 OA
ATOM     20  H   UNL     1      50.823 -39.321  52.026  0.00  0.00    +0.000 HD
ENDBRANCH  14  19
BRANCH  15  21
ATOM     21  O   UNL     1      49.291 -35.957  52.086  0.00  0.00    +0.000 OA
ATOM     22  H   UNL     1      50.132 -36.145  52.545  0.00  0.00    +0.000 HD
ENDBRANCH  15  21
ENDBRANCH   4  16
BRANCH  11  23
ATOM     23  O   UNL     1      48.929 -46.097  47.897  0.00  0.00    +0.000 OA
BRANCH  23  24
ATOM     24  C   UNL     1      50.127 -45.841  47.376  0.00  0.00    +0.000 C 
ATOM     25  C   UNL     1      51.507 -45.544  46.779  0.00  0.00    +0.000 C 
BRANCH  25  26
ATOM     26  C   UNL     1      52.885 -45.246  46.183  0.00  0.00    +0.000 C 
ATOM     27  C   UNL     1      54.262 -44.953  45.581  0.00  0.00    +0.000 C 
ATOM     28  C   UNL     1      55.636 -44.663  44.967  0.00  0.00    +0.000 C 
ENDBRANCH  25  26
ENDBRANCH  23  24
ENDBRANCH  11  23
TORSDOF 6
ENDMDL
MODEL 3
REMARK VINA RESULT:      -7.5      2.550      9.096
REMARK  Name = 60953_Capecitabine.pdbqt.pdb
REMARK  6 active torsions:
REMARK  status: ('A' for Active; 'I' for Inactive)
REMARK    1  A    between atoms: N_4  and  C_16
REMARK    2  A    between atoms: C_11  and  O_23
REMARK    3  A    between atoms: C_14  and  O_19
REMARK    4  A    between atoms: C_15  and  O_21
REMARK    5  A    between atoms: O_23  and  C_24
REMARK    6  A    between atoms: C_25  and  C_26
REMARK                            x       y       z     vdW  Elec       q    Type
REMARK                         _______ _______ _______ _____ _____    ______ ____
ROOT
ATOM      1  F   UNL     1      50.505 -44.627  49.424  0.00  0.00    +0.000 F 
ATOM      2  O   UNL     1      46.993 -40.874  50.934  0.00  0.00    +0.000 OA
ATOM      3  O   UNL     1      46.686 -45.240  52.575  0.00  0.00    +0.000 OA
ATOM      4  N   UNL     1      48.731 -41.499  49.525  0.00  0.00    +0.000 N 
ATOM      5  N   UNL     1      47.642 -43.069  50.976  0.00  0.00    +0.000 NA
ATOM      6  N   UNL     1      48.395 -45.301  50.998  0.00  0.00    +0.000 N 
ATOM      7  C   UNL     1      49.475 -42.552  49.131  0.00  0.00    +0.000 C 
ATOM      8  C   UNL     1      47.734 -41.754  50.502  0.00  0.00    +0.000 C 
ATOM      9  C   UNL     1      49.448 -43.798  49.452  0.00  0.00    +0.000 C 
ATOM     10  C   UNL     1      48.424 -44.005  50.525  0.00  0.00    +0.000 C 
ATOM     11  C   UNL     1      47.576 -45.823  51.975  0.00  0.00    +0.000 C 
ATOM     12  H   UNL     1      49.059 -45.964  50.622  0.00  0.00    +0.000 HD
ENDROOT
BRANCH   4  16
ATOM     13  O   UNL     1      48.451 -39.972  47.667  0.00  0.00    +0.000 OA
ATOM     14  C   UNL     1      49.768 -39.156  49.376  0.00  0.00    +0.000 A 
ATOM     15  C   UNL     1      49.740 -38.184  48.325  0.00  0.00    +0.000 A 
ATOM     16  C   UNL     1      48.978 -40.284  48.940  0.00  0.00    +0.000 A 
ATOM     17  C   UNL     1      48.906 -38.703  47.276  0.00  0.00    +0.000 A 
ATOM     18  C   UNL     1      48.713 -38.252  45.870  0.00  0.00    +0.000 C 
BRANCH  14  19
ATOM     19  O   UNL     1      50.858 -39.227  50.197  0.00  0.00    +0.000 OA
ATOM     20  H   UNL     1      51.279 -38.348  50.331  0.00  0.00    +0.000 HD
ENDBRANCH  14  19
BRANCH  15  21
ATOM     21  O   UNL     1      50.805 -37.350  48.106  0.00  0.00    +0.000 OA
ATOM     22  H   UNL     1      50.497 -36.435  47.962  0.00  0.00    +0.000 HD
ENDBRANCH  15  21
ENDBRANCH   4  16
BRANCH  11  23
ATOM     23  O   UNL     1      47.911 -47.134  52.164  0.00  0.00    +0.000 OA
BRANCH  23  24
ATOM     24  C   UNL     1      46.936 -48.017  51.958  0.00  0.00    +0.000 C 
ATOM     25  C   UNL     1      45.816 -49.034  51.720  0.00  0.00    +0.000 C 
BRANCH  25  26
ATOM     26  C   UNL     1      44.697 -50.053  51.482  0.00  0.00    +0.000 C 
ATOM     27  C   UNL     1      43.582 -51.075  51.248  0.00  0.00    +0.000 C 
ATOM     28  C   UNL     1      42.468 -52.104  51.026  0.00  0.00    +0.000 C 
ENDBRANCH  25  26
ENDBRANCH  23  24
ENDBRANCH  11  23
TORSDOF 6
ENDMDL
MODEL 4
REMARK VINA RESULT:      -7.5      3.737      4.683
REMARK  Name = 60953_Capecitabine.pdbqt.pdb
REMARK  6 active torsions:
REMARK  status: ('A' for Active; 'I' for Inactive)
REMARK    1  A    between atoms: N_4  and  C_16
REMARK    2  A    between atoms: C_11  and  O_23
REMARK    3  A    between atoms: C_14  and  O_19
REMARK    4  A    between atoms: C_15  and  O_21
REMARK    5  A    between atoms: O_23  and  C_24
REMARK    6  A    between atoms: C_25  and  C_26
REMARK                            x       y       z     vdW  Elec       q    Type
REMARK                         _______ _______ _______ _____ _____    ______ ____
ROOT
ATOM      1  F   UNL     1      49.773 -40.502  46.263  0.00  0.00    +0.000 F 
ATOM      2  O   UNL     1      47.936 -39.691  51.230  0.00  0.00    +0.000 OA
ATOM      3  O   UNL     1      48.756 -36.091  48.363  0.00  0.00    +0.000 OA
ATOM      4  N   UNL     1      48.805 -41.170  49.663  0.00  0.00    +0.000 N 
ATOM      5  N   UNL     1      48.722 -38.804  49.271  0.00  0.00    +0.000 NA
ATOM      6  N   UNL     1      49.505 -37.970  47.212  0.00  0.00    +0.000 N 
ATOM      7  C   UNL     1      49.377 -41.237  48.444  0.00  0.00    +0.000 C 
ATOM      8  C   UNL     1      48.458 -39.877  50.133  0.00  0.00    +0.000 C 
ATOM      9  C   UNL     1      49.710 -40.330  47.595  0.00  0.00    +0.000 C 
ATOM     10  C   UNL     1      49.271 -38.992  48.108  0.00  0.00    +0.000 C 
ATOM     11  C   UNL     1      49.226 -36.631  47.372  0.00  0.00    +0.000 C 
ATOM     12  H   UNL     1      49.905 -38.200  46.313  0.00  0.00    +0.000 HD
ENDROOT
BRANCH   4  16
ATOM     13  O   UNL     1      49.209 -43.545  49.900  0.00  0.00    +0.000 OA
ATOM     14  C   UNL     1      47.872 -42.641  51.548  0.00  0.00    +0.000 A 
ATOM     15  C   UNL     1      47.974 -44.050  51.774  0.00  0.00    +0.000 A 
ATOM     16  C   UNL     1      48.628 -42.340  50.354  0.00  0.00    +0.000 A 
ATOM     17  C   UNL     1      48.820 -44.594  50.747  0.00  0.00    +0.000 A 
ATOM     18  C   UNL     1      49.076 -46.004  50.339  0.00  0.00    +0.000 C 
BRANCH  14  19
ATOM     19  O   UNL     1      46.755 -41.973  51.963  0.00  0.00    +0.000 OA
ATOM     20  H   UNL     1      46.310 -42.426  52.714  0.00  0.00    +0.000 HD
ENDBRANCH  14  19
BRANCH  15  21
ATOM     21  O   UNL     1      46.953 -44.747  52.365  0.00  0.00    +0.000 OA
ATOM     22  H   UNL     1      46.315 -44.133  52.776  0.00  0.00    +0.000 HD
ENDBRANCH  15  21
ENDBRANCH   4  16
BRANCH  11  23
ATOM     23  O   UNL     1      49.578 -35.976  46.225  0.00  0.00    +0.000 OA
BRANCH  23  24
ATOM     24  C   UNL     1      50.052 -34.743  46.385  0.00  0.00    +0.000 C 
ATOM     25  C   UNL     1      50.600 -33.323  46.567  0.00  0.00    +0.000 C 
BRANCH  25  26
ATOM     26  C   UNL     1      51.150 -31.906  46.749  0.00  0.00    +0.000 C 
ATOM     27  C   UNL     1      51.693 -30.486  46.934  0.00  0.00    +0.000 C 
ATOM     28  C   UNL     1      52.229 -29.063  47.129  0.00  0.00    +0.000 C 
ENDBRANCH  25  26
ENDBRANCH  23  24
ENDBRANCH  11  23
TORSDOF 6
ENDMDL
MODEL 5
REMARK VINA RESULT:      -7.2      2.798      4.310
REMARK  Name = 60953_Capecitabine.pdbqt.pdb
REMARK  6 active torsions:
REMARK  status: ('A' for Active; 'I' for Inactive)
REMARK    1  A    between atoms: N_4  and  C_16
REMARK    2  A    between atoms: C_11  and  O_23
REMARK    3  A    between atoms: C_14  and  O_19
REMARK    4  A    between atoms: C_15  and  O_21
REMARK    5  A    between atoms: O_23  and  C_24
REMARK    6  A    between atoms: C_25  and  C_26
REMARK                            x       y       z     vdW  Elec       q    Type
REMARK                         _______ _______ _______ _____ _____    ______ ____
ROOT
ATOM      1  F   UNL     1      49.764 -40.381  47.879  0.00  0.00    +0.000 F 
ATOM      2  O   UNL     1      46.801 -41.887  52.080  0.00  0.00    +0.000 OA
ATOM      3  O   UNL     1      47.268 -37.369  50.975  0.00  0.00    +0.000 OA
ATOM      4  N   UNL     1      48.316 -42.476  50.420  0.00  0.00    +0.000 N 
ATOM      5  N   UNL     1      47.726 -40.190  50.853  0.00  0.00    +0.000 NA
ATOM      6  N   UNL     1      48.683 -38.502  49.517  0.00  0.00    +0.000 N 
ATOM      7  C   UNL     1      49.124 -41.968  49.467  0.00  0.00    +0.000 C 
ATOM      8  C   UNL     1      47.568 -41.543  51.183  0.00  0.00    +0.000 C 
ATOM      9  C   UNL     1      49.388 -40.760  49.112  0.00  0.00    +0.000 C 
ATOM     10  C   UNL     1      48.533 -39.818  49.903  0.00  0.00    +0.000 C 
ATOM     11  C   UNL     1      48.051 -37.395  50.038  0.00  0.00    +0.000 C 
ATOM     12  H   UNL     1      49.304 -38.295  48.747  0.00  0.00    +0.000 HD
ENDROOT
BRANCH   4  16
ATOM     13  O   UNL     1      48.121 -44.700  49.486  0.00  0.00    +0.000 OA
ATOM     14  C   UNL     1      48.399 -44.654  51.775  0.00  0.00    +0.000 A 
ATOM     15  C   UNL     1      48.235 -46.016  51.369  0.00  0.00    +0.000 A 
ATOM     16  C   UNL     1      48.298 -43.835  50.589  0.00  0.00    +0.000 A 
ATOM     17  C   UNL     1      48.076 -46.027  49.941  0.00  0.00    +0.000 A 
ATOM     18  C   UNL     1      47.633 -47.109  49.017  0.00  0.00    +0.000 C 
BRANCH  14  19
ATOM     19  O   UNL     1      48.012 -44.275  53.029  0.00  0.00    +0.000 OA
ATOM     20  H   UNL     1      48.001 -43.297  53.134  0.00  0.00    +0.000 HD
ENDBRANCH  14  19
BRANCH  15  21
ATOM     21  O   UNL     1      47.660 -46.938  52.204  0.00  0.00    +0.000 OA
ATOM     22  H   UNL     1      48.266 -47.689  52.352  0.00  0.00    +0.000 HD
ENDBRANCH  15  21
ENDBRANCH   4  16
BRANCH  11  23
ATOM     23  O   UNL     1      48.457 -36.295  49.335  0.00  0.00    +0.000 OA
BRANCH  23  24
ATOM     24  C   UNL     1      48.811 -36.515  48.070  0.00  0.00    +0.000 C 
ATOM     25  C   UNL     1      49.220 -36.770  46.616  0.00  0.00    +0.000 C 
BRANCH  25  26
ATOM     26  C   UNL     1      49.631 -37.024  45.163  0.00  0.00    +0.000 C 
ATOM     27  C   UNL     1      50.042 -37.272  43.708  0.00  0.00    +0.000 C 
ATOM     28  C   UNL     1      50.457 -37.507  42.252  0.00  0.00    +0.000 C 
ENDBRANCH  25  26
ENDBRANCH  23  24
ENDBRANCH  11  23
TORSDOF 6
ENDMDL
MODEL 6
REMARK VINA RESULT:      -7.2      2.630      3.314
REMARK  Name = 60953_Capecitabine.pdbqt.pdb
REMARK  6 active torsions:
REMARK  status: ('A' for Active; 'I' for Inactive)
REMARK    1  A    between atoms: N_4  and  C_16
REMARK    2  A    between atoms: C_11  and  O_23
REMARK    3  A    between atoms: C_14  and  O_19
REMARK    4  A    between atoms: C_15  and  O_21
REMARK    5  A    between atoms: O_23  and  C_24
REMARK    6  A    between atoms: C_25  and  C_26
REMARK                            x       y       z     vdW  Elec       q    Type
REMARK                         _______ _______ _______ _____ _____    ______ ____
ROOT
ATOM      1  F   UNL     1      49.037 -43.398  47.210  0.00  0.00    +0.000 F 
ATOM      2  O   UNL     1      47.002 -41.882  51.928  0.00  0.00    +0.000 OA
ATOM      3  O   UNL     1      49.058 -38.780  49.098  0.00  0.00    +0.000 OA
ATOM      4  N   UNL     1      47.586 -43.615  50.495  0.00  0.00    +0.000 N 
ATOM      5  N   UNL     1      48.193 -41.336  50.050  0.00  0.00    +0.000 NA
ATOM      6  N   UNL     1      49.377 -40.845  48.074  0.00  0.00    +0.000 N 
ATOM      7  C   UNL     1      48.237 -43.893  49.347  0.00  0.00    +0.000 C 
ATOM      8  C   UNL     1      47.560 -42.255  50.899  0.00  0.00    +0.000 C 
ATOM      9  C   UNL     1      48.889 -43.151  48.523  0.00  0.00    +0.000 C 
ATOM     10  C   UNL     1      48.784 -41.722  48.958  0.00  0.00    +0.000 C 
ATOM     11  C   UNL     1      49.459 -39.474  48.176  0.00  0.00    +0.000 C 
ATOM     12  H   UNL     1      49.787 -41.218  47.229  0.00  0.00    +0.000 HD
ENDROOT
BRANCH   4  16
ATOM     13  O   UNL     1      45.898 -45.339  50.680  0.00  0.00    +0.000 OA
ATOM     14  C   UNL     1      47.360 -45.248  52.462  0.00  0.00    +0.000 A 
ATOM     15  C   UNL     1      46.385 -46.261  52.730  0.00  0.00    +0.000 A 
ATOM     16  C   UNL     1      47.028 -44.658  51.185  0.00  0.00    +0.000 A 
ATOM     17  C   UNL     1      45.491 -46.313  51.606  0.00  0.00    +0.000 A 
ATOM     18  C   UNL     1      44.173 -46.985  51.438  0.00  0.00    +0.000 C 
BRANCH  14  19
ATOM     19  O   UNL     1      47.951 -44.592  53.503  0.00  0.00    +0.000 OA
ATOM     20  H   UNL     1      48.524 -45.185  54.038  0.00  0.00    +0.000 HD
ENDBRANCH  14  19
BRANCH  15  21
ATOM     21  O   UNL     1      46.008 -46.556  54.014  0.00  0.00    +0.000 OA
ATOM     22  H   UNL     1      46.136 -45.781  54.594  0.00  0.00    +0.000 HD
ENDBRANCH  15  21
ENDBRANCH   4  16
BRANCH  11  23
ATOM     23  O   UNL     1      50.091 -38.995  47.062  0.00  0.00    +0.000 OA
BRANCH  23  24
ATOM     24  C   UNL     1      49.617 -37.850  46.575  0.00  0.00    +0.000 C 
ATOM     25  C   UNL     1      49.073 -36.532  46.014  0.00  0.00    +0.000 C 
BRANCH  25  26
ATOM     26  C   UNL     1      48.532 -35.214  45.452  0.00  0.00    +0.000 C 
ATOM     27  C   UNL     1      47.988 -33.900  44.885  0.00  0.00    +0.000 C 
ATOM     28  C   UNL     1      47.436 -32.591  44.310  0.00  0.00    +0.000 C 
ENDBRANCH  25  26
ENDBRANCH  23  24
ENDBRANCH  11  23
TORSDOF 6
ENDMDL
MODEL 7
REMARK VINA RESULT:      -7.2      3.041      4.271
REMARK  Name = 60953_Capecitabine.pdbqt.pdb
REMARK  6 active torsions:
REMARK  status: ('A' for Active; 'I' for Inactive)
REMARK    1  A    between atoms: N_4  and  C_16
REMARK    2  A    between atoms: C_11  and  O_23
REMARK    3  A    between atoms: C_14  and  O_19
REMARK    4  A    between atoms: C_15  and  O_21
REMARK    5  A    between atoms: O_23  and  C_24
REMARK    6  A    between atoms: C_25  and  C_26
REMARK                            x       y       z     vdW  Elec       q    Type
REMARK                         _______ _______ _______ _____ _____    ______ ____
ROOT
ATOM      1  F   UNL     1      49.357 -45.997  49.623  0.00  0.00    +0.000 F 
ATOM      2  O   UNL     1      45.476 -46.451  53.288  0.00  0.00    +0.000 OA
ATOM      3  O   UNL     1      46.873 -42.250  51.787  0.00  0.00    +0.000 OA
ATOM      4  N   UNL     1      47.148 -47.479  52.045  0.00  0.00    +0.000 N 
ATOM      5  N   UNL     1      46.875 -45.096  52.084  0.00  0.00    +0.000 NA
ATOM      6  N   UNL     1      48.322 -43.769  50.783  0.00  0.00    +0.000 N 
ATOM      7  C   UNL     1      48.188 -47.233  51.222  0.00  0.00    +0.000 C 
ATOM      8  C   UNL     1      46.438 -46.351  52.530  0.00  0.00    +0.000 C 
ATOM      9  C   UNL     1      48.706 -46.137  50.790  0.00  0.00    +0.000 C 
ATOM     10  C   UNL     1      47.890 -44.981  51.280  0.00  0.00    +0.000 C 
ATOM     11  C   UNL     1      47.797 -42.521  51.035  0.00  0.00    +0.000 C 
ATOM     12  H   UNL     1      49.097 -43.764  50.134  0.00  0.00    +0.000 HD
ENDROOT
BRANCH   4  16
ATOM     13  O   UNL     1      46.530 -49.717  51.359  0.00  0.00    +0.000 OA
ATOM     14  C   UNL     1      46.831 -49.471  53.633  0.00  0.00    +0.000 A 
ATOM     15  C   UNL     1      46.410 -50.814  53.377  0.00  0.00    +0.000 A 
ATOM     16  C   UNL     1      46.876 -48.784  52.362  0.00  0.00    +0.000 A 
ATOM     17  C   UNL     1      46.240 -50.954  51.957  0.00  0.00    +0.000 A 
ATOM     18  C   UNL     1      45.594 -52.028  51.152  0.00  0.00    +0.000 C 
BRANCH  14  19
ATOM     19  O   UNL     1      46.532 -48.889  54.832  0.00  0.00    +0.000 OA
ATOM     20  H   UNL     1      45.594 -48.598  54.880  0.00  0.00    +0.000 HD
ENDBRANCH  14  19
BRANCH  15  21
ATOM     21  O   UNL     1      45.679 -51.514  54.302  0.00  0.00    +0.000 OA
ATOM     22  H   UNL     1      44.787 -51.707  53.955  0.00  0.00    +0.000 HD
ENDBRANCH  15  21
ENDBRANCH   4  16
BRANCH  11  23
ATOM     23  O   UNL     1      48.499 -41.602  50.306  0.00  0.00    +0.000 OA
BRANCH  23  24
ATOM     24  C   UNL     1      48.483 -40.356  50.774  0.00  0.00    +0.000 C 
ATOM     25  C   UNL     1      48.464 -38.921  51.311  0.00  0.00    +0.000 C 
BRANCH  25  26
ATOM     26  C   UNL     1      48.446 -37.486  51.846  0.00  0.00    +0.000 C 
ATOM     27  C   UNL     1      48.424 -36.054  52.387  0.00  0.00    +0.000 C 
ATOM     28  C   UNL     1      48.400 -34.625  52.940  0.00  0.00    +0.000 C 
ENDBRANCH  25  26
ENDBRANCH  23  24
ENDBRANCH  11  23
TORSDOF 6
ENDMDL
MODEL 8
REMARK VINA RESULT:      -7.2      3.226      8.820
REMARK  Name = 60953_Capecitabine.pdbqt.pdb
REMARK  6 active torsions:
REMARK  status: ('A' for Active; 'I' for Inactive)
REMARK    1  A    between atoms: N_4  and  C_16
REMARK    2  A    between atoms: C_11  and  O_23
REMARK    3  A    between atoms: C_14  and  O_19
REMARK    4  A    between atoms: C_15  and  O_21
REMARK    5  A    between atoms: O_23  and  C_24
REMARK    6  A    between atoms: C_25  and  C_26
REMARK                            x       y       z     vdW  Elec       q    Type
REMARK                         _______ _______ _______ _____ _____    ______ ____
ROOT
ATOM      1  F   UNL     1      50.512 -44.602  49.478  0.00  0.00    +0.000 F 
ATOM      2  O   UNL     1      46.947 -40.863  50.896  0.00  0.00    +0.000 OA
ATOM      3  O   UNL     1      46.608 -45.234  52.519  0.00  0.00    +0.000 OA
ATOM      4  N   UNL     1      48.726 -41.480  49.534  0.00  0.00    +0.000 N 
ATOM      5  N   UNL     1      47.601 -43.057  50.951  0.00  0.00    +0.000 NA
ATOM      6  N   UNL     1      48.361 -45.286  50.991  0.00  0.00    +0.000 N 
ATOM      7  C   UNL     1      49.484 -42.530  49.160  0.00  0.00    +0.000 C 
ATOM      8  C   UNL     1      47.703 -41.740  50.483  0.00  0.00    +0.000 C 
ATOM      9  C   UNL     1      49.452 -43.776  49.478  0.00  0.00    +0.000 C 
ATOM     10  C   UNL     1      48.399 -43.989  50.521  0.00  0.00    +0.000 C 
ATOM     11  C   UNL     1      47.516 -45.812  51.943  0.00  0.00    +0.000 C 
ATOM     12  H   UNL     1      49.037 -45.947  50.633  0.00  0.00    +0.000 HD
ENDROOT
BRANCH   4  16
ATOM     13  O   UNL     1      48.459 -39.935  47.690  0.00  0.00    +0.000 OA
ATOM     14  C   UNL     1      49.789 -39.148  49.402  0.00  0.00    +0.000 A 
ATOM     15  C   UNL     1      49.770 -38.167  48.360  0.00  0.00    +0.000 A 
ATOM     16  C   UNL     1      48.985 -40.264  48.959  0.00  0.00    +0.000 A 
ATOM     17  C   UNL     1      48.928 -38.668  47.308  0.00  0.00    +0.000 A 
ATOM     18  C   UNL     1      48.738 -38.203  45.906  0.00  0.00    +0.000 C 
BRANCH  14  19
ATOM     19  O   UNL     1      50.879 -39.238  50.221  0.00  0.00    +0.000 OA
ATOM     20  H   UNL     1      51.249 -38.354  50.445  0.00  0.00    +0.000 HD
ENDBRANCH  14  19
BRANCH  15  21
ATOM     21  O   UNL     1      50.843 -37.343  48.145  0.00  0.00    +0.000 OA
ATOM     22  H   UNL     1      50.545 -36.424  48.010  0.00  0.00    +0.000 HD
ENDBRANCH  15  21
ENDBRANCH   4  16
BRANCH  11  23
ATOM     23  O   UNL     1      47.850 -47.123  52.139  0.00  0.00    +0.000 OA
BRANCH  23  24
ATOM     24  C   UNL     1      48.127 -47.821  51.040  0.00  0.00    +0.000 C 
ATOM     25  C   UNL     1      48.443 -48.625  49.774  0.00  0.00    +0.000 C 
BRANCH  25  26
ATOM     26  C   UNL     1      48.757 -49.429  48.509  0.00  0.00    +0.000 C 
ATOM     27  C   UNL     1      49.076 -50.228  47.243  0.00  0.00    +0.000 C 
ATOM     28  C   UNL     1      49.407 -51.022  45.974  0.00  0.00    +0.000 C 
ENDBRANCH  25  26
ENDBRANCH  23  24
ENDBRANCH  11  23
TORSDOF 6
ENDMDL
MODEL 9
REMARK VINA RESULT:      -7.0      3.066      9.219
REMARK  Name = 60953_Capecitabine.pdbqt.pdb
REMARK  6 active torsions:
REMARK  status: ('A' for Active; 'I' for Inactive)
REMARK    1  A    between atoms: N_4  and  C_16
REMARK    2  A    between atoms: C_11  and  O_23
REMARK    3  A    between atoms: C_14  and  O_19
REMARK    4  A    between atoms: C_15  and  O_21
REMARK    5  A    between atoms: O_23  and  C_24
REMARK    6  A    between atoms: C_25  and  C_26
REMARK                            x       y       z     vdW  Elec       q    Type
REMARK                         _______ _______ _______ _____ _____    ______ ____
ROOT
ATOM      1  F   UNL     1      48.412 -44.942  48.358  0.00  0.00    +0.000 F 
ATOM      2  O   UNL     1      47.379 -41.638  52.446  0.00  0.00    +0.000 OA
ATOM      3  O   UNL     1      46.203 -46.157  52.663  0.00  0.00    +0.000 OA
ATOM      4  N   UNL     1      48.070 -41.897  50.244  0.00  0.00    +0.000 N 
ATOM      5  N   UNL     1      47.158 -43.718  51.514  0.00  0.00    +0.000 NA
ATOM      6  N   UNL     1      47.006 -45.840  50.503  0.00  0.00    +0.000 N 
ATOM      7  C   UNL     1      48.167 -42.795  49.242  0.00  0.00    +0.000 C 
ATOM      8  C   UNL     1      47.521 -42.365  51.465  0.00  0.00    +0.000 C 
ATOM      9  C   UNL     1      47.825 -44.032  49.154  0.00  0.00    +0.000 C 
ATOM     10  C   UNL     1      47.308 -44.494  50.482  0.00  0.00    +0.000 C 
ATOM     11  C   UNL     1      46.511 -46.575  51.557  0.00  0.00    +0.000 C 
ATOM     12  H   UNL     1      47.182 -46.385  49.670  0.00  0.00    +0.000 HD
ENDROOT
BRANCH   4  16
ATOM     13  O   UNL     1      48.911 -39.776  51.052  0.00  0.00    +0.000 OA
ATOM     14  C   UNL     1      48.549 -39.848  48.775  0.00  0.00    +0.000 A 
ATOM     15  C   UNL     1      48.981 -38.528  49.121  0.00  0.00    +0.000 A 
ATOM     16  C   UNL     1      48.483 -40.614  49.998  0.00  0.00    +0.000 A 
ATOM     17  C   UNL     1      49.214 -38.505  50.539  0.00  0.00    +0.000 A 
ATOM     18  C   UNL     1      49.432 -37.366  51.474  0.00  0.00    +0.000 C 
BRANCH  14  19
ATOM     19  O   UNL     1      47.741 -40.027  47.688  0.00  0.00    +0.000 OA
ATOM     20  H   UNL     1      47.659 -40.975  47.440  0.00  0.00    +0.000 HD
ENDBRANCH  14  19
BRANCH  15  21
ATOM     21  O   UNL     1      48.566 -37.438  48.403  0.00  0.00    +0.000 OA
ATOM     22  H   UNL     1      47.676 -37.592  48.032  0.00  0.00    +0.000 HD
ENDBRANCH  15  21
ENDBRANCH   4  16
BRANCH  11  23
ATOM     23  O   UNL     1      46.400 -47.878  51.160  0.00  0.00    +0.000 OA
BRANCH  23  24
ATOM     24  C   UNL     1      46.555 -48.790  52.118  0.00  0.00    +0.000 C 
ATOM     25  C   UNL     1      46.735 -49.837  53.222  0.00  0.00    +0.000 C 
BRANCH  25  26
ATOM     26  C   UNL     1      46.916 -50.883  54.325  0.00  0.00    +0.000 C 
ATOM     27  C   UNL     1      47.102 -51.925  55.432  0.00  0.00    +0.000 C 
ATOM     28  C   UNL     1      47.295 -52.960  56.546  0.00  0.00    +0.000 C 
ENDBRANCH  25  26
ENDBRANCH  23  24
ENDBRANCH  11  23
TORSDOF 6
ENDMDL
