MODEL 1
REMARK VINA RESULT:      -6.5      0.000      0.000
REMARK  Name = 6223_Gliotoxin.pdbqt.pdb
REMARK  3 active torsions:
REMARK  status: ('A' for Active; 'I' for Inactive)
REMARK    1  A    between atoms: C_10  and  C_21
REMARK    2  A    between atoms: C_14  and  O_19
REMARK    3  A    between atoms: C_21  and  O_22
REMARK                            x       y       z     vdW  Elec       q    Type
REMARK                         _______ _______ _______ _____ _____    ______ ____
ROOT
ATOM      1  S   UNL     1      47.710 -45.464  48.193  0.00  0.00    +0.000 S 
ATOM      2  S   UNL     1      46.818 -46.775  49.513  0.00  0.00    +0.000 S 
ATOM      3  O   UNL     1      47.087 -44.494  52.318  0.00  0.00    +0.000 OA
ATOM      4  O   UNL     1      51.027 -46.162  49.261  0.00  0.00    +0.000 OA
ATOM      5  N   UNL     1      48.438 -44.161  50.488  0.00  0.00    +0.000 N 
ATOM      6  N   UNL     1      49.292 -46.728  50.745  0.00  0.00    +0.000 N 
ATOM      7  C   UNL     1      49.025 -44.784  49.261  0.00  0.00    +0.000 C 
ATOM      8  C   UNL     1      48.661 -42.784  50.516  0.00  0.00    +0.000 A 
ATOM      9  C   UNL     1      49.704 -43.641  48.656  0.00  0.00    +0.000 C 
ATOM     10  C   UNL     1      47.843 -46.481  51.046  0.00  0.00    +0.000 C 
ATOM     11  C   UNL     1      49.575 -42.441  49.371  0.00  0.00    +0.000 A 
ATOM     12  C   UNL     1      47.740 -44.959  51.385  0.00  0.00    +0.000 C 
ATOM     13  C   UNL     1      49.917 -45.929  49.745  0.00  0.00    +0.000 C 
ATOM     14  C   UNL     1      47.879 -41.719  51.186  0.00  0.00    +0.000 A 
ATOM     15  C   UNL     1      49.400 -41.236  48.911  0.00  0.00    +0.000 A 
ATOM     16  C   UNL     1      47.977 -40.470  50.481  0.00  0.00    +0.000 A 
ATOM     17  C   UNL     1      49.922 -47.890  51.371  0.00  0.00    +0.000 C 
ATOM     18  C   UNL     1      48.555 -40.093  49.496  0.00  0.00    +0.000 A 
ENDROOT
BRANCH  14  19
ATOM     19  O   UNL     1      46.811 -41.980  51.996  0.00  0.00    +0.000 OA
ATOM     20  H   UNL     1      46.918 -41.621  52.900  0.00  0.00    +0.000 HD
ENDBRANCH  14  19
BRANCH  10  21
ATOM     21  C   UNL     1      47.286 -47.304  52.153  0.00  0.00    +0.000 C 
BRANCH  21  22
ATOM     22  O   UNL     1      46.789 -48.029  53.159  0.00  0.00    +0.000 OA
ATOM     23  H   UNL     1      46.049 -48.589  52.858  0.00  0.00    +0.000 HD
ENDBRANCH  21  22
ENDBRANCH  10  21
TORSDOF 3
ENDMDL
MODEL 2
REMARK VINA RESULT:      -6.3      1.825      2.591
REMARK  Name = 6223_Gliotoxin.pdbqt.pdb
REMARK  3 active torsions:
REMARK  status: ('A' for Active; 'I' for Inactive)
REMARK    1  A    between atoms: C_10  and  C_21
REMARK    2  A    between atoms: C_14  and  O_19
REMARK    3  A    between atoms: C_21  and  O_22
REMARK                            x       y       z     vdW  Elec       q    Type
REMARK                         _______ _______ _______ _____ _____    ______ ____
ROOT
ATOM      1  S   UNL     1      47.454 -43.049  47.521  0.00  0.00    +0.000 S 
ATOM      2  S   UNL     1      47.058 -44.464  48.971  0.00  0.00    +0.000 S 
ATOM      3  O   UNL     1      48.473 -42.459  51.639  0.00  0.00    +0.000 OA
ATOM      4  O   UNL     1      50.890 -43.895  47.197  0.00  0.00    +0.000 OA
ATOM      5  N   UNL     1      49.053 -41.978  49.468  0.00  0.00    +0.000 N 
ATOM      6  N   UNL     1      49.813 -44.570  49.175  0.00  0.00    +0.000 N 
ATOM      7  C   UNL     1      49.105 -42.492  48.064  0.00  0.00    +0.000 C 
ATOM      8  C   UNL     1      49.339 -40.613  49.521  0.00  0.00    +0.000 A 
ATOM      9  C   UNL     1      49.564 -41.308  47.343  0.00  0.00    +0.000 C 
ATOM     10  C   UNL     1      48.597 -44.330  50.020  0.00  0.00    +0.000 C 
ATOM     11  C   UNL     1      49.772 -40.179  48.147  0.00  0.00    +0.000 A 
ATOM     12  C   UNL     1      48.703 -42.846  50.495  0.00  0.00    +0.000 C 
ATOM     13  C   UNL     1      50.057 -43.691  48.081  0.00  0.00    +0.000 C 
ATOM     14  C   UNL     1      48.918 -39.603  50.521  0.00  0.00    +0.000 A 
ATOM     15  C   UNL     1      49.497 -38.933  47.886  0.00  0.00    +0.000 A 
ATOM     16  C   UNL     1      48.807 -38.296  49.934  0.00  0.00    +0.000 A 
ATOM     17  C   UNL     1      50.574 -45.795  49.421  0.00  0.00    +0.000 C 
ATOM     18  C   UNL     1      48.991 -37.837  48.838  0.00  0.00    +0.000 A 
ENDROOT
BRANCH  14  19
ATOM     19  O   UNL     1      48.221 -39.922  51.650  0.00  0.00    +0.000 OA
ATOM     20  H   UNL     1      47.674 -40.728  51.550  0.00  0.00    +0.000 HD
ENDBRANCH  14  19
BRANCH  10  21
ATOM     21  C   UNL     1      48.456 -45.244  51.185  0.00  0.00    +0.000 C 
BRANCH  21  22
ATOM     22  O   UNL     1      48.343 -46.056  52.240  0.00  0.00    +0.000 OA
ATOM     23  H   UNL     1      49.051 -46.727  52.248  0.00  0.00    +0.000 HD
ENDBRANCH  21  22
ENDBRANCH  10  21
TORSDOF 3
ENDMDL
MODEL 3
REMARK VINA RESULT:      -5.7      2.287      5.313
REMARK  Name = 6223_Gliotoxin.pdbqt.pdb
REMARK  3 active torsions:
REMARK  status: ('A' for Active; 'I' for Inactive)
REMARK    1  A    between atoms: C_10  and  C_21
REMARK    2  A    between atoms: C_14  and  O_19
REMARK    3  A    between atoms: C_21  and  O_22
REMARK                            x       y       z     vdW  Elec       q    Type
REMARK                         _______ _______ _______ _____ _____    ______ ____
ROOT
ATOM      1  S   UNL     1      49.364 -45.223  48.843  0.00  0.00    +0.000 S 
ATOM      2  S   UNL     1      49.923 -43.402  49.637  0.00  0.00    +0.000 S 
ATOM      3  O   UNL     1      47.403 -43.506  52.241  0.00  0.00    +0.000 OA
ATOM      4  O   UNL     1      46.565 -43.938  47.069  0.00  0.00    +0.000 OA
ATOM      5  N   UNL     1      47.139 -44.847  50.393  0.00  0.00    +0.000 N 
ATOM      6  N   UNL     1      47.390 -42.631  48.841  0.00  0.00    +0.000 N 
ATOM      7  C   UNL     1      47.549 -45.083  48.974  0.00  0.00    +0.000 C 
ATOM      8  C   UNL     1      46.399 -45.919  50.894  0.00  0.00    +0.000 A 
ATOM      9  C   UNL     1      46.866 -46.341  48.684  0.00  0.00    +0.000 C 
ATOM     10  C   UNL     1      48.255 -42.680  50.066  0.00  0.00    +0.000 C 
ATOM     11  C   UNL     1      46.127 -46.864  49.754  0.00  0.00    +0.000 A 
ATOM     12  C   UNL     1      47.553 -43.686  51.034  0.00  0.00    +0.000 C 
ATOM     13  C   UNL     1      47.083 -43.857  48.184  0.00  0.00    +0.000 C 
ATOM     14  C   UNL     1      46.238 -46.378  52.294  0.00  0.00    +0.000 A 
ATOM     15  C   UNL     1      46.004 -48.104  50.128  0.00  0.00    +0.000 A 
ATOM     16  C   UNL     1      46.009 -47.796  52.360  0.00  0.00    +0.000 A 
ATOM     17  C   UNL     1      47.062 -41.313  48.300  0.00  0.00    +0.000 C 
ATOM     18  C   UNL     1      45.902 -48.678  51.550  0.00  0.00    +0.000 A 
ENDROOT
BRANCH  14  19
ATOM     19  O   UNL     1      46.762 -45.706  53.360  0.00  0.00    +0.000 OA
ATOM     20  H   UNL     1      47.615 -45.271  53.159  0.00  0.00    +0.000 HD
ENDBRANCH  14  19
BRANCH  10  21
ATOM     21  C   UNL     1      48.465 -41.368  50.736  0.00  0.00    +0.000 C 
BRANCH  21  22
ATOM     22  O   UNL     1      48.645 -40.198  51.352  0.00  0.00    +0.000 OA
ATOM     23  H   UNL     1      48.137 -39.487  50.918  0.00  0.00    +0.000 HD
ENDBRANCH  21  22
ENDBRANCH  10  21
TORSDOF 3
ENDMDL
MODEL 4
REMARK VINA RESULT:      -5.7     14.830     16.622
REMARK  Name = 6223_Gliotoxin.pdbqt.pdb
REMARK  3 active torsions:
REMARK  status: ('A' for Active; 'I' for Inactive)
REMARK    1  A    between atoms: C_10  and  C_21
REMARK    2  A    between atoms: C_14  and  O_19
REMARK    3  A    between atoms: C_21  and  O_22
REMARK                            x       y       z     vdW  Elec       q    Type
REMARK                         _______ _______ _______ _____ _____    ______ ____
ROOT
ATOM      1  S   UNL     1      58.467 -48.494  62.273  0.00  0.00    +0.000 S 
ATOM      2  S   UNL     1      58.755 -46.566  61.594  0.00  0.00    +0.000 S 
ATOM      3  O   UNL     1      59.787 -47.640  58.289  0.00  0.00    +0.000 OA
ATOM      4  O   UNL     1      61.914 -49.129  62.861  0.00  0.00    +0.000 OA
ATOM      5  N   UNL     1      59.879 -49.149  60.021  0.00  0.00    +0.000 N 
ATOM      6  N   UNL     1      61.395 -47.362  61.398  0.00  0.00    +0.000 N 
ATOM      7  C   UNL     1      59.905 -49.317  61.507  0.00  0.00    +0.000 C 
ATOM      8  C   UNL     1      59.708 -50.372  59.373  0.00  0.00    +0.000 A 
ATOM      9  C   UNL     1      59.850 -50.772  61.631  0.00  0.00    +0.000 C 
ATOM     10  C   UNL     1      60.294 -46.785  60.559  0.00  0.00    +0.000 C 
ATOM     11  C   UNL     1      59.786 -51.459  60.411  0.00  0.00    +0.000 A 
ATOM     12  C   UNL     1      59.974 -47.872  59.482  0.00  0.00    +0.000 C 
ATOM     13  C   UNL     1      61.188 -48.640  61.994  0.00  0.00    +0.000 C 
ATOM     14  C   UNL     1      59.122 -50.657  58.042  0.00  0.00    +0.000 A 
ATOM     15  C   UNL     1      59.088 -52.515  60.109  0.00  0.00    +0.000 A 
ATOM     16  C   UNL     1      58.512 -51.958  58.003  0.00  0.00    +0.000 A 
ATOM     17  C   UNL     1      62.539 -46.501  61.694  0.00  0.00    +0.000 C 
ATOM     18  C   UNL     1      58.386 -52.862  58.786  0.00  0.00    +0.000 A 
ENDROOT
BRANCH  14  19
ATOM     19  O   UNL     1      58.726 -49.676  57.180  0.00  0.00    +0.000 OA
ATOM     20  H   UNL     1      59.446 -49.367  56.592  0.00  0.00    +0.000 HD
ENDBRANCH  14  19
BRANCH  10  21
ATOM     21  C   UNL     1      60.618 -45.485  59.912  0.00  0.00    +0.000 C 
BRANCH  21  22
ATOM     22  O   UNL     1      60.917 -44.313  59.347  0.00  0.00    +0.000 OA
ATOM     23  H   UNL     1      61.271 -44.434  58.446  0.00  0.00    +0.000 HD
ENDBRANCH  21  22
ENDBRANCH  10  21
TORSDOF 3
ENDMDL
MODEL 5
REMARK VINA RESULT:      -5.5     23.184     25.059
REMARK  Name = 6223_Gliotoxin.pdbqt.pdb
REMARK  3 active torsions:
REMARK  status: ('A' for Active; 'I' for Inactive)
REMARK    1  A    between atoms: C_10  and  C_21
REMARK    2  A    between atoms: C_14  and  O_19
REMARK    3  A    between atoms: C_21  and  O_22
REMARK                            x       y       z     vdW  Elec       q    Type
REMARK                         _______ _______ _______ _____ _____    ______ ____
ROOT
ATOM      1  S   UNL     1      62.926 -22.941  57.408  0.00  0.00    +0.000 S 
ATOM      2  S   UNL     1      62.105 -23.618  55.639  0.00  0.00    +0.000 S 
ATOM      3  O   UNL     1      59.488 -25.493  57.306  0.00  0.00    +0.000 OA
ATOM      4  O   UNL     1      64.662 -25.960  58.115  0.00  0.00    +0.000 OA
ATOM      5  N   UNL     1      61.357 -24.897  58.505  0.00  0.00    +0.000 N 
ATOM      6  N   UNL     1      62.873 -26.095  56.594  0.00  0.00    +0.000 N 
ATOM      7  C   UNL     1      62.782 -24.451  58.423  0.00  0.00    +0.000 C 
ATOM      8  C   UNL     1      60.870 -24.808  59.810  0.00  0.00    +0.000 A 
ATOM      9  C   UNL     1      63.089 -24.212  59.831  0.00  0.00    +0.000 C 
ATOM     10  C   UNL     1      61.654 -25.368  56.110  0.00  0.00    +0.000 C 
ATOM     11  C   UNL     1      62.023 -24.454  60.709  0.00  0.00    +0.000 A 
ATOM     12  C   UNL     1      60.699 -25.282  57.343  0.00  0.00    +0.000 C 
ATOM     13  C   UNL     1      63.549 -25.587  57.741  0.00  0.00    +0.000 C 
ATOM     14  C   UNL     1      59.477 -24.629  60.282  0.00  0.00    +0.000 A 
ATOM     15  C   UNL     1      61.669 -23.777  61.763  0.00  0.00    +0.000 A 
ATOM     16  C   UNL     1      59.433 -23.931  61.538  0.00  0.00    +0.000 A 
ATOM     17  C   UNL     1      63.391 -27.177  55.757  0.00  0.00    +0.000 C 
ATOM     18  C   UNL     1      60.256 -23.481  62.290  0.00  0.00    +0.000 A 
ENDROOT
BRANCH  14  19
ATOM     19  O   UNL     1      58.402 -24.619  59.440  0.00  0.00    +0.000 OA
ATOM     20  H   UNL     1      58.640 -24.398  58.517  0.00  0.00    +0.000 HD
ENDBRANCH  14  19
BRANCH  10  21
ATOM     21  C   UNL     1      60.964 -26.005  54.956  0.00  0.00    +0.000 C 
BRANCH  21  22
ATOM     22  O   UNL     1      60.333 -26.584  53.932  0.00  0.00    +0.000 OA
ATOM     23  H   UNL     1      60.468 -27.551  53.933  0.00  0.00    +0.000 HD
ENDBRANCH  21  22
ENDBRANCH  10  21
TORSDOF 3
ENDMDL
MODEL 6
REMARK VINA RESULT:      -5.5     20.989     22.181
REMARK  Name = 6223_Gliotoxin.pdbqt.pdb
REMARK  3 active torsions:
REMARK  status: ('A' for Active; 'I' for Inactive)
REMARK    1  A    between atoms: C_10  and  C_21
REMARK    2  A    between atoms: C_14  and  O_19
REMARK    3  A    between atoms: C_21  and  O_22
REMARK                            x       y       z     vdW  Elec       q    Type
REMARK                         _______ _______ _______ _____ _____    ______ ____
ROOT
ATOM      1  S   UNL     1      33.742 -25.710  55.626  0.00  0.00    +0.000 S 
ATOM      2  S   UNL     1      32.820 -26.679  57.198  0.00  0.00    +0.000 S 
ATOM      3  O   UNL     1      35.542 -29.032  57.643  0.00  0.00    +0.000 OA
ATOM      4  O   UNL     1      32.867 -28.157  53.202  0.00  0.00    +0.000 OA
ATOM      5  N   UNL     1      35.359 -27.919  55.640  0.00  0.00    +0.000 N 
ATOM      6  N   UNL     1      32.803 -28.825  55.456  0.00  0.00    +0.000 N 
ATOM      7  C   UNL     1      34.449 -27.142  54.742  0.00  0.00    +0.000 C 
ATOM      8  C   UNL     1      36.680 -27.871  55.193  0.00  0.00    +0.000 A 
ATOM      9  C   UNL     1      35.368 -26.746  53.678  0.00  0.00    +0.000 C 
ATOM     10  C   UNL     1      33.275 -28.453  56.831  0.00  0.00    +0.000 C 
ATOM     11  C   UNL     1      36.688 -27.186  53.853  0.00  0.00    +0.000 A 
ATOM     12  C   UNL     1      34.834 -28.527  56.774  0.00  0.00    +0.000 C 
ATOM     13  C   UNL     1      33.319 -28.094  54.347  0.00  0.00    +0.000 C 
ATOM     14  C   UNL     1      37.938 -28.011  55.963  0.00  0.00    +0.000 A 
ATOM     15  C   UNL     1      37.796 -26.552  53.601  0.00  0.00    +0.000 A 
ATOM     16  C   UNL     1      39.010 -27.267  55.360  0.00  0.00    +0.000 A 
ATOM     17  C   UNL     1      31.715 -29.797  55.356  0.00  0.00    +0.000 C 
ATOM     18  C   UNL     1      39.122 -26.580  54.379  0.00  0.00    +0.000 A 
ENDROOT
BRANCH  14  19
ATOM     19  O   UNL     1      37.965 -28.319  57.292  0.00  0.00    +0.000 OA
ATOM     20  H   UNL     1      38.230 -29.244  57.468  0.00  0.00    +0.000 HD
ENDBRANCH  14  19
BRANCH  10  21
ATOM     21  C   UNL     1      32.748 -29.312  57.925  0.00  0.00    +0.000 C 
BRANCH  21  22
ATOM     22  O   UNL     1      32.275 -30.069  58.919  0.00  0.00    +0.000 OA
ATOM     23  H   UNL     1      32.825 -29.984  59.721  0.00  0.00    +0.000 HD
ENDBRANCH  21  22
ENDBRANCH  10  21
TORSDOF 3
ENDMDL
MODEL 7
REMARK VINA RESULT:      -5.5     14.829     15.757
REMARK  Name = 6223_Gliotoxin.pdbqt.pdb
REMARK  3 active torsions:
REMARK  status: ('A' for Active; 'I' for Inactive)
REMARK    1  A    between atoms: C_10  and  C_21
REMARK    2  A    between atoms: C_14  and  O_19
REMARK    3  A    between atoms: C_21  and  O_22
REMARK                            x       y       z     vdW  Elec       q    Type
REMARK                         _______ _______ _______ _____ _____    ______ ____
ROOT
ATOM      1  S   UNL     1      60.885 -50.847  61.646  0.00  0.00    +0.000 S 
ATOM      2  S   UNL     1      60.328 -52.238  60.225  0.00  0.00    +0.000 S 
ATOM      3  O   UNL     1      58.810 -49.758  58.061  0.00  0.00    +0.000 OA
ATOM      4  O   UNL     1      57.660 -50.608  63.120  0.00  0.00    +0.000 OA
ATOM      5  N   UNL     1      59.149 -49.235  60.273  0.00  0.00    +0.000 N 
ATOM      6  N   UNL     1      57.768 -51.479  60.938  0.00  0.00    +0.000 N 
ATOM      7  C   UNL     1      59.403 -49.781  61.643  0.00  0.00    +0.000 C 
ATOM      8  C   UNL     1      59.298 -47.848  60.243  0.00  0.00    +0.000 A 
ATOM      9  C   UNL     1      59.595 -48.552  62.409  0.00  0.00    +0.000 C 
ATOM     10  C   UNL     1      58.652 -51.581  59.730  0.00  0.00    +0.000 C 
ATOM     11  C   UNL     1      59.494 -47.374  61.657  0.00  0.00    +0.000 A 
ATOM     12  C   UNL     1      58.859 -50.113  59.237  0.00  0.00    +0.000 C 
ATOM     13  C   UNL     1      58.179 -50.625  62.002  0.00  0.00    +0.000 C 
ATOM     14  C   UNL     1      59.658 -46.966  59.107  0.00  0.00    +0.000 A 
ATOM     15  C   UNL     1      60.208 -46.289  61.746  0.00  0.00    +0.000 A 
ATOM     16  C   UNL     1      60.352 -45.789  59.554  0.00  0.00    +0.000 A 
ATOM     17  C   UNL     1      56.630 -52.394  61.021  0.00  0.00    +0.000 C 
ATOM     18  C   UNL     1      60.687 -45.355  60.624  0.00  0.00    +0.000 A 
ENDROOT
BRANCH  14  19
ATOM     19  O   UNL     1      59.813 -47.425  57.831  0.00  0.00    +0.000 OA
ATOM     20  H   UNL     1      60.639 -47.113  57.408  0.00  0.00    +0.000 HD
ENDBRANCH  14  19
BRANCH  10  21
ATOM     21  C   UNL     1      58.115 -52.432  58.634  0.00  0.00    +0.000 C 
BRANCH  21  22
ATOM     22  O   UNL     1      57.651 -53.198  57.644  0.00  0.00    +0.000 OA
ATOM     23  H   UNL     1      57.054 -52.696  57.058  0.00  0.00    +0.000 HD
ENDBRANCH  21  22
ENDBRANCH  10  21
TORSDOF 3
ENDMDL
MODEL 8
REMARK VINA RESULT:      -5.4     10.273     13.682
REMARK  Name = 6223_Gliotoxin.pdbqt.pdb
REMARK  3 active torsions:
REMARK  status: ('A' for Active; 'I' for Inactive)
REMARK    1  A    between atoms: C_10  and  C_21
REMARK    2  A    between atoms: C_14  and  O_19
REMARK    3  A    between atoms: C_21  and  O_22
REMARK                            x       y       z     vdW  Elec       q    Type
REMARK                         _______ _______ _______ _____ _____    ______ ____
ROOT
ATOM      1  S   UNL     1      45.727 -56.363  55.105  0.00  0.00    +0.000 S 
ATOM      2  S   UNL     1      47.638 -55.842  55.684  0.00  0.00    +0.000 S 
ATOM      3  O   UNL     1      46.604 -54.859  59.018  0.00  0.00    +0.000 OA
ATOM      4  O   UNL     1      44.673 -53.026  54.484  0.00  0.00    +0.000 OA
ATOM      5  N   UNL     1      45.018 -54.981  57.359  0.00  0.00    +0.000 N 
ATOM      6  N   UNL     1      46.553 -53.306  55.870  0.00  0.00    +0.000 N 
ATOM      7  C   UNL     1      44.779 -55.011  55.882  0.00  0.00    +0.000 C 
ATOM      8  C   UNL     1      43.852 -55.274  58.069  0.00  0.00    +0.000 A 
ATOM      9  C   UNL     1      43.337 -55.234  55.830  0.00  0.00    +0.000 C 
ATOM     10  C   UNL     1      47.291 -54.314  56.701  0.00  0.00    +0.000 C 
ATOM     11  C   UNL     1      42.718 -55.346  57.083  0.00  0.00    +0.000 A 
ATOM     12  C   UNL     1      46.299 -54.729  57.834  0.00  0.00    +0.000 C 
ATOM     13  C   UNL     1      45.282 -53.671  55.340  0.00  0.00    +0.000 C 
ATOM     14  C   UNL     1      43.698 -55.858  59.422  0.00  0.00    +0.000 A 
ATOM     15  C   UNL     1      41.764 -56.152  57.449  0.00  0.00    +0.000 A 
ATOM     16  C   UNL     1      42.479 -56.610  59.536  0.00  0.00    +0.000 A 
ATOM     17  C   UNL     1      47.263 -52.078  55.511  0.00  0.00    +0.000 C 
ATOM     18  C   UNL     1      41.560 -56.857  58.800  0.00  0.00    +0.000 A 
ENDROOT
BRANCH  14  19
ATOM     19  O   UNL     1      44.757 -56.118  60.244  0.00  0.00    +0.000 OA
ATOM     20  H   UNL     1      44.675 -55.696  61.123  0.00  0.00    +0.000 HD
ENDBRANCH  14  19
BRANCH  10  21
ATOM     21  C   UNL     1      48.573 -53.829  57.278  0.00  0.00    +0.000 C 
BRANCH  21  22
ATOM     22  O   UNL     1      49.733 -53.409  57.791  0.00  0.00    +0.000 OA
ATOM     23  H   UNL     1      50.082 -54.046  58.442  0.00  0.00    +0.000 HD
ENDBRANCH  21  22
ENDBRANCH  10  21
TORSDOF 3
ENDMDL
MODEL 9
REMARK VINA RESULT:      -5.4     15.111     16.135
REMARK  Name = 6223_Gliotoxin.pdbqt.pdb
REMARK  3 active torsions:
REMARK  status: ('A' for Active; 'I' for Inactive)
REMARK    1  A    between atoms: C_10  and  C_21
REMARK    2  A    between atoms: C_14  and  O_19
REMARK    3  A    between atoms: C_21  and  O_22
REMARK                            x       y       z     vdW  Elec       q    Type
REMARK                         _______ _______ _______ _____ _____    ______ ____
ROOT
ATOM      1  S   UNL     1      61.470 -49.796  61.380  0.00  0.00    +0.000 S 
ATOM      2  S   UNL     1      60.534 -48.328  62.488  0.00  0.00    +0.000 S 
ATOM      3  O   UNL     1      57.252 -49.091  61.150  0.00  0.00    +0.000 OA
ATOM      4  O   UNL     1      61.555 -47.903  58.373  0.00  0.00    +0.000 OA
ATOM      5  N   UNL     1      59.109 -49.799  59.995  0.00  0.00    +0.000 N 
ATOM      6  N   UNL     1      60.002 -47.232  60.007  0.00  0.00    +0.000 N 
ATOM      7  C   UNL     1      60.580 -49.615  59.797  0.00  0.00    +0.000 C 
ATOM      8  C   UNL     1      58.644 -50.934  59.331  0.00  0.00    +0.000 A 
ATOM      9  C   UNL     1      60.880 -50.693  58.858  0.00  0.00    +0.000 C 
ATOM     10  C   UNL     1      59.293 -47.691  61.247  0.00  0.00    +0.000 C 
ATOM     11  C   UNL     1      59.775 -51.478  58.499  0.00  0.00    +0.000 A 
ATOM     12  C   UNL     1      58.417 -48.906  60.804  0.00  0.00    +0.000 C 
ATOM     13  C   UNL     1      60.768 -48.187  59.278  0.00  0.00    +0.000 C 
ATOM     14  C   UNL     1      57.470 -51.786  59.634  0.00  0.00    +0.000 A 
ATOM     15  C   UNL     1      59.716 -52.766  58.323  0.00  0.00    +0.000 A 
ATOM     16  C   UNL     1      57.682 -53.145  59.216  0.00  0.00    +0.000 A 
ATOM     17  C   UNL     1      60.004 -45.798  59.722  0.00  0.00    +0.000 C 
ATOM     18  C   UNL     1      58.575 -53.736  58.669  0.00  0.00    +0.000 A 
ENDROOT
BRANCH  14  19
ATOM     19  O   UNL     1      56.575 -51.492  60.623  0.00  0.00    +0.000 OA
ATOM     20  H   UNL     1      56.728 -50.617  61.032  0.00  0.00    +0.000 HD
ENDBRANCH  14  19
BRANCH  10  21
ATOM     21  C   UNL     1      58.455 -46.653  61.906  0.00  0.00    +0.000 C 
BRANCH  21  22
ATOM     22  O   UNL     1      57.687 -45.730  62.491  0.00  0.00    +0.000 OA
ATOM     23  H   UNL     1      57.299 -45.123  61.832  0.00  0.00    +0.000 HD
ENDBRANCH  21  22
ENDBRANCH  10  21
TORSDOF 3
ENDMDL
