MODEL 1
REMARK VINA RESULT:      -6.9      0.000      0.000
REMARK  Name = 6256_Trifluridine.pdbqt.pdb
REMARK  5 active torsions:
REMARK  status: ('A' for Active; 'I' for Inactive)
REMARK    1  A    between atoms: N_3  and  C1*_11
REMARK    2  A    between atoms: C_7  and  C_23
REMARK    3  A    between atoms: C3*_12  and  O3*_15
REMARK    4  A    between atoms: C4*_14  and  C5*_17
REMARK    5  A    between atoms: C5*_17  and  O5*_18
REMARK                            x       y       z     vdW  Elec       q    Type
REMARK                         _______ _______ _______ _____ _____    ______ ____
ROOT
ATOM      1  O   UNL     1      49.512 -40.137  48.038  0.00  0.00    +0.000 OA
ATOM      2  O   UNL     1      48.954 -44.551  49.167  0.00  0.00    +0.000 OA
ATOM      3  N   UNL     1      48.643 -40.637  50.184  0.00  0.00    +0.000 N 
ATOM      4  N   UNL     1      49.217 -42.327  48.664  0.00  0.00    +0.000 N 
ATOM      5  C   UNL     1      48.308 -41.685  50.962  0.00  0.00    +0.000 A 
ATOM      6  C   UNL     1      49.152 -40.932  48.899  0.00  0.00    +0.000 A 
ATOM      7  C   UNL     1      48.327 -42.972  50.837  0.00  0.00    +0.000 A 
ATOM      8  C   UNL     1      48.850 -43.381  49.509  0.00  0.00    +0.000 A 
ATOM      9  H   UNL     1      49.573 -42.591  47.756  0.00  0.00    +0.000 HD
ENDROOT
BRANCH   3  11
ATOM     10  O4* UNL     1      47.213 -38.766  50.734  0.00  0.00    +0.000 OA
ATOM     11  C1* UNL     1      48.473 -39.371  50.666  0.00  0.00    +0.000 A 
ATOM     12  C3* UNL     1      48.813 -37.280  51.508  0.00  0.00    +0.000 A 
ATOM     13  C2* UNL     1      49.455 -38.471  51.125  0.00  0.00    +0.000 A 
ATOM     14  C4* UNL     1      47.408 -37.478  51.250  0.00  0.00    +0.000 A 
BRANCH  12  15
ATOM     15  O3* UNL     1      49.377 -36.040  51.414  0.00  0.00    +0.000 OA
ATOM     16  H3* UNL     1      49.165 -35.500  52.195  0.00  0.00    +0.000 HD
ENDBRANCH  12  15
BRANCH  14  17
ATOM     17  C5* UNL     1      46.387 -36.508  51.269  0.00  0.00    +0.000 C 
BRANCH  17  18
ATOM     18  O5* UNL     1      45.423 -35.592  51.282  0.00  0.00    +0.000 OA
ATOM     19  H5* UNL     1      44.551 -36.022  51.296  0.00  0.00    +0.000 HD
ENDBRANCH  17  18
ENDBRANCH  14  17
ENDBRANCH   3  11
BRANCH   7  23
ATOM     20  F   UNL     1      46.607 -44.385  51.593  0.00  0.00    +0.000 F 
ATOM     21  F   UNL     1      48.637 -45.156  51.626  0.00  0.00    +0.000 F 
ATOM     22  F   UNL     1      48.042 -43.647  53.070  0.00  0.00    +0.000 F 
ATOM     23  C   UNL     1      47.901 -44.019  51.774  0.00  0.00    +0.000 C 
ENDBRANCH   7  23
TORSDOF 5
ENDMDL
MODEL 2
REMARK VINA RESULT:      -6.6      2.482      3.014
REMARK  Name = 6256_Trifluridine.pdbqt.pdb
REMARK  5 active torsions:
REMARK  status: ('A' for Active; 'I' for Inactive)
REMARK    1  A    between atoms: N_3  and  C1*_11
REMARK    2  A    between atoms: C_7  and  C_23
REMARK    3  A    between atoms: C3*_12  and  O3*_15
REMARK    4  A    between atoms: C4*_14  and  C5*_17
REMARK    5  A    between atoms: C5*_17  and  O5*_18
REMARK                            x       y       z     vdW  Elec       q    Type
REMARK                         _______ _______ _______ _____ _____    ______ ____
ROOT
ATOM      1  O   UNL     1      47.511 -41.708  52.402  0.00  0.00    +0.000 OA
ATOM      2  O   UNL     1      48.783 -45.019  49.489  0.00  0.00    +0.000 OA
ATOM      3  N   UNL     1      48.374 -41.065  50.292  0.00  0.00    +0.000 N 
ATOM      4  N   UNL     1      48.158 -43.319  50.899  0.00  0.00    +0.000 N 
ATOM      5  C   UNL     1      48.858 -41.594  49.151  0.00  0.00    +0.000 A 
ATOM      6  C   UNL     1      47.972 -41.973  51.297  0.00  0.00    +0.000 A 
ATOM      7  C   UNL     1      49.066 -42.788  48.702  0.00  0.00    +0.000 A 
ATOM      8  C   UNL     1      48.671 -43.819  49.695  0.00  0.00    +0.000 A 
ATOM      9  H   UNL     1      47.887 -44.010  51.584  0.00  0.00    +0.000 HD
ENDROOT
BRANCH   3  11
ATOM     10  O4* UNL     1      47.176 -39.065  50.935  0.00  0.00    +0.000 OA
ATOM     11  C1* UNL     1      48.306 -39.707  50.418  0.00  0.00    +0.000 A 
ATOM     12  C3* UNL     1      48.753 -37.473  50.353  0.00  0.00    +0.000 A 
ATOM     13  C2* UNL     1      49.269 -38.746  50.051  0.00  0.00    +0.000 A 
ATOM     14  C4* UNL     1      47.437 -37.689  50.899  0.00  0.00    +0.000 A 
BRANCH  12  15
ATOM     15  O3* UNL     1      49.044 -36.340  49.646  0.00  0.00    +0.000 OA
ATOM     16  H3* UNL     1      49.603 -35.738  50.167  0.00  0.00    +0.000 HD
ENDBRANCH  12  15
BRANCH  14  17
ATOM     17  C5* UNL     1      46.444 -36.723  51.155  0.00  0.00    +0.000 C 
BRANCH  17  18
ATOM     18  O5* UNL     1      45.508 -35.810  51.399  0.00  0.00    +0.000 OA
ATOM     19  H5* UNL     1      44.692 -36.029  50.917  0.00  0.00    +0.000 HD
ENDBRANCH  17  18
ENDBRANCH  14  17
ENDBRANCH   3  11
BRANCH   7  23
ATOM     20  F   UNL     1      48.796 -44.054  46.740  0.00  0.00    +0.000 F 
ATOM     21  F   UNL     1      49.887 -42.182  46.594  0.00  0.00    +0.000 F 
ATOM     22  F   UNL     1      50.812 -43.884  47.573  0.00  0.00    +0.000 F 
ATOM     23  C   UNL     1      49.633 -43.232  47.422  0.00  0.00    +0.000 C 
ENDBRANCH   7  23
TORSDOF 5
ENDMDL
MODEL 3
REMARK VINA RESULT:      -6.6      3.378      6.367
REMARK  Name = 6256_Trifluridine.pdbqt.pdb
REMARK  5 active torsions:
REMARK  status: ('A' for Active; 'I' for Inactive)
REMARK    1  A    between atoms: N_3  and  C1*_11
REMARK    2  A    between atoms: C_7  and  C_23
REMARK    3  A    between atoms: C3*_12  and  O3*_15
REMARK    4  A    between atoms: C4*_14  and  C5*_17
REMARK    5  A    between atoms: C5*_17  and  O5*_18
REMARK                            x       y       z     vdW  Elec       q    Type
REMARK                         _______ _______ _______ _____ _____    ______ ____
ROOT
ATOM      1  O   UNL     1      48.731 -40.369  47.566  0.00  0.00    +0.000 OA
ATOM      2  O   UNL     1      48.707 -35.982  48.912  0.00  0.00    +0.000 OA
ATOM      3  N   UNL     1      48.505 -39.916  49.879  0.00  0.00    +0.000 N 
ATOM      4  N   UNL     1      48.705 -38.194  48.300  0.00  0.00    +0.000 N 
ATOM      5  C   UNL     1      48.443 -38.884  50.744  0.00  0.00    +0.000 A 
ATOM      6  C   UNL     1      48.652 -39.593  48.511  0.00  0.00    +0.000 A 
ATOM      7  C   UNL     1      48.485 -37.596  50.650  0.00  0.00    +0.000 A 
ATOM      8  C   UNL     1      48.639 -37.158  49.239  0.00  0.00    +0.000 A 
ATOM      9  H   UNL     1      48.811 -37.911  47.336  0.00  0.00    +0.000 HD
ENDROOT
BRANCH   3  11
ATOM     10  O4* UNL     1      49.141 -42.247  49.777  0.00  0.00    +0.000 OA
ATOM     11  C1* UNL     1      48.431 -41.192  50.360  0.00  0.00    +0.000 A 
ATOM     12  C3* UNL     1      47.893 -43.058  51.551  0.00  0.00    +0.000 A 
ATOM     13  C2* UNL     1      47.660 -41.677  51.434  0.00  0.00    +0.000 A 
ATOM     14  C4* UNL     1      48.818 -43.402  50.500  0.00  0.00    +0.000 A 
BRANCH  12  15
ATOM     15  O3* UNL     1      46.965 -43.958  51.993  0.00  0.00    +0.000 OA
ATOM     16  H3* UNL     1      47.148 -44.848  51.645  0.00  0.00    +0.000 HD
ENDBRANCH  12  15
BRANCH  14  17
ATOM     17  C5* UNL     1      49.191 -44.692  50.072  0.00  0.00    +0.000 C 
BRANCH  17  18
ATOM     18  O5* UNL     1      49.539 -45.909  49.667  0.00  0.00    +0.000 OA
ATOM     19  H5* UNL     1      50.126 -45.851  48.893  0.00  0.00    +0.000 HD
ENDBRANCH  17  18
ENDBRANCH  14  17
ENDBRANCH   3  11
BRANCH   7  23
ATOM     20  F   UNL     1      47.438 -35.665  51.489  0.00  0.00    +0.000 F 
ATOM     21  F   UNL     1      48.189 -37.113  52.924  0.00  0.00    +0.000 F 
ATOM     22  F   UNL     1      49.591 -35.880  51.815  0.00  0.00    +0.000 F 
ATOM     23  C   UNL     1      48.429 -36.569  51.698  0.00  0.00    +0.000 C 
ENDBRANCH   7  23
TORSDOF 5
ENDMDL
MODEL 4
REMARK VINA RESULT:      -6.6      7.010      8.409
REMARK  Name = 6256_Trifluridine.pdbqt.pdb
REMARK  5 active torsions:
REMARK  status: ('A' for Active; 'I' for Inactive)
REMARK    1  A    between atoms: N_3  and  C1*_11
REMARK    2  A    between atoms: C_7  and  C_23
REMARK    3  A    between atoms: C3*_12  and  O3*_15
REMARK    4  A    between atoms: C4*_14  and  C5*_17
REMARK    5  A    between atoms: C5*_17  and  O5*_18
REMARK                            x       y       z     vdW  Elec       q    Type
REMARK                         _______ _______ _______ _____ _____    ______ ____
ROOT
ATOM      1  O   UNL     1      47.815 -37.445  45.622  0.00  0.00    +0.000 OA
ATOM      2  O   UNL     1      49.025 -33.364  43.907  0.00  0.00    +0.000 OA
ATOM      3  N   UNL     1      49.128 -36.013  46.977  0.00  0.00    +0.000 N 
ATOM      4  N   UNL     1      48.446 -35.387  44.822  0.00  0.00    +0.000 N 
ATOM      5  C   UNL     1      49.712 -34.799  46.960  0.00  0.00    +0.000 A 
ATOM      6  C   UNL     1      48.413 -36.393  45.818  0.00  0.00    +0.000 A 
ATOM      7  C   UNL     1      49.800 -33.827  46.112  0.00  0.00    +0.000 A 
ATOM      8  C   UNL     1      49.074 -34.136  44.854  0.00  0.00    +0.000 A 
ATOM      9  H   UNL     1      47.950 -35.611  43.972  0.00  0.00    +0.000 HD
ENDROOT
BRANCH   3  11
ATOM     10  O4* UNL     1      48.702 -36.443  49.318  0.00  0.00    +0.000 OA
ATOM     11  C1* UNL     1      49.259 -36.799  48.086  0.00  0.00    +0.000 A 
ATOM     12  C3* UNL     1      49.830 -38.452  49.546  0.00  0.00    +0.000 A 
ATOM     13  C2* UNL     1      49.957 -38.016  48.216  0.00  0.00    +0.000 A 
ATOM     14  C4* UNL     1      49.046 -37.452  50.227  0.00  0.00    +0.000 A 
BRANCH  12  15
ATOM     15  O3* UNL     1      50.781 -39.174  50.211  0.00  0.00    +0.000 OA
ATOM     16  H3* UNL     1      51.441 -38.587  50.619  0.00  0.00    +0.000 HD
ENDBRANCH  12  15
BRANCH  14  17
ATOM     17  C5* UNL     1      48.827 -37.329  51.613  0.00  0.00    +0.000 C 
BRANCH  17  18
ATOM     18  O5* UNL     1      48.616 -37.215  52.921  0.00  0.00    +0.000 OA
ATOM     19  H5* UNL     1      48.480 -38.092  53.317  0.00  0.00    +0.000 HD
ENDBRANCH  17  18
ENDBRANCH  14  17
ENDBRANCH   3  11
BRANCH   7  23
ATOM     20  F   UNL     1      49.657 -31.482  46.182  0.00  0.00    +0.000 F 
ATOM     21  F   UNL     1      51.191 -32.438  47.386  0.00  0.00    +0.000 F 
ATOM     22  F   UNL     1      51.416 -32.367  45.228  0.00  0.00    +0.000 F 
ATOM     23  C   UNL     1      50.503 -32.542  46.215  0.00  0.00    +0.000 C 
ENDBRANCH   7  23
TORSDOF 5
ENDMDL
MODEL 5
REMARK VINA RESULT:      -6.5      3.696      7.134
REMARK  Name = 6256_Trifluridine.pdbqt.pdb
REMARK  5 active torsions:
REMARK  status: ('A' for Active; 'I' for Inactive)
REMARK    1  A    between atoms: N_3  and  C1*_11
REMARK    2  A    between atoms: C_7  and  C_23
REMARK    3  A    between atoms: C3*_12  and  O3*_15
REMARK    4  A    between atoms: C4*_14  and  C5*_17
REMARK    5  A    between atoms: C5*_17  and  O5*_18
REMARK                            x       y       z     vdW  Elec       q    Type
REMARK                         _______ _______ _______ _____ _____    ______ ____
ROOT
ATOM      1  O   UNL     1      48.916 -45.939  50.743  0.00  0.00    +0.000 OA
ATOM      2  O   UNL     1      46.812 -42.060  52.005  0.00  0.00    +0.000 OA
ATOM      3  N   UNL     1      49.564 -43.923  49.681  0.00  0.00    +0.000 N 
ATOM      4  N   UNL     1      47.905 -43.964  51.337  0.00  0.00    +0.000 N 
ATOM      5  C   UNL     1      49.288 -42.604  49.676  0.00  0.00    +0.000 A 
ATOM      6  C   UNL     1      48.827 -44.727  50.580  0.00  0.00    +0.000 A 
ATOM      7  C   UNL     1      48.475 -41.828  50.316  0.00  0.00    +0.000 A 
ATOM      8  C   UNL     1      47.653 -42.588  51.291  0.00  0.00    +0.000 A 
ATOM      9  H   UNL     1      47.351 -44.494  51.995  0.00  0.00    +0.000 HD
ENDROOT
BRANCH   3  11
ATOM     10  O4* UNL     1      51.695 -45.000  49.293  0.00  0.00    +0.000 OA
ATOM     11  C1* UNL     1      50.517 -44.406  48.830  0.00  0.00    +0.000 A 
ATOM     12  C3* UNL     1      51.718 -44.975  46.978  0.00  0.00    +0.000 A 
ATOM     13  C2* UNL     1      50.525 -44.376  47.421  0.00  0.00    +0.000 A 
ATOM     14  C4* UNL     1      52.444 -45.354  48.164  0.00  0.00    +0.000 A 
BRANCH  12  15
ATOM     15  O3* UNL     1      52.375 -44.621  45.834  0.00  0.00    +0.000 OA
ATOM     16  H3* UNL     1      53.051 -43.945  46.015  0.00  0.00    +0.000 HD
ENDBRANCH  12  15
BRANCH  14  17
ATOM     17  C5* UNL     1      53.780 -45.794  48.249  0.00  0.00    +0.000 C 
BRANCH  17  18
ATOM     18  O5* UNL     1      55.040 -46.210  48.333  0.00  0.00    +0.000 OA
ATOM     19  H5* UNL     1      55.258 -46.776  47.572  0.00  0.00    +0.000 HD
ENDBRANCH  17  18
ENDBRANCH  14  17
ENDBRANCH   3  11
BRANCH   7  23
ATOM     20  F   UNL     1      48.658 -39.699  51.295  0.00  0.00    +0.000 F 
ATOM     21  F   UNL     1      48.953 -39.854  49.149  0.00  0.00    +0.000 F 
ATOM     22  F   UNL     1      46.956 -40.069  49.972  0.00  0.00    +0.000 F 
ATOM     23  C   UNL     1      48.256 -40.381  50.193  0.00  0.00    +0.000 C 
ENDBRANCH   7  23
TORSDOF 5
ENDMDL
MODEL 6
REMARK VINA RESULT:      -6.3      3.375      6.134
REMARK  Name = 6256_Trifluridine.pdbqt.pdb
REMARK  5 active torsions:
REMARK  status: ('A' for Active; 'I' for Inactive)
REMARK    1  A    between atoms: N_3  and  C1*_11
REMARK    2  A    between atoms: C_7  and  C_23
REMARK    3  A    between atoms: C3*_12  and  O3*_15
REMARK    4  A    between atoms: C4*_14  and  C5*_17
REMARK    5  A    between atoms: C5*_17  and  O5*_18
REMARK                            x       y       z     vdW  Elec       q    Type
REMARK                         _______ _______ _______ _____ _____    ______ ____
ROOT
ATOM      1  O   UNL     1      50.019 -41.074  46.944  0.00  0.00    +0.000 OA
ATOM      2  O   UNL     1      49.474 -36.668  48.109  0.00  0.00    +0.000 OA
ATOM      3  N   UNL     1      49.109 -40.590  49.076  0.00  0.00    +0.000 N 
ATOM      4  N   UNL     1      49.716 -38.889  47.581  0.00  0.00    +0.000 N 
ATOM      5  C   UNL     1      48.766 -39.548  49.858  0.00  0.00    +0.000 A 
ATOM      6  C   UNL     1      49.643 -40.286  47.803  0.00  0.00    +0.000 A 
ATOM      7  C   UNL     1      48.798 -38.260  49.747  0.00  0.00    +0.000 A 
ATOM      8  C   UNL     1      49.347 -37.841  48.432  0.00  0.00    +0.000 A 
ATOM      9  H   UNL     1      50.093 -38.618  46.684  0.00  0.00    +0.000 HD
ENDROOT
BRANCH   3  11
ATOM     10  O4* UNL     1      48.386 -42.115  50.809  0.00  0.00    +0.000 OA
ATOM     11  C1* UNL     1      48.934 -41.860  49.547  0.00  0.00    +0.000 A 
ATOM     12  C3* UNL     1      48.921 -44.126  49.792  0.00  0.00    +0.000 A 
ATOM     13  C2* UNL     1      49.272 -43.077  48.924  0.00  0.00    +0.000 A 
ATOM     14  C4* UNL     1      48.374 -43.507  50.973  0.00  0.00    +0.000 A 
BRANCH  12  15
ATOM     15  O3* UNL     1      49.589 -45.316  49.867  0.00  0.00    +0.000 OA
ATOM     16  H3* UNL     1      50.138 -45.358  50.669  0.00  0.00    +0.000 HD
ENDBRANCH  12  15
BRANCH  14  17
ATOM     17  C5* UNL     1      48.077 -44.120  52.205  0.00  0.00    +0.000 C 
BRANCH  17  18
ATOM     18  O5* UNL     1      47.795 -44.696  53.370  0.00  0.00    +0.000 OA
ATOM     19  H5* UNL     1      48.616 -44.951  53.826  0.00  0.00    +0.000 HD
ENDBRANCH  17  18
ENDBRANCH  14  17
ENDBRANCH   3  11
BRANCH   7  23
ATOM     20  F   UNL     1      47.867 -37.731  51.840  0.00  0.00    +0.000 F 
ATOM     21  F   UNL     1      49.473 -36.470  51.100  0.00  0.00    +0.000 F 
ATOM     22  F   UNL     1      47.508 -36.345  50.186  0.00  0.00    +0.000 F 
ATOM     23  C   UNL     1      48.406 -37.218  50.705  0.00  0.00    +0.000 C 
ENDBRANCH   7  23
TORSDOF 5
ENDMDL
MODEL 7
REMARK VINA RESULT:      -6.3      3.513      6.597
REMARK  Name = 6256_Trifluridine.pdbqt.pdb
REMARK  5 active torsions:
REMARK  status: ('A' for Active; 'I' for Inactive)
REMARK    1  A    between atoms: N_3  and  C1*_11
REMARK    2  A    between atoms: C_7  and  C_23
REMARK    3  A    between atoms: C3*_12  and  O3*_15
REMARK    4  A    between atoms: C4*_14  and  C5*_17
REMARK    5  A    between atoms: C5*_17  and  O5*_18
REMARK                            x       y       z     vdW  Elec       q    Type
REMARK                         _______ _______ _______ _____ _____    ______ ____
ROOT
ATOM      1  O   UNL     1      49.837 -41.389  48.594  0.00  0.00    +0.000 OA
ATOM      2  O   UNL     1      46.816 -42.256  51.938  0.00  0.00    +0.000 OA
ATOM      3  N   UNL     1      49.670 -43.612  49.395  0.00  0.00    +0.000 N 
ATOM      4  N   UNL     1      48.339 -41.887  50.261  0.00  0.00    +0.000 N 
ATOM      5  C   UNL     1      48.996 -44.354  50.296  0.00  0.00    +0.000 A 
ATOM      6  C   UNL     1      49.349 -42.237  49.332  0.00  0.00    +0.000 A 
ATOM      7  C   UNL     1      48.076 -44.129  51.175  0.00  0.00    +0.000 A 
ATOM      8  C   UNL     1      47.669 -42.700  51.183  0.00  0.00    +0.000 A 
ATOM      9  H   UNL     1      48.073 -40.912  50.257  0.00  0.00    +0.000 HD
ENDROOT
BRANCH   3  11
ATOM     10  O4* UNL     1      51.762 -44.801  49.150  0.00  0.00    +0.000 OA
ATOM     11  C1* UNL     1      50.613 -44.213  48.611  0.00  0.00    +0.000 A 
ATOM     12  C3* UNL     1      51.812 -45.010  46.845  0.00  0.00    +0.000 A 
ATOM     13  C2* UNL     1      50.639 -44.326  47.207  0.00  0.00    +0.000 A 
ATOM     14  C4* UNL     1      52.510 -45.295  48.073  0.00  0.00    +0.000 A 
BRANCH  12  15
ATOM     15  O3* UNL     1      52.496 -44.798  45.681  0.00  0.00    +0.000 OA
ATOM     16  H3* UNL     1      51.978 -45.095  44.913  0.00  0.00    +0.000 HD
ENDBRANCH  12  15
BRANCH  14  17
ATOM     17  C5* UNL     1      53.826 -45.773  48.223  0.00  0.00    +0.000 C 
BRANCH  17  18
ATOM     18  O5* UNL     1      55.070 -46.221  48.365  0.00  0.00    +0.000 OA
ATOM     19  H5* UNL     1      55.675 -45.481  48.548  0.00  0.00    +0.000 HD
ENDBRANCH  17  18
ENDBRANCH  14  17
ENDBRANCH   3  11
BRANCH   7  23
ATOM     20  F   UNL     1      46.091 -45.121  51.952  0.00  0.00    +0.000 F 
ATOM     21  F   UNL     1      47.904 -46.315  52.000  0.00  0.00    +0.000 F 
ATOM     22  F   UNL     1      47.657 -44.690  53.419  0.00  0.00    +0.000 F 
ATOM     23  C   UNL     1      47.434 -45.043  52.128  0.00  0.00    +0.000 C 
ENDBRANCH   7  23
TORSDOF 5
ENDMDL
MODEL 8
REMARK VINA RESULT:      -6.1      5.415      6.365
REMARK  Name = 6256_Trifluridine.pdbqt.pdb
REMARK  5 active torsions:
REMARK  status: ('A' for Active; 'I' for Inactive)
REMARK    1  A    between atoms: N_3  and  C1*_11
REMARK    2  A    between atoms: C_7  and  C_23
REMARK    3  A    between atoms: C3*_12  and  O3*_15
REMARK    4  A    between atoms: C4*_14  and  C5*_17
REMARK    5  A    between atoms: C5*_17  and  O5*_18
REMARK                            x       y       z     vdW  Elec       q    Type
REMARK                         _______ _______ _______ _____ _____    ______ ____
ROOT
ATOM      1  O   UNL     1      49.062 -38.521  46.291  0.00  0.00    +0.000 OA
ATOM      2  O   UNL     1      48.670 -39.404  50.778  0.00  0.00    +0.000 OA
ATOM      3  N   UNL     1      49.050 -36.687  47.790  0.00  0.00    +0.000 N 
ATOM      4  N   UNL     1      48.876 -38.899  48.548  0.00  0.00    +0.000 N 
ATOM      5  C   UNL     1      48.965 -36.409  49.106  0.00  0.00    +0.000 A 
ATOM      6  C   UNL     1      49.005 -38.051  47.421  0.00  0.00    +0.000 A 
ATOM      7  C   UNL     1      48.843 -37.102  50.191  0.00  0.00    +0.000 A 
ATOM      8  C   UNL     1      48.788 -38.558  49.903  0.00  0.00    +0.000 A 
ATOM      9  H   UNL     1      48.837 -39.887  48.338  0.00  0.00    +0.000 HD
ENDROOT
BRANCH   3  11
ATOM     10  O4* UNL     1      48.120 -35.292  46.047  0.00  0.00    +0.000 OA
ATOM     11  C1* UNL     1      49.167 -35.659  46.900  0.00  0.00    +0.000 A 
ATOM     12  C3* UNL     1      49.947 -33.929  45.637  0.00  0.00    +0.000 A 
ATOM     13  C2* UNL     1      50.287 -34.841  46.651  0.00  0.00    +0.000 A 
ATOM     14  C4* UNL     1      48.587 -34.229  45.264  0.00  0.00    +0.000 A 
BRANCH  12  15
ATOM     15  O3* UNL     1      50.833 -33.430  44.725  0.00  0.00    +0.000 OA
ATOM     16  H3* UNL     1      51.507 -32.878  45.159  0.00  0.00    +0.000 HD
ENDBRANCH  12  15
BRANCH  14  17
ATOM     17  C5* UNL     1      47.872 -33.736  44.154  0.00  0.00    +0.000 C 
BRANCH  17  18
ATOM     18  O5* UNL     1      47.197 -33.274  43.106  0.00  0.00    +0.000 OA
ATOM     19  H5* UNL     1      46.273 -33.576  43.142  0.00  0.00    +0.000 HD
ENDBRANCH  17  18
ENDBRANCH  14  17
ENDBRANCH   3  11
BRANCH   7  23
ATOM     20  F   UNL     1      49.740 -37.142  52.364  0.00  0.00    +0.000 F 
ATOM     21  F   UNL     1      48.797 -35.304  51.693  0.00  0.00    +0.000 F 
ATOM     22  F   UNL     1      47.565 -37.029  52.161  0.00  0.00    +0.000 F 
ATOM     23  C   UNL     1      48.737 -36.661  51.587  0.00  0.00    +0.000 C 
ENDBRANCH   7  23
TORSDOF 5
ENDMDL
MODEL 9
REMARK VINA RESULT:      -6.0     15.376     16.904
REMARK  Name = 6256_Trifluridine.pdbqt.pdb
REMARK  5 active torsions:
REMARK  status: ('A' for Active; 'I' for Inactive)
REMARK    1  A    between atoms: N_3  and  C1*_11
REMARK    2  A    between atoms: C_7  and  C_23
REMARK    3  A    between atoms: C3*_12  and  O3*_15
REMARK    4  A    between atoms: C4*_14  and  C5*_17
REMARK    5  A    between atoms: C5*_17  and  O5*_18
REMARK                            x       y       z     vdW  Elec       q    Type
REMARK                         _______ _______ _______ _____ _____    ______ ____
ROOT
ATOM      1  O   UNL     1      57.848 -49.208  62.130  0.00  0.00    +0.000 OA
ATOM      2  O   UNL     1      56.378 -53.350  60.806  0.00  0.00    +0.000 OA
ATOM      3  N   UNL     1      58.611 -50.049  60.052  0.00  0.00    +0.000 N 
ATOM      4  N   UNL     1      57.142 -51.271  61.410  0.00  0.00    +0.000 N 
ATOM      5  C   UNL     1      58.496 -51.127  59.250  0.00  0.00    +0.000 A 
ATOM      6  C   UNL     1      57.883 -50.074  61.263  0.00  0.00    +0.000 A 
ATOM      7  C   UNL     1      57.858 -52.250  59.299  0.00  0.00    +0.000 A 
ATOM      8  C   UNL     1      57.059 -52.369  60.544  0.00  0.00    +0.000 A 
ATOM      9  H   UNL     1      56.604 -51.339  62.263  0.00  0.00    +0.000 HD
ENDROOT
BRANCH   3  11
ATOM     10  O4* UNL     1      58.949 -47.695  59.613  0.00  0.00    +0.000 OA
ATOM     11  C1* UNL     1      59.412 -49.014  59.663  0.00  0.00    +0.000 A 
ATOM     12  C3* UNL     1      61.158 -47.752  58.920  0.00  0.00    +0.000 A 
ATOM     13  C2* UNL     1      60.753 -49.061  59.233  0.00  0.00    +0.000 A 
ATOM     14  C4* UNL     1      60.014 -46.907  59.155  0.00  0.00    +0.000 A 
BRANCH  12  15
ATOM     15  O3* UNL     1      62.073 -47.442  57.953  0.00  0.00    +0.000 OA
ATOM     16  H3* UNL     1      62.207 -46.480  57.895  0.00  0.00    +0.000 HD
ENDBRANCH  12  15
BRANCH  14  17
ATOM     17  C5* UNL     1      59.853 -45.557  58.789  0.00  0.00    +0.000 C 
BRANCH  17  18
ATOM     18  O5* UNL     1      59.701 -44.281  58.447  0.00  0.00    +0.000 OA
ATOM     19  H5* UNL     1      59.246 -43.795  59.157  0.00  0.00    +0.000 HD
ENDBRANCH  17  18
ENDBRANCH  14  17
ENDBRANCH   3  11
BRANCH   7  23
ATOM     20  F   UNL     1      56.611 -53.579  57.813  0.00  0.00    +0.000 F 
ATOM     21  F   UNL     1      58.676 -53.148  57.295  0.00  0.00    +0.000 F 
ATOM     22  F   UNL     1      58.246 -54.535  58.909  0.00  0.00    +0.000 F 
ATOM     23  C   UNL     1      57.841 -53.369  58.348  0.00  0.00    +0.000 C 
ENDBRANCH   7  23
TORSDOF 5
ENDMDL
