MODEL 1
REMARK VINA RESULT:      -7.5      0.000      0.000
REMARK  Name = 6323266_Tipiracil.pdbqt.pdb
REMARK  2 active torsions:
REMARK  status: ('A' for Active; 'I' for Inactive)
REMARK    1  A    between atoms: C_6  and  C_12
REMARK    2  A    between atoms: C_12  and  N_13
REMARK                            x       y       z     vdW  Elec       q    Type
REMARK                         _______ _______ _______ _____ _____    ______ ____
ROOT
ATOM      1 CL   UNL     1      49.705 -39.181  48.094  0.00  0.00    +0.000 Cl
ATOM      2  O   UNL     1      49.684 -42.182  48.246  0.00  0.00    +0.000 OA
ATOM      3  O   UNL     1      47.912 -42.590  52.394  0.00  0.00    +0.000 OA
ATOM      4  N   UNL     1      48.242 -40.508  51.553  0.00  0.00    +0.000 N 
ATOM      5  N   UNL     1      48.789 -42.376  50.314  0.00  0.00    +0.000 N 
ATOM      6  C   UNL     1      48.658 -39.672  50.548  0.00  0.00    +0.000 A 
ATOM      7  C   UNL     1      49.154 -40.156  49.401  0.00  0.00    +0.000 A 
ATOM      8  C   UNL     1      49.239 -41.637  49.251  0.00  0.00    +0.000 A 
ATOM      9  C   UNL     1      48.290 -41.869  51.477  0.00  0.00    +0.000 A 
ATOM     10  H   UNL     1      47.872 -40.115  52.415  0.00  0.00    +0.000 HD
ATOM     11  H   UNL     1      48.838 -43.381  50.233  0.00  0.00    +0.000 HD
ENDROOT
BRANCH   6  12
ATOM     12  C   UNL     1      48.525 -38.283  50.813  0.00  0.00    +0.000 C 
BRANCH  12  13
ATOM     13  N   UNL     1      48.371 -36.848  50.958  0.00  0.00    +0.000 N 
ATOM     14  N   UNL     1      45.903 -36.780  50.994  0.00  0.00    +0.000 NA
ATOM     15  C   UNL     1      49.178 -36.176  51.976  0.00  0.00    +0.000 C 
ATOM     16  C   UNL     1      48.612 -35.175  52.977  0.00  0.00    +0.000 C 
ATOM     17  C   UNL     1      47.239 -35.449  52.363  0.00  0.00    +0.000 C 
ATOM     18  C   UNL     1      47.094 -36.433  51.312  0.00  0.00    +0.000 C 
ATOM     19  H   UNL     1      45.212 -36.235  51.523  0.00  0.00    +0.000 HD
ENDBRANCH  12  13
ENDBRANCH   6  12
TORSDOF 2
ENDMDL
MODEL 2
REMARK VINA RESULT:      -5.7      3.421      4.463
REMARK  Name = 6323266_Tipiracil.pdbqt.pdb
REMARK  2 active torsions:
REMARK  status: ('A' for Active; 'I' for Inactive)
REMARK    1  A    between atoms: C_6  and  C_12
REMARK    2  A    between atoms: C_12  and  N_13
REMARK                            x       y       z     vdW  Elec       q    Type
REMARK                         _______ _______ _______ _____ _____    ______ ____
ROOT
ATOM      1 CL   UNL     1      47.518 -39.185  50.762  0.00  0.00    +0.000 Cl
ATOM      2  O   UNL     1      46.993 -41.828  52.091  0.00  0.00    +0.000 OA
ATOM      3  O   UNL     1      49.870 -44.339  49.656  0.00  0.00    +0.000 OA
ATOM      4  N   UNL     1      49.709 -42.122  49.201  0.00  0.00    +0.000 N 
ATOM      5  N   UNL     1      48.440 -43.072  50.877  0.00  0.00    +0.000 N 
ATOM      6  C   UNL     1      49.170 -40.884  49.442  0.00  0.00    +0.000 A 
ATOM      7  C   UNL     1      48.251 -40.700  50.399  0.00  0.00    +0.000 A 
ATOM      8  C   UNL     1      47.832 -41.886  51.197  0.00  0.00    +0.000 A 
ATOM      9  C   UNL     1      49.372 -43.245  49.897  0.00  0.00    +0.000 A 
ATOM     10  H   UNL     1      50.403 -42.235  48.465  0.00  0.00    +0.000 HD
ATOM     11  H   UNL     1      48.171 -43.888  51.406  0.00  0.00    +0.000 HD
ENDROOT
BRANCH   6  12
ATOM     12  C   UNL     1      49.651 -39.835  48.613  0.00  0.00    +0.000 C 
BRANCH  12  13
ATOM     13  N   UNL     1      50.034 -38.777  47.697  0.00  0.00    +0.000 N 
ATOM     14  N   UNL     1      50.153 -40.142  45.643  0.00  0.00    +0.000 NA
ATOM     15  C   UNL     1      49.281 -37.524  47.751  0.00  0.00    +0.000 C 
ATOM     16  C   UNL     1      48.732 -36.816  46.518  0.00  0.00    +0.000 C 
ATOM     17  C   UNL     1      49.279 -37.983  45.694  0.00  0.00    +0.000 C 
ATOM     18  C   UNL     1      49.918 -39.102  46.352  0.00  0.00    +0.000 C 
ATOM     19  H   UNL     1      49.889 -39.982  44.664  0.00  0.00    +0.000 HD
ENDBRANCH  12  13
ENDBRANCH   6  12
TORSDOF 2
ENDMDL
MODEL 3
REMARK VINA RESULT:      -5.6      1.965      2.311
REMARK  Name = 6323266_Tipiracil.pdbqt.pdb
REMARK  2 active torsions:
REMARK  status: ('A' for Active; 'I' for Inactive)
REMARK    1  A    between atoms: C_6  and  C_12
REMARK    2  A    between atoms: C_12  and  N_13
REMARK                            x       y       z     vdW  Elec       q    Type
REMARK                         _______ _______ _______ _____ _____    ______ ____
ROOT
ATOM      1 CL   UNL     1      49.027 -38.928  46.499  0.00  0.00    +0.000 Cl
ATOM      2  O   UNL     1      48.983 -41.827  45.712  0.00  0.00    +0.000 OA
ATOM      3  O   UNL     1      49.694 -43.604  49.817  0.00  0.00    +0.000 OA
ATOM      4  N   UNL     1      49.596 -41.346  49.613  0.00  0.00    +0.000 N 
ATOM      5  N   UNL     1      49.328 -42.706  47.768  0.00  0.00    +0.000 N 
ATOM      6  C   UNL     1      49.439 -40.217  48.851  0.00  0.00    +0.000 A 
ATOM      7  C   UNL     1      49.227 -40.292  47.530  0.00  0.00    +0.000 A 
ATOM      8  C   UNL     1      49.166 -41.647  46.913  0.00  0.00    +0.000 A 
ATOM      9  C   UNL     1      49.548 -42.614  49.111  0.00  0.00    +0.000 A 
ATOM     10  H   UNL     1      49.760 -41.262  50.613  0.00  0.00    +0.000 HD
ATOM     11  H   UNL     1      49.290 -43.633  47.370  0.00  0.00    +0.000 HD
ENDROOT
BRANCH   6  12
ATOM     12  C   UNL     1      49.519 -38.986  49.557  0.00  0.00    +0.000 C 
BRANCH  12  13
ATOM     13  N   UNL     1      49.610 -37.672  50.163  0.00  0.00    +0.000 N 
ATOM     14  N   UNL     1      48.212 -36.455  48.532  0.00  0.00    +0.000 NA
ATOM     15  C   UNL     1      49.383 -37.570  51.605  0.00  0.00    +0.000 C 
ATOM     16  C   UNL     1      48.466 -36.532  52.243  0.00  0.00    +0.000 C 
ATOM     17  C   UNL     1      48.134 -36.061  50.827  0.00  0.00    +0.000 C 
ATOM     18  C   UNL     1      48.695 -36.745  49.682  0.00  0.00    +0.000 C 
ATOM     19  H   UNL     1      47.512 -35.708  48.609  0.00  0.00    +0.000 HD
ENDBRANCH  12  13
ENDBRANCH   6  12
TORSDOF 2
ENDMDL
MODEL 4
REMARK VINA RESULT:      -5.5      2.902      6.052
REMARK  Name = 6323266_Tipiracil.pdbqt.pdb
REMARK  2 active torsions:
REMARK  status: ('A' for Active; 'I' for Inactive)
REMARK    1  A    between atoms: C_6  and  C_12
REMARK    2  A    between atoms: C_12  and  N_13
REMARK                            x       y       z     vdW  Elec       q    Type
REMARK                         _______ _______ _______ _____ _____    ______ ____
ROOT
ATOM      1 CL   UNL     1      49.451 -42.378  47.547  0.00  0.00    +0.000 Cl
ATOM      2  O   UNL     1      49.245 -39.399  47.222  0.00  0.00    +0.000 OA
ATOM      3  O   UNL     1      47.527 -38.438  51.301  0.00  0.00    +0.000 OA
ATOM      4  N   UNL     1      47.972 -40.604  50.792  0.00  0.00    +0.000 N 
ATOM      5  N   UNL     1      48.397 -38.927  49.265  0.00  0.00    +0.000 N 
ATOM      6  C   UNL     1      48.425 -41.563  49.923  0.00  0.00    +0.000 A 
ATOM      7  C   UNL     1      48.872 -41.240  48.702  0.00  0.00    +0.000 A 
ATOM      8  C   UNL     1      48.863 -39.800  48.317  0.00  0.00    +0.000 A 
ATOM      9  C   UNL     1      47.940 -39.271  50.503  0.00  0.00    +0.000 A 
ATOM     10  H   UNL     1      47.634 -40.876  51.712  0.00  0.00    +0.000 HD
ATOM     11  H   UNL     1      48.382 -37.947  49.025  0.00  0.00    +0.000 HD
ENDROOT
BRANCH   6  12
ATOM     12  C   UNL     1      48.382 -42.898  50.408  0.00  0.00    +0.000 C 
BRANCH  12  13
ATOM     13  N   UNL     1      48.231 -44.276  50.832  0.00  0.00    +0.000 N 
ATOM     14  N   UNL     1      48.073 -43.862  53.261  0.00  0.00    +0.000 NA
ATOM     15  C   UNL     1      47.254 -45.104  50.124  0.00  0.00    +0.000 C 
ATOM     16  C   UNL     1      46.227 -45.985  50.826  0.00  0.00    +0.000 C 
ATOM     17  C   UNL     1      46.773 -45.442  52.147  0.00  0.00    +0.000 C 
ATOM     18  C   UNL     1      47.815 -44.438  52.147  0.00  0.00    +0.000 C 
ATOM     19  H   UNL     1      47.512 -44.267  54.019  0.00  0.00    +0.000 HD
ENDBRANCH  12  13
ENDBRANCH   6  12
TORSDOF 2
ENDMDL
MODEL 5
REMARK VINA RESULT:      -5.5     16.122     18.160
REMARK  Name = 6323266_Tipiracil.pdbqt.pdb
REMARK  2 active torsions:
REMARK  status: ('A' for Active; 'I' for Inactive)
REMARK    1  A    between atoms: C_6  and  C_12
REMARK    2  A    between atoms: C_12  and  N_13
REMARK                            x       y       z     vdW  Elec       q    Type
REMARK                         _______ _______ _______ _____ _____    ______ ____
ROOT
ATOM      1 CL   UNL     1      61.787 -48.041  61.690  0.00  0.00    +0.000 Cl
ATOM      2  O   UNL     1      62.363 -45.116  61.322  0.00  0.00    +0.000 OA
ATOM      3  O   UNL     1      59.450 -44.321  57.946  0.00  0.00    +0.000 OA
ATOM      4  N   UNL     1      59.584 -46.421  58.795  0.00  0.00    +0.000 N 
ATOM      5  N   UNL     1      60.898 -44.726  59.643  0.00  0.00    +0.000 N 
ATOM      6  C   UNL     1      60.118 -47.328  59.674  0.00  0.00    +0.000 A 
ATOM      7  C   UNL     1      61.058 -46.969  60.558  0.00  0.00    +0.000 A 
ATOM      8  C   UNL     1      61.504 -45.547  60.559  0.00  0.00    +0.000 A 
ATOM      9  C   UNL     1      59.946 -45.107  58.745  0.00  0.00    +0.000 A 
ATOM     10  H   UNL     1      58.874 -46.721  58.130  0.00  0.00    +0.000 HD
ATOM     11  H   UNL     1      61.186 -43.758  59.627  0.00  0.00    +0.000 HD
ENDROOT
BRANCH   6  12
ATOM     12  C   UNL     1      59.610 -48.651  59.573  0.00  0.00    +0.000 C 
BRANCH  12  13
ATOM     13  N   UNL     1      59.167 -50.032  59.570  0.00  0.00    +0.000 N 
ATOM     14  N   UNL     1      59.088 -50.350  57.122  0.00  0.00    +0.000 NA
ATOM     15  C   UNL     1      59.861 -50.972  60.449  0.00  0.00    +0.000 C 
ATOM     16  C   UNL     1      60.362 -52.339  59.997  0.00  0.00    +0.000 C 
ATOM     17  C   UNL     1      59.860 -51.979  58.598  0.00  0.00    +0.000 C 
ATOM     18  C   UNL     1      59.283 -50.677  58.345  0.00  0.00    +0.000 C 
ATOM     19  H   UNL     1      59.332 -51.125  56.495  0.00  0.00    +0.000 HD
ENDBRANCH  12  13
ENDBRANCH   6  12
TORSDOF 2
ENDMDL
MODEL 6
REMARK VINA RESULT:      -5.3      3.981      5.794
REMARK  Name = 6323266_Tipiracil.pdbqt.pdb
REMARK  2 active torsions:
REMARK  status: ('A' for Active; 'I' for Inactive)
REMARK    1  A    between atoms: C_6  and  C_12
REMARK    2  A    between atoms: C_12  and  N_13
REMARK                            x       y       z     vdW  Elec       q    Type
REMARK                         _______ _______ _______ _____ _____    ______ ____
ROOT
ATOM      1 CL   UNL     1      47.223 -42.218  47.190  0.00  0.00    +0.000 Cl
ATOM      2  O   UNL     1      47.666 -39.635  45.721  0.00  0.00    +0.000 OA
ATOM      3  O   UNL     1      50.628 -37.774  48.599  0.00  0.00    +0.000 OA
ATOM      4  N   UNL     1      49.803 -39.835  49.069  0.00  0.00    +0.000 N 
ATOM      5  N   UNL     1      49.152 -38.718  47.158  0.00  0.00    +0.000 N 
ATOM      6  C   UNL     1      49.005 -40.907  48.760  0.00  0.00    +0.000 A 
ATOM      7  C   UNL     1      48.256 -40.920  47.650  0.00  0.00    +0.000 A 
ATOM      8  C   UNL     1      48.317 -39.728  46.757  0.00  0.00    +0.000 A 
ATOM      9  C   UNL     1      49.907 -38.718  48.294  0.00  0.00    +0.000 A 
ATOM     10  H   UNL     1      50.360 -39.849  49.921  0.00  0.00    +0.000 HD
ATOM     11  H   UNL     1      49.209 -37.901  46.568  0.00  0.00    +0.000 HD
ENDROOT
BRANCH   6  12
ATOM     12  C   UNL     1      49.034 -41.980  49.692  0.00  0.00    +0.000 C 
BRANCH  12  13
ATOM     13  N   UNL     1      48.942 -43.101  50.607  0.00  0.00    +0.000 N 
ATOM     14  N   UNL     1      47.800 -41.929  52.456  0.00  0.00    +0.000 NA
ATOM     15  C   UNL     1      48.451 -44.374  50.078  0.00  0.00    +0.000 C 
ATOM     16  C   UNL     1      47.379 -45.215  50.762  0.00  0.00    +0.000 C 
ATOM     17  C   UNL     1      47.284 -44.108  51.813  0.00  0.00    +0.000 C 
ATOM     18  C   UNL     1      48.081 -42.907  51.679  0.00  0.00    +0.000 C 
ATOM     19  H   UNL     1      47.058 -42.190  53.116  0.00  0.00    +0.000 HD
ENDBRANCH  12  13
ENDBRANCH   6  12
TORSDOF 2
ENDMDL
MODEL 7
REMARK VINA RESULT:      -5.3     14.559     17.035
REMARK  Name = 6323266_Tipiracil.pdbqt.pdb
REMARK  2 active torsions:
REMARK  status: ('A' for Active; 'I' for Inactive)
REMARK    1  A    between atoms: C_6  and  C_12
REMARK    2  A    between atoms: C_12  and  N_13
REMARK                            x       y       z     vdW  Elec       q    Type
REMARK                         _______ _______ _______ _____ _____    ______ ____
ROOT
ATOM      1 CL   UNL     1      36.856 -25.541  54.660  0.00  0.00    +0.000 Cl
ATOM      2  O   UNL     1      39.831 -25.317  54.305  0.00  0.00    +0.000 OA
ATOM      3  O   UNL     1      40.848 -29.711  54.722  0.00  0.00    +0.000 OA
ATOM      4  N   UNL     1      38.675 -29.078  54.886  0.00  0.00    +0.000 N 
ATOM      5  N   UNL     1      40.328 -27.515  54.504  0.00  0.00    +0.000 N 
ATOM      6  C   UNL     1      37.703 -28.110  54.874  0.00  0.00    +0.000 A 
ATOM      7  C   UNL     1      38.009 -26.819  54.683  0.00  0.00    +0.000 A 
ATOM      8  C   UNL     1      39.443 -26.468  54.481  0.00  0.00    +0.000 A 
ATOM      9  C   UNL     1      40.003 -28.824  54.705  0.00  0.00    +0.000 A 
ATOM     10  H   UNL     1      38.416 -30.050  55.037  0.00  0.00    +0.000 HD
ATOM     11  H   UNL     1      41.305 -27.299  54.370  0.00  0.00    +0.000 HD
ENDROOT
BRANCH   6  12
ATOM     12  C   UNL     1      36.375 -28.573  55.078  0.00  0.00    +0.000 C 
BRANCH  12  13
ATOM     13  N   UNL     1      35.027 -28.993  55.405  0.00  0.00    +0.000 N 
ATOM     14  N   UNL     1      35.285 -29.063  57.859  0.00  0.00    +0.000 NA
ATOM     15  C   UNL     1      33.919 -28.286  54.764  0.00  0.00    +0.000 C 
ATOM     16  C   UNL     1      32.702 -27.762  55.518  0.00  0.00    +0.000 C 
ATOM     17  C   UNL     1      33.370 -28.267  56.798  0.00  0.00    +0.000 C 
ATOM     18  C   UNL     1      34.686 -28.865  56.745  0.00  0.00    +0.000 C 
ATOM     19  H   UNL     1      34.680 -28.805  58.648  0.00  0.00    +0.000 HD
ENDBRANCH  12  13
ENDBRANCH   6  12
TORSDOF 2
ENDMDL
MODEL 8
REMARK VINA RESULT:      -5.3      3.972      5.876
REMARK  Name = 6323266_Tipiracil.pdbqt.pdb
REMARK  2 active torsions:
REMARK  status: ('A' for Active; 'I' for Inactive)
REMARK    1  A    between atoms: C_6  and  C_12
REMARK    2  A    between atoms: C_12  and  N_13
REMARK                            x       y       z     vdW  Elec       q    Type
REMARK                         _______ _______ _______ _____ _____    ______ ____
ROOT
ATOM      1 CL   UNL     1      48.696 -36.371  49.350  0.00  0.00    +0.000 Cl
ATOM      2  O   UNL     1      48.981 -34.910  46.741  0.00  0.00    +0.000 OA
ATOM      3  O   UNL     1      50.212 -38.434  44.176  0.00  0.00    +0.000 OA
ATOM      4  N   UNL     1      49.802 -38.784  46.380  0.00  0.00    +0.000 N 
ATOM      5  N   UNL     1      49.585 -36.677  45.466  0.00  0.00    +0.000 N 
ATOM      6  C   UNL     1      49.442 -38.324  47.621  0.00  0.00    +0.000 A 
ATOM      7  C   UNL     1      49.148 -37.034  47.827  0.00  0.00    +0.000 A 
ATOM      8  C   UNL     1      49.223 -36.110  46.659  0.00  0.00    +0.000 A 
ATOM      9  C   UNL     1      49.886 -37.993  45.272  0.00  0.00    +0.000 A 
ATOM     10  H   UNL     1      50.023 -39.769  46.252  0.00  0.00    +0.000 HD
ATOM     11  H   UNL     1      49.642 -36.069  44.662  0.00  0.00    +0.000 HD
ENDROOT
BRANCH   6  12
ATOM     12  C   UNL     1      49.409 -39.304  48.651  0.00  0.00    +0.000 C 
BRANCH  12  13
ATOM     13  N   UNL     1      49.349 -40.390  49.609  0.00  0.00    +0.000 N 
ATOM     14  N   UNL     1      48.147 -39.188  51.400  0.00  0.00    +0.000 NA
ATOM     15  C   UNL     1      48.911 -41.700  49.128  0.00  0.00    +0.000 C 
ATOM     16  C   UNL     1      47.864 -42.552  49.837  0.00  0.00    +0.000 C 
ATOM     17  C   UNL     1      47.719 -41.408  50.842  0.00  0.00    +0.000 C 
ATOM     18  C   UNL     1      48.472 -40.185  50.666  0.00  0.00    +0.000 C 
ATOM     19  H   UNL     1      47.410 -39.449  52.065  0.00  0.00    +0.000 HD
ENDBRANCH  12  13
ENDBRANCH   6  12
TORSDOF 2
ENDMDL
MODEL 9
REMARK VINA RESULT:      -5.2      4.823      5.305
REMARK  Name = 6323266_Tipiracil.pdbqt.pdb
REMARK  2 active torsions:
REMARK  status: ('A' for Active; 'I' for Inactive)
REMARK    1  A    between atoms: C_6  and  C_12
REMARK    2  A    between atoms: C_12  and  N_13
REMARK                            x       y       z     vdW  Elec       q    Type
REMARK                         _______ _______ _______ _____ _____    ______ ____
ROOT
ATOM      1 CL   UNL     1      49.664 -38.379  45.494  0.00  0.00    +0.000 Cl
ATOM      2  O   UNL     1      48.844 -40.189  47.747  0.00  0.00    +0.000 OA
ATOM      3  O   UNL     1      48.250 -37.014  50.922  0.00  0.00    +0.000 OA
ATOM      4  N   UNL     1      48.905 -36.368  48.847  0.00  0.00    +0.000 N 
ATOM      5  N   UNL     1      48.540 -38.595  49.323  0.00  0.00    +0.000 N 
ATOM      6  C   UNL     1      49.244 -36.660  47.551  0.00  0.00    +0.000 A 
ATOM      7  C   UNL     1      49.247 -37.922  47.101  0.00  0.00    +0.000 A 
ATOM      8  C   UNL     1      48.867 -39.001  48.056  0.00  0.00    +0.000 A 
ATOM      9  C   UNL     1      48.546 -37.307  49.769  0.00  0.00    +0.000 A 
ATOM     10  H   UNL     1      48.915 -35.401  49.166  0.00  0.00    +0.000 HD
ATOM     11  H   UNL     1      48.280 -39.311  49.986  0.00  0.00    +0.000 HD
ENDROOT
BRANCH   6  12
ATOM     12  C   UNL     1      49.586 -35.544  46.741  0.00  0.00    +0.000 C 
BRANCH  12  13
ATOM     13  N   UNL     1      50.057 -34.418  45.958  0.00  0.00    +0.000 N 
ATOM     14  N   UNL     1      47.879 -33.295  45.649  0.00  0.00    +0.000 NA
ATOM     15  C   UNL     1      51.236 -33.699  46.440  0.00  0.00    +0.000 C 
ATOM     16  C   UNL     1      51.315 -32.180  46.542  0.00  0.00    +0.000 C 
ATOM     17  C   UNL     1      49.862 -32.145  46.065  0.00  0.00    +0.000 C 
ATOM     18  C   UNL     1      49.144 -33.379  45.828  0.00  0.00    +0.000 C 
ATOM     19  H   UNL     1      47.576 -32.314  45.645  0.00  0.00    +0.000 HD
ENDBRANCH  12  13
ENDBRANCH   6  12
TORSDOF 2
ENDMDL
