MODEL 1
REMARK VINA RESULT:      -7.0      0.000      0.000
REMARK  Name = 6325056_Deoxyelephantopin.pdbqt.pdb
REMARK  3 active torsions:
REMARK  status: ('A' for Active; 'I' for Inactive)
REMARK    1  A    between atoms: C_6  and  O_20
REMARK    2  A    between atoms: O_20  and  C_22
REMARK    3  A    between atoms: C_22  and  C_23
REMARK                            x       y       z     vdW  Elec       q    Type
REMARK                         _______ _______ _______ _____ _____    ______ ____
ROOT
ATOM      1  O   UNL     1      48.856 -36.421  50.163  0.00  0.00    +0.000 OA
ATOM      2  O   UNL     1      50.291 -38.099  44.027  0.00  0.00    +0.000 OA
ATOM      3  O   UNL     1      48.187 -37.013  52.279  0.00  0.00    +0.000 OA
ATOM      4  O   UNL     1      51.044 -40.207  44.640  0.00  0.00    +0.000 OA
ATOM      5  C   UNL     1      49.010 -38.562  49.183  0.00  0.00    +0.000 C 
ATOM      6  C   UNL     1      49.291 -39.645  48.240  0.00  0.00    +0.000 C 
ATOM      7  C   UNL     1      49.156 -37.131  48.993  0.00  0.00    +0.000 C 
ATOM      8  C   UNL     1      49.032 -39.557  46.847  0.00  0.00    +0.000 C 
ATOM      9  C   UNL     1      48.584 -38.691  50.561  0.00  0.00    +0.000 C 
ATOM     10  C   UNL     1      48.914 -39.363  45.434  0.00  0.00    +0.000 C 
ATOM     11  C   UNL     1      49.464 -36.404  47.819  0.00  0.00    +0.000 C 
ATOM     12  C   UNL     1      49.169 -37.367  44.472  0.00  0.00    +0.000 C 
ATOM     13  C   UNL     1      49.479 -36.301  45.368  0.00  0.00    +0.000 C 
ATOM     14  C   UNL     1      49.693 -35.674  46.616  0.00  0.00    +0.000 C 
ATOM     15  C   UNL     1      48.191 -38.268  44.937  0.00  0.00    +0.000 C 
ATOM     16  C   UNL     1      48.508 -37.325  51.145  0.00  0.00    +0.000 C 
ATOM     17  C   UNL     1      50.193 -39.335  44.648  0.00  0.00    +0.000 C 
ATOM     18  C   UNL     1      48.239 -39.820  51.191  0.00  0.00    +0.000 C 
ATOM     19  C   UNL     1      49.896 -34.194  46.679  0.00  0.00    +0.000 C 
ENDROOT
BRANCH   6  20
ATOM     20  O   UNL     1      49.596 -40.930  48.721  0.00  0.00    +0.000 OA
BRANCH  20  22
ATOM     21  O   UNL     1      47.508 -41.879  48.527  0.00  0.00    +0.000 OA
ATOM     22  C   UNL     1      48.722 -41.924  48.340  0.00  0.00    +0.000 C 
BRANCH  22  23
ATOM     23  C   UNL     1      49.475 -43.044  47.667  0.00  0.00    +0.000 C 
ATOM     24  C   UNL     1      49.628 -43.152  46.159  0.00  0.00    +0.000 C 
ATOM     25  C   UNL     1      50.115 -43.987  48.369  0.00  0.00    +0.000 C 
ENDBRANCH  22  23
ENDBRANCH  20  22
ENDBRANCH   6  20
TORSDOF 3
ENDMDL
MODEL 2
REMARK VINA RESULT:      -6.7      4.346      8.353
REMARK  Name = 6325056_Deoxyelephantopin.pdbqt.pdb
REMARK  3 active torsions:
REMARK  status: ('A' for Active; 'I' for Inactive)
REMARK    1  A    between atoms: C_6  and  O_20
REMARK    2  A    between atoms: O_20  and  C_22
REMARK    3  A    between atoms: C_22  and  C_23
REMARK                            x       y       z     vdW  Elec       q    Type
REMARK                         _______ _______ _______ _____ _____    ______ ____
ROOT
ATOM      1  O   UNL     1      46.975 -43.060  51.612  0.00  0.00    +0.000 OA
ATOM      2  O   UNL     1      48.909 -49.155  50.330  0.00  0.00    +0.000 OA
ATOM      3  O   UNL     1      47.205 -40.796  51.300  0.00  0.00    +0.000 OA
ATOM      4  O   UNL     1      49.612 -48.620  48.183  0.00  0.00    +0.000 OA
ATOM      5  C   UNL     1      48.580 -43.838  50.066  0.00  0.00    +0.000 C 
ATOM      6  C   UNL     1      49.384 -44.718  49.218  0.00  0.00    +0.000 C 
ATOM      7  C   UNL     1      47.585 -44.194  51.061  0.00  0.00    +0.000 C 
ATOM      8  C   UNL     1      49.913 -45.959  49.658  0.00  0.00    +0.000 C 
ATOM      9  C   UNL     1      48.553 -42.390  50.047  0.00  0.00    +0.000 C 
ATOM     10  C   UNL     1      50.281 -47.274  50.086  0.00  0.00    +0.000 C 
ATOM     11  C   UNL     1      47.236 -45.467  51.571  0.00  0.00    +0.000 C 
ATOM     12  C   UNL     1      49.063 -48.447  51.541  0.00  0.00    +0.000 C 
ATOM     13  C   UNL     1      47.878 -47.796  51.998  0.00  0.00    +0.000 C 
ATOM     14  C   UNL     1      46.947 -46.742  52.139  0.00  0.00    +0.000 C 
ATOM     15  C   UNL     1      50.197 -47.616  51.445  0.00  0.00    +0.000 C 
ATOM     16  C   UNL     1      47.526 -41.940  51.024  0.00  0.00    +0.000 C 
ATOM     17  C   UNL     1      49.615 -48.423  49.385  0.00  0.00    +0.000 C 
ATOM     18  C   UNL     1      49.354 -41.583  49.342  0.00  0.00    +0.000 C 
ATOM     19  C   UNL     1      45.806 -46.882  53.095  0.00  0.00    +0.000 C 
ENDROOT
BRANCH   6  20
ATOM     20  O   UNL     1      49.887 -44.243  47.994  0.00  0.00    +0.000 OA
BRANCH  20  22
ATOM     21  O   UNL     1      49.240 -45.727  46.358  0.00  0.00    +0.000 OA
ATOM     22  C   UNL     1      49.169 -44.616  46.879  0.00  0.00    +0.000 C 
BRANCH  22  23
ATOM     23  C   UNL     1      48.300 -43.474  46.419  0.00  0.00    +0.000 C 
ATOM     24  C   UNL     1      46.827 -43.357  46.775  0.00  0.00    +0.000 C 
ATOM     25  C   UNL     1      48.793 -42.449  45.713  0.00  0.00    +0.000 C 
ENDBRANCH  22  23
ENDBRANCH  20  22
ENDBRANCH   6  20
TORSDOF 3
ENDMDL
MODEL 3
REMARK VINA RESULT:      -6.6      4.379      7.660
REMARK  Name = 6325056_Deoxyelephantopin.pdbqt.pdb
REMARK  3 active torsions:
REMARK  status: ('A' for Active; 'I' for Inactive)
REMARK    1  A    between atoms: C_6  and  O_20
REMARK    2  A    between atoms: O_20  and  C_22
REMARK    3  A    between atoms: C_22  and  C_23
REMARK                            x       y       z     vdW  Elec       q    Type
REMARK                         _______ _______ _______ _____ _____    ______ ____
ROOT
ATOM      1  O   UNL     1      47.421 -46.236  46.664  0.00  0.00    +0.000 OA
ATOM      2  O   UNL     1      46.887 -40.611  49.919  0.00  0.00    +0.000 OA
ATOM      3  O   UNL     1      48.250 -48.373  46.514  0.00  0.00    +0.000 OA
ATOM      4  O   UNL     1      47.073 -41.641  51.992  0.00  0.00    +0.000 OA
ATOM      5  C   UNL     1      48.184 -45.667  48.824  0.00  0.00    +0.000 C 
ATOM      6  C   UNL     1      48.390 -44.953  50.085  0.00  0.00    +0.000 C 
ATOM      7  C   UNL     1      47.458 -45.236  47.643  0.00  0.00    +0.000 C 
ATOM      8  C   UNL     1      48.606 -43.553  50.165  0.00  0.00    +0.000 C 
ATOM      9  C   UNL     1      48.608 -47.013  48.502  0.00  0.00    +0.000 C 
ATOM     10  C   UNL     1      48.649 -42.124  50.213  0.00  0.00    +0.000 C 
ATOM     11  C   UNL     1      46.889 -43.975  47.346  0.00  0.00    +0.000 C 
ATOM     12  C   UNL     1      47.598 -40.840  48.722  0.00  0.00    +0.000 C 
ATOM     13  C   UNL     1      46.862 -41.551  47.727  0.00  0.00    +0.000 C 
ATOM     14  C   UNL     1      46.391 -42.680  47.018  0.00  0.00    +0.000 C 
ATOM     15  C   UNL     1      48.857 -41.390  49.035  0.00  0.00    +0.000 C 
ATOM     16  C   UNL     1      48.102 -47.338  47.141  0.00  0.00    +0.000 C 
ATOM     17  C   UNL     1      47.484 -41.435  50.864  0.00  0.00    +0.000 C 
ATOM     18  C   UNL     1      49.383 -47.809  49.246  0.00  0.00    +0.000 C 
ATOM     19  C   UNL     1      45.591 -42.492  45.770  0.00  0.00    +0.000 C 
ENDROOT
BRANCH   6  20
ATOM     20  O   UNL     1      48.641 -45.676  51.264  0.00  0.00    +0.000 OA
BRANCH  20  22
ATOM     21  O   UNL     1      47.789 -44.671  53.152  0.00  0.00    +0.000 OA
ATOM     22  C   UNL     1      47.706 -45.515  52.263  0.00  0.00    +0.000 C 
BRANCH  22  23
ATOM     23  C   UNL     1      46.588 -46.512  52.087  0.00  0.00    +0.000 C 
ATOM     24  C   UNL     1      46.785 -48.012  52.226  0.00  0.00    +0.000 C 
ATOM     25  C   UNL     1      45.327 -46.126  51.856  0.00  0.00    +0.000 C 
ENDBRANCH  22  23
ENDBRANCH  20  22
ENDBRANCH   6  20
TORSDOF 3
ENDMDL
MODEL 4
REMARK VINA RESULT:      -6.5      2.655      6.329
REMARK  Name = 6325056_Deoxyelephantopin.pdbqt.pdb
REMARK  3 active torsions:
REMARK  status: ('A' for Active; 'I' for Inactive)
REMARK    1  A    between atoms: C_6  and  O_20
REMARK    2  A    between atoms: O_20  and  C_22
REMARK    3  A    between atoms: C_22  and  C_23
REMARK                            x       y       z     vdW  Elec       q    Type
REMARK                         _______ _______ _______ _____ _____    ______ ____
ROOT
ATOM      1  O   UNL     1      47.437 -41.120  51.035  0.00  0.00    +0.000 OA
ATOM      2  O   UNL     1      49.011 -46.643  47.945  0.00  0.00    +0.000 OA
ATOM      3  O   UNL     1      47.699 -38.855  51.311  0.00  0.00    +0.000 OA
ATOM      4  O   UNL     1      49.466 -45.551  45.948  0.00  0.00    +0.000 OA
ATOM      5  C   UNL     1      48.820 -41.451  49.151  0.00  0.00    +0.000 C 
ATOM      6  C   UNL     1      49.487 -42.070  48.005  0.00  0.00    +0.000 C 
ATOM      7  C   UNL     1      47.940 -42.064  50.130  0.00  0.00    +0.000 C 
ATOM      8  C   UNL     1      50.026 -43.383  48.029  0.00  0.00    +0.000 C 
ATOM      9  C   UNL     1      48.835 -40.052  49.521  0.00  0.00    +0.000 C 
ATOM     10  C   UNL     1      50.402 -44.763  48.042  0.00  0.00    +0.000 C 
ATOM     11  C   UNL     1      47.616 -43.427  50.322  0.00  0.00    +0.000 C 
ATOM     12  C   UNL     1      49.332 -46.286  49.272  0.00  0.00    +0.000 C 
ATOM     13  C   UNL     1      48.232 -45.784  50.030  0.00  0.00    +0.000 C 
ATOM     14  C   UNL     1      47.358 -44.809  50.562  0.00  0.00    +0.000 C 
ATOM     15  C   UNL     1      50.472 -45.457  49.260  0.00  0.00    +0.000 C 
ATOM     16  C   UNL     1      47.949 -39.882  50.703  0.00  0.00    +0.000 C 
ATOM     17  C   UNL     1      49.620 -45.684  47.149  0.00  0.00    +0.000 C 
ATOM     18  C   UNL     1      49.570 -39.083  48.963  0.00  0.00    +0.000 C 
ATOM     19  C   UNL     1      46.337 -45.202  51.580  0.00  0.00    +0.000 C 
ENDROOT
BRANCH   6  20
ATOM     20  O   UNL     1      49.852 -41.283  46.899  0.00  0.00    +0.000 OA
BRANCH  20  22
ATOM     21  O   UNL     1      50.145 -42.200  44.809  0.00  0.00    +0.000 OA
ATOM     22  C   UNL     1      49.409 -41.741  45.678  0.00  0.00    +0.000 C 
BRANCH  22  23
ATOM     23  C   UNL     1      47.910 -41.600  45.588  0.00  0.00    +0.000 C 
ATOM     24  C   UNL     1      47.190 -40.273  45.761  0.00  0.00    +0.000 C 
ATOM     25  C   UNL     1      47.119 -42.637  45.285  0.00  0.00    +0.000 C 
ENDBRANCH  22  23
ENDBRANCH  20  22
ENDBRANCH   6  20
TORSDOF 3
ENDMDL
MODEL 5
REMARK VINA RESULT:      -6.4     12.584     16.877
REMARK  Name = 6325056_Deoxyelephantopin.pdbqt.pdb
REMARK  3 active torsions:
REMARK  status: ('A' for Active; 'I' for Inactive)
REMARK    1  A    between atoms: C_6  and  O_20
REMARK    2  A    between atoms: O_20  and  C_22
REMARK    3  A    between atoms: C_22  and  C_23
REMARK                            x       y       z     vdW  Elec       q    Type
REMARK                         _______ _______ _______ _____ _____    ______ ____
ROOT
ATOM      1  O   UNL     1      44.853 -50.944  51.433  0.00  0.00    +0.000 OA
ATOM      2  O   UNL     1      42.974 -56.123  54.923  0.00  0.00    +0.000 OA
ATOM      3  O   UNL     1      45.986 -48.951  51.289  0.00  0.00    +0.000 OA
ATOM      4  O   UNL     1      44.880 -56.085  56.249  0.00  0.00    +0.000 OA
ATOM      5  C   UNL     1      45.457 -51.585  53.623  0.00  0.00    +0.000 C 
ATOM      6  C   UNL     1      45.625 -52.366  54.849  0.00  0.00    +0.000 C 
ATOM      7  C   UNL     1      44.710 -51.922  52.425  0.00  0.00    +0.000 C 
ATOM      8  C   UNL     1      44.594 -53.157  55.420  0.00  0.00    +0.000 C 
ATOM      9  C   UNL     1      46.071 -50.313  53.306  0.00  0.00    +0.000 C 
ATOM     10  C   UNL     1      43.586 -54.070  55.865  0.00  0.00    +0.000 C 
ATOM     11  C   UNL     1      43.840 -53.011  52.183  0.00  0.00    +0.000 C 
ATOM     12  C   UNL     1      42.164 -55.063  54.463  0.00  0.00    +0.000 C 
ATOM     13  C   UNL     1      42.346 -54.736  53.087  0.00  0.00    +0.000 C 
ATOM     14  C   UNL     1      42.901 -54.064  51.973  0.00  0.00    +0.000 C 
ATOM     15  C   UNL     1      42.283 -53.976  55.353  0.00  0.00    +0.000 C 
ATOM     16  C   UNL     1      45.675 -49.948  51.919  0.00  0.00    +0.000 C 
ATOM     17  C   UNL     1      43.909 -55.533  55.762  0.00  0.00    +0.000 C 
ATOM     18  C   UNL     1      46.801 -49.548  54.126  0.00  0.00    +0.000 C 
ATOM     19  C   UNL     1      42.314 -54.269  50.614  0.00  0.00    +0.000 C 
ENDROOT
BRANCH   6  20
ATOM     20  O   UNL     1      46.753 -52.159  55.661  0.00  0.00    +0.000 OA
BRANCH  20  22
ATOM     21  O   UNL     1      48.184 -53.490  54.445  0.00  0.00    +0.000 OA
ATOM     22  C   UNL     1      47.755 -53.095  55.526  0.00  0.00    +0.000 C 
BRANCH  22  23
ATOM     23  C   UNL     1      48.234 -53.537  56.886  0.00  0.00    +0.000 C 
ATOM     24  C   UNL     1      49.702 -53.570  57.279  0.00  0.00    +0.000 C 
ATOM     25  C   UNL     1      47.380 -53.871  57.862  0.00  0.00    +0.000 C 
ENDBRANCH  22  23
ENDBRANCH  20  22
ENDBRANCH   6  20
TORSDOF 3
ENDMDL
MODEL 6
REMARK VINA RESULT:      -6.4      8.447     11.862
REMARK  Name = 6325056_Deoxyelephantopin.pdbqt.pdb
REMARK  3 active torsions:
REMARK  status: ('A' for Active; 'I' for Inactive)
REMARK    1  A    between atoms: C_6  and  O_20
REMARK    2  A    between atoms: O_20  and  C_22
REMARK    3  A    between atoms: C_22  and  C_23
REMARK                            x       y       z     vdW  Elec       q    Type
REMARK                         _______ _______ _______ _____ _____    ______ ____
ROOT
ATOM      1  O   UNL     1      48.423 -51.227  52.759  0.00  0.00    +0.000 OA
ATOM      2  O   UNL     1      47.249 -45.185  50.602  0.00  0.00    +0.000 OA
ATOM      3  O   UNL     1      47.648 -53.234  53.564  0.00  0.00    +0.000 OA
ATOM      4  O   UNL     1      45.184 -45.763  49.712  0.00  0.00    +0.000 OA
ATOM      5  C   UNL     1      46.365 -50.160  52.311  0.00  0.00    +0.000 C 
ATOM      6  C   UNL     1      45.370 -49.196  51.840  0.00  0.00    +0.000 C 
ATOM      7  C   UNL     1      47.813 -50.058  52.285  0.00  0.00    +0.000 C 
ATOM      8  C   UNL     1      45.518 -47.791  51.975  0.00  0.00    +0.000 C 
ATOM      9  C   UNL     1      46.117 -51.481  52.849  0.00  0.00    +0.000 C 
ATOM     10  C   UNL     1      45.784 -46.385  51.978  0.00  0.00    +0.000 C 
ATOM     11  C   UNL     1      48.633 -48.958  51.939  0.00  0.00    +0.000 C 
ATOM     12  C   UNL     1      47.848 -45.554  51.826  0.00  0.00    +0.000 C 
ATOM     13  C   UNL     1      48.883 -46.529  51.705  0.00  0.00    +0.000 C 
ATOM     14  C   UNL     1      49.451 -47.823  51.669  0.00  0.00    +0.000 C 
ATOM     15  C   UNL     1      46.836 -45.874  52.753  0.00  0.00    +0.000 C 
ATOM     16  C   UNL     1      47.433 -52.123  53.110  0.00  0.00    +0.000 C 
ATOM     17  C   UNL     1      45.973 -45.731  50.639  0.00  0.00    +0.000 C 
ATOM     18  C   UNL     1      44.926 -52.017  53.142  0.00  0.00    +0.000 C 
ATOM     19  C   UNL     1      50.937 -47.980  51.616  0.00  0.00    +0.000 C 
ENDROOT
BRANCH   6  20
ATOM     20  O   UNL     1      44.092 -49.639  51.459  0.00  0.00    +0.000 OA
BRANCH  20  22
ATOM     21  O   UNL     1      44.011 -48.868  49.292  0.00  0.00    +0.000 OA
ATOM     22  C   UNL     1      43.517 -48.950  50.414  0.00  0.00    +0.000 C 
BRANCH  22  23
ATOM     23  C   UNL     1      42.213 -48.337  50.856  0.00  0.00    +0.000 C 
ATOM     24  C   UNL     1      40.997 -49.162  51.243  0.00  0.00    +0.000 C 
ATOM     25  C   UNL     1      42.066 -47.013  50.997  0.00  0.00    +0.000 C 
ENDBRANCH  22  23
ENDBRANCH  20  22
ENDBRANCH   6  20
TORSDOF 3
ENDMDL
MODEL 7
REMARK VINA RESULT:      -6.4      1.913      2.897
REMARK  Name = 6325056_Deoxyelephantopin.pdbqt.pdb
REMARK  3 active torsions:
REMARK  status: ('A' for Active; 'I' for Inactive)
REMARK    1  A    between atoms: C_6  and  O_20
REMARK    2  A    between atoms: O_20  and  C_22
REMARK    3  A    between atoms: C_22  and  C_23
REMARK                            x       y       z     vdW  Elec       q    Type
REMARK                         _______ _______ _______ _____ _____    ______ ____
ROOT
ATOM      1  O   UNL     1      48.176 -40.219  50.927  0.00  0.00    +0.000 OA
ATOM      2  O   UNL     1      50.090 -38.308  44.993  0.00  0.00    +0.000 OA
ATOM      3  O   UNL     1      47.591 -41.899  52.380  0.00  0.00    +0.000 OA
ATOM      4  O   UNL     1      51.253 -40.276  44.591  0.00  0.00    +0.000 OA
ATOM      5  C   UNL     1      48.801 -41.514  49.056  0.00  0.00    +0.000 C 
ATOM      6  C   UNL     1      49.328 -41.909  47.749  0.00  0.00    +0.000 C 
ATOM      7  C   UNL     1      48.648 -40.181  49.609  0.00  0.00    +0.000 C 
ATOM      8  C   UNL     1      49.092 -41.176  46.557  0.00  0.00    +0.000 C 
ATOM      9  C   UNL     1      48.377 -42.389  50.128  0.00  0.00    +0.000 C 
ATOM     10  C   UNL     1      48.973 -40.320  45.416  0.00  0.00    +0.000 C 
ATOM     11  C   UNL     1      48.827 -38.922  48.989  0.00  0.00    +0.000 C 
ATOM     12  C   UNL     1      48.829 -38.102  45.591  0.00  0.00    +0.000 C 
ATOM     13  C   UNL     1      48.884 -37.597  46.925  0.00  0.00    +0.000 C 
ATOM     14  C   UNL     1      48.929 -37.659  48.336  0.00  0.00    +0.000 C 
ATOM     15  C   UNL     1      48.049 -39.264  45.428  0.00  0.00    +0.000 C 
ATOM     16  C   UNL     1      48.000 -41.539  51.289  0.00  0.00    +0.000 C 
ATOM     17  C   UNL     1      50.238 -39.685  44.914  0.00  0.00    +0.000 C 
ATOM     18  C   UNL     1      48.261 -43.721  50.078  0.00  0.00    +0.000 C 
ATOM     19  C   UNL     1      48.815 -36.403  49.138  0.00  0.00    +0.000 C 
ENDROOT
BRANCH   6  20
ATOM     20  O   UNL     1      49.884 -43.189  47.576  0.00  0.00    +0.000 OA
BRANCH  20  22
ATOM     21  O   UNL     1      50.447 -43.617  45.386  0.00  0.00    +0.000 OA
ATOM     22  C   UNL     1      49.682 -43.756  46.337  0.00  0.00    +0.000 C 
BRANCH  22  23
ATOM     23  C   UNL     1      48.407 -44.561  46.341  0.00  0.00    +0.000 C 
ATOM     24  C   UNL     1      47.137 -44.108  45.640  0.00  0.00    +0.000 C 
ATOM     25  C   UNL     1      48.335 -45.768  46.916  0.00  0.00    +0.000 C 
ENDBRANCH  22  23
ENDBRANCH  20  22
ENDBRANCH   6  20
TORSDOF 3
ENDMDL
MODEL 8
REMARK VINA RESULT:      -6.2      3.597      8.819
REMARK  Name = 6325056_Deoxyelephantopin.pdbqt.pdb
REMARK  3 active torsions:
REMARK  status: ('A' for Active; 'I' for Inactive)
REMARK    1  A    between atoms: C_6  and  O_20
REMARK    2  A    between atoms: O_20  and  C_22
REMARK    3  A    between atoms: C_22  and  C_23
REMARK                            x       y       z     vdW  Elec       q    Type
REMARK                         _______ _______ _______ _____ _____    ______ ____
ROOT
ATOM      1  O   UNL     1      51.226 -47.146  47.778  0.00  0.00    +0.000 OA
ATOM      2  O   UNL     1      47.978 -44.665  52.860  0.00  0.00    +0.000 OA
ATOM      3  O   UNL     1      51.936 -46.976  45.601  0.00  0.00    +0.000 OA
ATOM      4  O   UNL     1      48.413 -42.472  52.235  0.00  0.00    +0.000 OA
ATOM      5  C   UNL     1      50.201 -45.034  48.026  0.00  0.00    +0.000 C 
ATOM      6  C   UNL     1      49.548 -43.864  48.613  0.00  0.00    +0.000 C 
ATOM      7  C   UNL     1      50.532 -46.301  48.653  0.00  0.00    +0.000 C 
ATOM      8  C   UNL     1      48.494 -43.949  49.560  0.00  0.00    +0.000 C 
ATOM      9  C   UNL     1      50.733 -45.159  46.685  0.00  0.00    +0.000 C 
ATOM     10  C   UNL     1      47.557 -44.079  50.633  0.00  0.00    +0.000 C 
ATOM     11  C   UNL     1      50.187 -46.788  49.936  0.00  0.00    +0.000 C 
ATOM     12  C   UNL     1      47.613 -45.780  52.075  0.00  0.00    +0.000 C 
ATOM     13  C   UNL     1      48.666 -46.718  51.860  0.00  0.00    +0.000 C 
ATOM     14  C   UNL     1      49.767 -47.306  51.196  0.00  0.00    +0.000 C 
ATOM     15  C   UNL     1      46.974 -45.326  50.904  0.00  0.00    +0.000 C 
ATOM     16  C   UNL     1      51.376 -46.495  46.571  0.00  0.00    +0.000 C 
ATOM     17  C   UNL     1      48.003 -43.590  51.981  0.00  0.00    +0.000 C 
ATOM     18  C   UNL     1      50.609 -44.275  45.688  0.00  0.00    +0.000 C 
ATOM     19  C   UNL     1      50.312 -48.613  51.675  0.00  0.00    +0.000 C 
ENDROOT
BRANCH   6  20
ATOM     20  O   UNL     1      49.769 -42.590  48.061  0.00  0.00    +0.000 OA
BRANCH  20  22
ATOM     21  O   UNL     1      47.826 -42.416  46.840  0.00  0.00    +0.000 OA
ATOM     22  C   UNL     1      48.639 -41.934  47.625  0.00  0.00    +0.000 C 
BRANCH  22  23
ATOM     23  C   UNL     1      48.559 -40.567  48.257  0.00  0.00    +0.000 C 
ATOM     24  C   UNL     1      47.850 -40.303  49.575  0.00  0.00    +0.000 C 
ATOM     25  C   UNL     1      49.170 -39.503  47.721  0.00  0.00    +0.000 C 
ENDBRANCH  22  23
ENDBRANCH  20  22
ENDBRANCH   6  20
TORSDOF 3
ENDMDL
MODEL 9
REMARK VINA RESULT:      -6.1      2.393      4.016
REMARK  Name = 6325056_Deoxyelephantopin.pdbqt.pdb
REMARK  3 active torsions:
REMARK  status: ('A' for Active; 'I' for Inactive)
REMARK    1  A    between atoms: C_6  and  O_20
REMARK    2  A    between atoms: O_20  and  C_22
REMARK    3  A    between atoms: C_22  and  C_23
REMARK                            x       y       z     vdW  Elec       q    Type
REMARK                         _______ _______ _______ _____ _____    ______ ____
ROOT
ATOM      1  O   UNL     1      48.510 -39.026  49.176  0.00  0.00    +0.000 OA
ATOM      2  O   UNL     1      50.759 -43.195  44.694  0.00  0.00    +0.000 OA
ATOM      3  O   UNL     1      47.636 -38.636  51.265  0.00  0.00    +0.000 OA
ATOM      4  O   UNL     1      51.569 -44.676  46.288  0.00  0.00    +0.000 OA
ATOM      5  C   UNL     1      48.914 -41.345  49.345  0.00  0.00    +0.000 C 
ATOM      6  C   UNL     1      49.373 -42.704  49.051  0.00  0.00    +0.000 C 
ATOM      7  C   UNL     1      48.989 -40.160  48.509  0.00  0.00    +0.000 C 
ATOM      8  C   UNL     1      49.274 -43.303  47.769  0.00  0.00    +0.000 C 
ATOM      9  C   UNL     1      48.339 -40.865  50.583  0.00  0.00    +0.000 C 
ATOM     10  C   UNL     1      49.311 -43.804  46.429  0.00  0.00    +0.000 C 
ATOM     11  C   UNL     1      49.386 -40.035  47.157  0.00  0.00    +0.000 C 
ATOM     12  C   UNL     1      49.548 -42.471  44.656  0.00  0.00    +0.000 C 
ATOM     13  C   UNL     1      49.681 -41.083  44.959  0.00  0.00    +0.000 C 
ATOM     14  C   UNL     1      49.707 -39.928  45.772  0.00  0.00    +0.000 C 
ATOM     15  C   UNL     1      48.582 -43.156  45.420  0.00  0.00    +0.000 C 
ATOM     16  C   UNL     1      48.107 -39.403  50.442  0.00  0.00    +0.000 C 
ATOM     17  C   UNL     1      50.669 -44.002  45.819  0.00  0.00    +0.000 C 
ATOM     18  C   UNL     1      47.997 -41.601  51.647  0.00  0.00    +0.000 C 
ATOM     19  C   UNL     1      49.805 -38.577  45.140  0.00  0.00    +0.000 C 
ENDROOT
BRANCH   6  20
ATOM     20  O   UNL     1      49.703 -43.574  50.105  0.00  0.00    +0.000 OA
BRANCH  20  22
ATOM     21  O   UNL     1      49.973 -45.723  49.328  0.00  0.00    +0.000 OA
ATOM     22  C   UNL     1      49.311 -44.883  49.932  0.00  0.00    +0.000 C 
BRANCH  22  23
ATOM     23  C   UNL     1      47.976 -45.113  50.593  0.00  0.00    +0.000 C 
ATOM     24  C   UNL     1      47.805 -45.229  52.099  0.00  0.00    +0.000 C 
ATOM     25  C   UNL     1      46.838 -45.168  49.890  0.00  0.00    +0.000 C 
ENDBRANCH  22  23
ENDBRANCH  20  22
ENDBRANCH   6  20
TORSDOF 3
ENDMDL
