MODEL 1
REMARK VINA RESULT:      -6.5      0.000      0.000
REMARK  Name = 641785_Cardamonin.pdbqt.pdb
REMARK  6 active torsions:
REMARK  status: ('A' for Active; 'I' for Inactive)
REMARK    1  A    between atoms: C_1  and  C_14
REMARK    2  A    between atoms: C_2  and  O_7
REMARK    3  A    between atoms: C_3  and  O_9
REMARK    4  A    between atoms: C_6  and  O_11
REMARK    5  A    between atoms: C_14  and  C_15
REMARK    6  A    between atoms: C_16  and  C_17
REMARK                            x       y       z     vdW  Elec       q    Type
REMARK                         _______ _______ _______ _____ _____    ______ ____
ROOT
ATOM      1  C   UNL     1      48.513 -40.905  50.013  0.00  0.00    +0.000 A 
ATOM      2  C   UNL     1      48.981 -41.145  48.707  0.00  0.00    +0.000 A 
ATOM      3  C   UNL     1      48.731 -39.638  50.591  0.00  0.00    +0.000 A 
ATOM      4  C   UNL     1      49.671 -40.130  48.029  0.00  0.00    +0.000 A 
ATOM      5  C   UNL     1      49.428 -38.644  49.907  0.00  0.00    +0.000 A 
ATOM      6  C   UNL     1      49.900 -38.899  48.630  0.00  0.00    +0.000 A 
ENDROOT
BRANCH   2   7
ATOM      7  O   UNL     1      48.682 -42.343  48.099  0.00  0.00    +0.000 OA
ATOM      8  C   UNL     1      49.740 -42.978  47.438  0.00  0.00    +0.000 C 
ENDBRANCH   2   7
BRANCH   3   9
ATOM      9  O   UNL     1      48.290 -39.289  51.843  0.00  0.00    +0.000 OA
ATOM     10  H   UNL     1      47.315 -39.165  51.827  0.00  0.00    +0.000 HD
ENDBRANCH   3   9
BRANCH   6  11
ATOM     11  O   UNL     1      50.581 -37.919  47.974  0.00  0.00    +0.000 OA
ATOM     12  H   UNL     1      51.529 -38.142  47.970  0.00  0.00    +0.000 HD
ENDBRANCH   6  11
BRANCH   1  14
ATOM     13  O   UNL     1      46.862 -41.585  51.550  0.00  0.00    +0.000 OA
ATOM     14  C   UNL     1      47.792 -41.920  50.824  0.00  0.00    +0.000 C 
BRANCH  14  15
ATOM     15  C   UNL     1      48.221 -43.297  50.827  0.00  0.00    +0.000 C 
ATOM     16  C   UNL     1      48.566 -44.448  50.843  0.00  0.00    +0.000 C 
BRANCH  16  17
ATOM     17  C   UNL     1      48.982 -45.812  50.859  0.00  0.00    +0.000 A 
ATOM     18  C   UNL     1      48.482 -46.679  51.829  0.00  0.00    +0.000 A 
ATOM     19  C   UNL     1      49.887 -46.275  49.906  0.00  0.00    +0.000 A 
ATOM     20  C   UNL     1      48.889 -48.011  51.846  0.00  0.00    +0.000 A 
ATOM     21  C   UNL     1      50.293 -47.607  49.924  0.00  0.00    +0.000 A 
ATOM     22  C   UNL     1      49.794 -48.474  50.893  0.00  0.00    +0.000 A 
ENDBRANCH  16  17
ENDBRANCH  14  15
ENDBRANCH   1  14
TORSDOF 6
ENDMDL
MODEL 2
REMARK VINA RESULT:      -6.4      3.548      4.526
REMARK  Name = 641785_Cardamonin.pdbqt.pdb
REMARK  6 active torsions:
REMARK  status: ('A' for Active; 'I' for Inactive)
REMARK    1  A    between atoms: C_1  and  C_14
REMARK    2  A    between atoms: C_2  and  O_7
REMARK    3  A    between atoms: C_3  and  O_9
REMARK    4  A    between atoms: C_6  and  O_11
REMARK    5  A    between atoms: C_14  and  C_15
REMARK    6  A    between atoms: C_16  and  C_17
REMARK                            x       y       z     vdW  Elec       q    Type
REMARK                         _______ _______ _______ _____ _____    ______ ____
ROOT
ATOM      1  C   UNL     1      48.136 -43.742  51.019  0.00  0.00    +0.000 A 
ATOM      2  C   UNL     1      48.989 -44.234  50.012  0.00  0.00    +0.000 A 
ATOM      3  C   UNL     1      47.793 -42.374  51.011  0.00  0.00    +0.000 A 
ATOM      4  C   UNL     1      49.492 -43.349  49.047  0.00  0.00    +0.000 A 
ATOM      5  C   UNL     1      48.311 -41.507  50.050  0.00  0.00    +0.000 A 
ATOM      6  C   UNL     1      49.163 -42.000  49.077  0.00  0.00    +0.000 A 
ENDROOT
BRANCH   2   7
ATOM      7  O   UNL     1      49.244 -45.584  49.954  0.00  0.00    +0.000 OA
ATOM      8  C   UNL     1      48.599 -46.288  48.931  0.00  0.00    +0.000 C 
ENDBRANCH   2   7
BRANCH   3   9
ATOM      9  O   UNL     1      46.947 -41.799  51.925  0.00  0.00    +0.000 OA
ATOM     10  H   UNL     1      46.133 -42.343  52.011  0.00  0.00    +0.000 HD
ENDBRANCH   3   9
BRANCH   6  11
ATOM     11  O   UNL     1      49.662 -41.140  48.145  0.00  0.00    +0.000 OA
ATOM     12  H   UNL     1      50.370 -41.589  47.650  0.00  0.00    +0.000 HD
ENDBRANCH   6  11
BRANCH   1  14
ATOM     13  O   UNL     1      48.146 -44.689  53.176  0.00  0.00    +0.000 OA
ATOM     14  C   UNL     1      47.569 -44.590  52.099  0.00  0.00    +0.000 C 
BRANCH  14  15
ATOM     15  C   UNL     1      46.375 -45.366  51.871  0.00  0.00    +0.000 C 
ATOM     16  C   UNL     1      45.389 -46.029  51.684  0.00  0.00    +0.000 C 
BRANCH  16  17
ATOM     17  C   UNL     1      44.217 -46.809  51.460  0.00  0.00    +0.000 A 
ATOM     18  C   UNL     1      42.959 -46.247  51.668  0.00  0.00    +0.000 A 
ATOM     19  C   UNL     1      44.332 -48.131  51.037  0.00  0.00    +0.000 A 
ATOM     20  C   UNL     1      41.813 -47.010  51.451  0.00  0.00    +0.000 A 
ATOM     21  C   UNL     1      43.185 -48.893  50.820  0.00  0.00    +0.000 A 
ATOM     22  C   UNL     1      41.928 -48.331  51.028  0.00  0.00    +0.000 A 
ENDBRANCH  16  17
ENDBRANCH  14  15
ENDBRANCH   1  14
TORSDOF 6
ENDMDL
MODEL 3
REMARK VINA RESULT:      -6.4      2.883      7.420
REMARK  Name = 641785_Cardamonin.pdbqt.pdb
REMARK  6 active torsions:
REMARK  status: ('A' for Active; 'I' for Inactive)
REMARK    1  A    between atoms: C_1  and  C_14
REMARK    2  A    between atoms: C_2  and  O_7
REMARK    3  A    between atoms: C_3  and  O_9
REMARK    4  A    between atoms: C_6  and  O_11
REMARK    5  A    between atoms: C_14  and  C_15
REMARK    6  A    between atoms: C_16  and  C_17
REMARK                            x       y       z     vdW  Elec       q    Type
REMARK                         _______ _______ _______ _____ _____    ______ ____
ROOT
ATOM      1  C   UNL     1      48.211 -40.865  47.703  0.00  0.00    +0.000 A 
ATOM      2  C   UNL     1      48.327 -42.073  48.416  0.00  0.00    +0.000 A 
ATOM      3  C   UNL     1      47.184 -40.737  46.746  0.00  0.00    +0.000 A 
ATOM      4  C   UNL     1      47.439 -43.122  48.137  0.00  0.00    +0.000 A 
ATOM      5  C   UNL     1      46.316 -41.793  46.474  0.00  0.00    +0.000 A 
ATOM      6  C   UNL     1      46.453 -42.983  47.169  0.00  0.00    +0.000 A 
ENDROOT
BRANCH   2   7
ATOM      7  O   UNL     1      49.261 -42.168  49.422  0.00  0.00    +0.000 OA
ATOM      8  C   UNL     1      49.839 -43.430  49.607  0.00  0.00    +0.000 C 
ENDBRANCH   2   7
BRANCH   3   9
ATOM      9  O   UNL     1      46.962 -39.594  46.020  0.00  0.00    +0.000 OA
ATOM     10  H   UNL     1      46.057 -39.616  45.637  0.00  0.00    +0.000 HD
ENDBRANCH   3   9
BRANCH   6  11
ATOM     11  O   UNL     1      45.599 -44.007  46.892  0.00  0.00    +0.000 OA
ATOM     12  H   UNL     1      44.956 -44.086  47.619  0.00  0.00    +0.000 HD
ENDBRANCH   6  11
BRANCH   1  14
ATOM     13  O   UNL     1      50.122 -39.576  47.221  0.00  0.00    +0.000 OA
ATOM     14  C   UNL     1      49.114 -39.703  47.907  0.00  0.00    +0.000 C 
BRANCH  14  15
ATOM     15  C   UNL     1      48.860 -38.752  48.961  0.00  0.00    +0.000 C 
ATOM     16  C   UNL     1      48.663 -37.966  49.849  0.00  0.00    +0.000 C 
BRANCH  16  17
ATOM     17  C   UNL     1      48.424 -37.032  50.899  0.00  0.00    +0.000 A 
ATOM     18  C   UNL     1      49.436 -36.738  51.811  0.00  0.00    +0.000 A 
ATOM     19  C   UNL     1      47.179 -36.418  51.014  0.00  0.00    +0.000 A 
ATOM     20  C   UNL     1      49.202 -35.827  52.839  0.00  0.00    +0.000 A 
ATOM     21  C   UNL     1      46.946 -35.507  52.043  0.00  0.00    +0.000 A 
ATOM     22  C   UNL     1      47.957 -35.213  52.954  0.00  0.00    +0.000 A 
ENDBRANCH  16  17
ENDBRANCH  14  15
ENDBRANCH   1  14
TORSDOF 6
ENDMDL
MODEL 4
REMARK VINA RESULT:      -6.2      1.419      2.278
REMARK  Name = 641785_Cardamonin.pdbqt.pdb
REMARK  6 active torsions:
REMARK  status: ('A' for Active; 'I' for Inactive)
REMARK    1  A    between atoms: C_1  and  C_14
REMARK    2  A    between atoms: C_2  and  O_7
REMARK    3  A    between atoms: C_3  and  O_9
REMARK    4  A    between atoms: C_6  and  O_11
REMARK    5  A    between atoms: C_14  and  C_15
REMARK    6  A    between atoms: C_16  and  C_17
REMARK                            x       y       z     vdW  Elec       q    Type
REMARK                         _______ _______ _______ _____ _____    ______ ____
ROOT
ATOM      1  C   UNL     1      48.466 -40.303  49.149  0.00  0.00    +0.000 A 
ATOM      2  C   UNL     1      49.488 -39.462  48.669  0.00  0.00    +0.000 A 
ATOM      3  C   UNL     1      47.783 -39.938  50.327  0.00  0.00    +0.000 A 
ATOM      4  C   UNL     1      49.816 -38.302  49.387  0.00  0.00    +0.000 A 
ATOM      5  C   UNL     1      48.129 -38.787  51.034  0.00  0.00    +0.000 A 
ATOM      6  C   UNL     1      49.149 -37.978  50.561  0.00  0.00    +0.000 A 
ENDROOT
BRANCH   2   7
ATOM      7  O   UNL     1      50.088 -39.758  47.467  0.00  0.00    +0.000 OA
ATOM      8  C   UNL     1      49.717 -38.956  46.381  0.00  0.00    +0.000 C 
ENDBRANCH   2   7
BRANCH   3   9
ATOM      9  O   UNL     1      46.752 -40.667  50.863  0.00  0.00    +0.000 OA
ATOM     10  H   UNL     1      46.965 -40.908  51.792  0.00  0.00    +0.000 HD
ENDBRANCH   3   9
BRANCH   6  11
ATOM     11  O   UNL     1      49.476 -36.858  51.263  0.00  0.00    +0.000 OA
ATOM     12  H   UNL     1      49.681 -36.142  50.634  0.00  0.00    +0.000 HD
ENDBRANCH   6  11
BRANCH   1  14
ATOM     13  O   UNL     1      47.199 -41.549  47.603  0.00  0.00    +0.000 OA
ATOM     14  C   UNL     1      48.059 -41.563  48.477  0.00  0.00    +0.000 C 
BRANCH  14  15
ATOM     15  C   UNL     1      48.613 -42.828  48.893  0.00  0.00    +0.000 C 
ATOM     16  C   UNL     1      49.066 -43.881  49.257  0.00  0.00    +0.000 C 
BRANCH  16  17
ATOM     17  C   UNL     1      49.607 -45.129  49.682  0.00  0.00    +0.000 A 
ATOM     18  C   UNL     1      48.903 -45.918  50.590  0.00  0.00    +0.000 A 
ATOM     19  C   UNL     1      50.839 -45.557  49.192  0.00  0.00    +0.000 A 
ATOM     20  C   UNL     1      49.432 -47.137  51.008  0.00  0.00    +0.000 A 
ATOM     21  C   UNL     1      51.367 -46.776  49.611  0.00  0.00    +0.000 A 
ATOM     22  C   UNL     1      50.664 -47.565  50.518  0.00  0.00    +0.000 A 
ENDBRANCH  16  17
ENDBRANCH  14  15
ENDBRANCH   1  14
TORSDOF 6
ENDMDL
MODEL 5
REMARK VINA RESULT:      -6.1      1.946      3.519
REMARK  Name = 641785_Cardamonin.pdbqt.pdb
REMARK  6 active torsions:
REMARK  status: ('A' for Active; 'I' for Inactive)
REMARK    1  A    between atoms: C_1  and  C_14
REMARK    2  A    between atoms: C_2  and  O_7
REMARK    3  A    between atoms: C_3  and  O_9
REMARK    4  A    between atoms: C_6  and  O_11
REMARK    5  A    between atoms: C_14  and  C_15
REMARK    6  A    between atoms: C_16  and  C_17
REMARK                            x       y       z     vdW  Elec       q    Type
REMARK                         _______ _______ _______ _____ _____    ______ ____
ROOT
ATOM      1  C   UNL     1      48.457 -40.185  49.130  0.00  0.00    +0.000 A 
ATOM      2  C   UNL     1      47.906 -39.990  50.411  0.00  0.00    +0.000 A 
ATOM      3  C   UNL     1      49.340 -39.213  48.616  0.00  0.00    +0.000 A 
ATOM      4  C   UNL     1      48.228 -38.828  51.127  0.00  0.00    +0.000 A 
ATOM      5  C   UNL     1      49.641 -38.058  49.337  0.00  0.00    +0.000 A 
ATOM      6  C   UNL     1      49.077 -37.870  50.587  0.00  0.00    +0.000 A 
ENDROOT
BRANCH   2   7
ATOM      7  O   UNL     1      47.126 -40.982  50.960  0.00  0.00    +0.000 OA
ATOM      8  C   UNL     1      47.782 -41.878  51.812  0.00  0.00    +0.000 C 
ENDBRANCH   2   7
BRANCH   3   9
ATOM      9  O   UNL     1      49.957 -39.320  47.395  0.00  0.00    +0.000 OA
ATOM     10  H   UNL     1      50.818 -39.781  47.498  0.00  0.00    +0.000 HD
ENDBRANCH   3   9
BRANCH   6  11
ATOM     11  O   UNL     1      49.379 -36.737  51.279  0.00  0.00    +0.000 OA
ATOM     12  H   UNL     1      49.343 -35.977  50.671  0.00  0.00    +0.000 HD
ENDBRANCH   6  11
BRANCH   1  14
ATOM     13  O   UNL     1      47.124 -41.422  47.634  0.00  0.00    +0.000 OA
ATOM     14  C   UNL     1      48.163 -41.369  48.283  0.00  0.00    +0.000 C 
BRANCH  14  15
ATOM     15  C   UNL     1      49.055 -42.501  48.270  0.00  0.00    +0.000 C 
ATOM     16  C   UNL     1      49.787 -43.455  48.270  0.00  0.00    +0.000 C 
BRANCH  16  17
ATOM     17  C   UNL     1      50.660 -44.583  48.268  0.00  0.00    +0.000 A 
ATOM     18  C   UNL     1      51.553 -44.767  47.213  0.00  0.00    +0.000 A 
ATOM     19  C   UNL     1      50.618 -45.498  49.316  0.00  0.00    +0.000 A 
ATOM     20  C   UNL     1      52.405 -45.869  47.209  0.00  0.00    +0.000 A 
ATOM     21  C   UNL     1      51.471 -46.600  49.312  0.00  0.00    +0.000 A 
ATOM     22  C   UNL     1      52.363 -46.784  48.258  0.00  0.00    +0.000 A 
ENDBRANCH  16  17
ENDBRANCH  14  15
ENDBRANCH   1  14
TORSDOF 6
ENDMDL
MODEL 6
REMARK VINA RESULT:      -6.0      4.796      9.886
REMARK  Name = 641785_Cardamonin.pdbqt.pdb
REMARK  6 active torsions:
REMARK  status: ('A' for Active; 'I' for Inactive)
REMARK    1  A    between atoms: C_1  and  C_14
REMARK    2  A    between atoms: C_2  and  O_7
REMARK    3  A    between atoms: C_3  and  O_9
REMARK    4  A    between atoms: C_6  and  O_11
REMARK    5  A    between atoms: C_14  and  C_15
REMARK    6  A    between atoms: C_16  and  C_17
REMARK                            x       y       z     vdW  Elec       q    Type
REMARK                         _______ _______ _______ _____ _____    ______ ____
ROOT
ATOM      1  C   UNL     1      49.106 -37.707  47.306  0.00  0.00    +0.000 A 
ATOM      2  C   UNL     1      49.700 -38.936  46.962  0.00  0.00    +0.000 A 
ATOM      3  C   UNL     1      48.691 -37.502  48.638  0.00  0.00    +0.000 A 
ATOM      4  C   UNL     1      49.839 -39.929  47.943  0.00  0.00    +0.000 A 
ATOM      5  C   UNL     1      48.827 -38.504  49.598  0.00  0.00    +0.000 A 
ATOM      6  C   UNL     1      49.396 -39.716  49.241  0.00  0.00    +0.000 A 
ENDROOT
BRANCH   2   7
ATOM      7  O   UNL     1      50.200 -39.103  45.691  0.00  0.00    +0.000 OA
ATOM      8  C   UNL     1      49.582 -40.089  44.913  0.00  0.00    +0.000 C 
ENDBRANCH   2   7
BRANCH   3   9
ATOM      9  O   UNL     1      48.131 -36.333  49.087  0.00  0.00    +0.000 OA
ATOM     10  H   UNL     1      47.314 -36.531  49.595  0.00  0.00    +0.000 HD
ENDBRANCH   3   9
BRANCH   6  11
ATOM     11  O   UNL     1      49.521 -40.686  50.189  0.00  0.00    +0.000 OA
ATOM     12  H   UNL     1      49.444 -40.277  51.069  0.00  0.00    +0.000 HD
ENDBRANCH   6  11
BRANCH   1  14
ATOM     13  O   UNL     1      48.005 -36.677  45.497  0.00  0.00    +0.000 OA
ATOM     14  C   UNL     1      48.893 -36.600  46.339  0.00  0.00    +0.000 C 
BRANCH  14  15
ATOM     15  C   UNL     1      49.772 -35.457  46.326  0.00  0.00    +0.000 C 
ATOM     16  C   UNL     1      50.519 -34.515  46.313  0.00  0.00    +0.000 C 
BRANCH  16  17
ATOM     17  C   UNL     1      51.400 -33.394  46.299  0.00  0.00    +0.000 A 
ATOM     18  C   UNL     1      52.615 -33.474  45.620  0.00  0.00    +0.000 A 
ATOM     19  C   UNL     1      51.047 -32.223  46.965  0.00  0.00    +0.000 A 
ATOM     20  C   UNL     1      53.477 -32.380  45.608  0.00  0.00    +0.000 A 
ATOM     21  C   UNL     1      51.910 -31.129  46.952  0.00  0.00    +0.000 A 
ATOM     22  C   UNL     1      53.124 -31.209  46.274  0.00  0.00    +0.000 A 
ENDBRANCH  16  17
ENDBRANCH  14  15
ENDBRANCH   1  14
TORSDOF 6
ENDMDL
MODEL 7
REMARK VINA RESULT:      -5.8      2.912      4.682
REMARK  Name = 641785_Cardamonin.pdbqt.pdb
REMARK  6 active torsions:
REMARK  status: ('A' for Active; 'I' for Inactive)
REMARK    1  A    between atoms: C_1  and  C_14
REMARK    2  A    between atoms: C_2  and  O_7
REMARK    3  A    between atoms: C_3  and  O_9
REMARK    4  A    between atoms: C_6  and  O_11
REMARK    5  A    between atoms: C_14  and  C_15
REMARK    6  A    between atoms: C_16  and  C_17
REMARK                            x       y       z     vdW  Elec       q    Type
REMARK                         _______ _______ _______ _____ _____    ______ ____
ROOT
ATOM      1  C   UNL     1      48.557 -44.576  50.466  0.00  0.00    +0.000 A 
ATOM      2  C   UNL     1      48.582 -43.496  49.563  0.00  0.00    +0.000 A 
ATOM      3  C   UNL     1      48.294 -44.318  51.827  0.00  0.00    +0.000 A 
ATOM      4  C   UNL     1      48.370 -42.195  50.044  0.00  0.00    +0.000 A 
ATOM      5  C   UNL     1      48.096 -43.018  52.289  0.00  0.00    +0.000 A 
ATOM      6  C   UNL     1      48.142 -41.963  51.394  0.00  0.00    +0.000 A 
ENDROOT
BRANCH   2   7
ATOM      7  O   UNL     1      48.736 -43.752  48.220  0.00  0.00    +0.000 OA
ATOM      8  C   UNL     1      47.978 -42.956  47.352  0.00  0.00    +0.000 C 
ENDBRANCH   2   7
BRANCH   3   9
ATOM      9  O   UNL     1      48.216 -45.299  52.784  0.00  0.00    +0.000 OA
ATOM     10  H   UNL     1      49.110 -45.671  52.949  0.00  0.00    +0.000 HD
ENDBRANCH   3   9
BRANCH   6  11
ATOM     11  O   UNL     1      47.947 -40.698  51.860  0.00  0.00    +0.000 OA
ATOM     12  H   UNL     1      48.155 -40.065  51.149  0.00  0.00    +0.000 HD
ENDBRANCH   6  11
BRANCH   1  14
ATOM     13  O   UNL     1      48.023 -46.870  50.427  0.00  0.00    +0.000 OA
ATOM     14  C   UNL     1      48.792 -45.986  50.063  0.00  0.00    +0.000 C 
BRANCH  14  15
ATOM     15  C   UNL     1      49.964 -46.347  49.304  0.00  0.00    +0.000 C 
ATOM     16  C   UNL     1      50.931 -46.662  48.663  0.00  0.00    +0.000 C 
BRANCH  16  17
ATOM     17  C   UNL     1      52.082 -47.032  47.907  0.00  0.00    +0.000 A 
ATOM     18  C   UNL     1      53.330 -46.512  48.245  0.00  0.00    +0.000 A 
ATOM     19  C   UNL     1      51.957 -47.909  46.832  0.00  0.00    +0.000 A 
ATOM     20  C   UNL     1      54.455 -46.871  47.506  0.00  0.00    +0.000 A 
ATOM     21  C   UNL     1      53.083 -48.268  46.094  0.00  0.00    +0.000 A 
ATOM     22  C   UNL     1      54.330 -47.748  46.431  0.00  0.00    +0.000 A 
ENDBRANCH  16  17
ENDBRANCH  14  15
ENDBRANCH   1  14
TORSDOF 6
ENDMDL
MODEL 8
REMARK VINA RESULT:      -5.7      7.635     11.628
REMARK  Name = 641785_Cardamonin.pdbqt.pdb
REMARK  6 active torsions:
REMARK  status: ('A' for Active; 'I' for Inactive)
REMARK    1  A    between atoms: C_1  and  C_14
REMARK    2  A    between atoms: C_2  and  O_7
REMARK    3  A    between atoms: C_3  and  O_9
REMARK    4  A    between atoms: C_6  and  O_11
REMARK    5  A    between atoms: C_14  and  C_15
REMARK    6  A    between atoms: C_16  and  C_17
REMARK                            x       y       z     vdW  Elec       q    Type
REMARK                         _______ _______ _______ _____ _____    ______ ____
ROOT
ATOM      1  C   UNL     1      48.419 -53.016  54.331  0.00  0.00    +0.000 A 
ATOM      2  C   UNL     1      47.767 -52.753  55.551  0.00  0.00    +0.000 A 
ATOM      3  C   UNL     1      49.653 -53.699  54.354  0.00  0.00    +0.000 A 
ATOM      4  C   UNL     1      48.372 -53.153  56.752  0.00  0.00    +0.000 A 
ATOM      5  C   UNL     1      50.245 -54.080  55.557  0.00  0.00    +0.000 A 
ATOM      6  C   UNL     1      49.602 -53.798  56.751  0.00  0.00    +0.000 A 
ENDROOT
BRANCH   2   7
ATOM      7  O   UNL     1      46.517 -52.179  55.530  0.00  0.00    +0.000 OA
ATOM      8  C   UNL     1      45.434 -53.067  55.539  0.00  0.00    +0.000 C 
ENDBRANCH   2   7
BRANCH   3   9
ATOM      9  O   UNL     1      50.355 -54.033  53.223  0.00  0.00    +0.000 OA
ATOM     10  H   UNL     1      51.253 -54.344  53.472  0.00  0.00    +0.000 HD
ENDBRANCH   3   9
BRANCH   6  11
ATOM     11  O   UNL     1      50.192 -54.175  57.919  0.00  0.00    +0.000 OA
ATOM     12  H   UNL     1      50.559 -53.385  58.355  0.00  0.00    +0.000 HD
ENDBRANCH   6  11
BRANCH   1  14
ATOM     13  O   UNL     1      47.022 -53.301  52.457  0.00  0.00    +0.000 OA
ATOM     14  C   UNL     1      47.875 -52.614  53.009  0.00  0.00    +0.000 C 
BRANCH  14  15
ATOM     15  C   UNL     1      48.395 -51.457  52.323  0.00  0.00    +0.000 C 
ATOM     16  C   UNL     1      48.826 -50.502  51.734  0.00  0.00    +0.000 C 
BRANCH  16  17
ATOM     17  C   UNL     1      49.340 -49.366  51.042  0.00  0.00    +0.000 A 
ATOM     18  C   UNL     1      48.823 -49.020  49.795  0.00  0.00    +0.000 A 
ATOM     19  C   UNL     1      50.358 -48.605  51.613  0.00  0.00    +0.000 A 
ATOM     20  C   UNL     1      49.325 -47.911  49.118  0.00  0.00    +0.000 A 
ATOM     21  C   UNL     1      50.861 -47.497  50.935  0.00  0.00    +0.000 A 
ATOM     22  C   UNL     1      50.344 -47.151  49.688  0.00  0.00    +0.000 A 
ENDBRANCH  16  17
ENDBRANCH  14  15
ENDBRANCH   1  14
TORSDOF 6
ENDMDL
MODEL 9
REMARK VINA RESULT:      -5.7     18.706     21.133
REMARK  Name = 641785_Cardamonin.pdbqt.pdb
REMARK  6 active torsions:
REMARK  status: ('A' for Active; 'I' for Inactive)
REMARK    1  A    between atoms: C_1  and  C_14
REMARK    2  A    between atoms: C_2  and  O_7
REMARK    3  A    between atoms: C_3  and  O_9
REMARK    4  A    between atoms: C_6  and  O_11
REMARK    5  A    between atoms: C_14  and  C_15
REMARK    6  A    between atoms: C_16  and  C_17
REMARK                            x       y       z     vdW  Elec       q    Type
REMARK                         _______ _______ _______ _____ _____    ______ ____
ROOT
ATOM      1  C   UNL     1      36.943 -27.935  56.246  0.00  0.00    +0.000 A 
ATOM      2  C   UNL     1      37.052 -26.536  56.123  0.00  0.00    +0.000 A 
ATOM      3  C   UNL     1      38.056 -28.735  55.916  0.00  0.00    +0.000 A 
ATOM      4  C   UNL     1      38.251 -25.981  55.653  0.00  0.00    +0.000 A 
ATOM      5  C   UNL     1      39.237 -28.167  55.440  0.00  0.00    +0.000 A 
ATOM      6  C   UNL     1      39.324 -26.792  55.305  0.00  0.00    +0.000 A 
ENDROOT
BRANCH   2   7
ATOM      7  O   UNL     1      36.007 -25.745  56.541  0.00  0.00    +0.000 OA
ATOM      8  C   UNL     1      36.250 -24.952  57.669  0.00  0.00    +0.000 C 
ENDBRANCH   2   7
BRANCH   3   9
ATOM      9  O   UNL     1      38.067 -30.103  56.029  0.00  0.00    +0.000 OA
ATOM     10  H   UNL     1      38.930 -30.453  55.716  0.00  0.00    +0.000 HD
ENDBRANCH   3   9
BRANCH   6  11
ATOM     11  O   UNL     1      40.484 -26.251  54.838  0.00  0.00    +0.000 OA
ATOM     12  H   UNL     1      40.549 -26.424  53.882  0.00  0.00    +0.000 HD
ENDBRANCH   6  11
BRANCH   1  14
ATOM     13  O   UNL     1      35.628 -29.027  57.867  0.00  0.00    +0.000 OA
ATOM     14  C   UNL     1      35.711 -28.622  56.712  0.00  0.00    +0.000 C 
BRANCH  14  15
ATOM     15  C   UNL     1      34.630 -28.891  55.796  0.00  0.00    +0.000 C 
ATOM     16  C   UNL     1      33.733 -29.098  55.023  0.00  0.00    +0.000 C 
BRANCH  16  17
ATOM     17  C   UNL     1      32.666 -29.350  54.111  0.00  0.00    +0.000 A 
ATOM     18  C   UNL     1      32.055 -28.287  53.448  0.00  0.00    +0.000 A 
ATOM     19  C   UNL     1      32.236 -30.655  53.885  0.00  0.00    +0.000 A 
ATOM     20  C   UNL     1      31.012 -28.531  52.557  0.00  0.00    +0.000 A 
ATOM     21  C   UNL     1      31.193 -30.899  52.994  0.00  0.00    +0.000 A 
ATOM     22  C   UNL     1      30.582 -29.837  52.332  0.00  0.00    +0.000 A 
ENDBRANCH  16  17
ENDBRANCH  14  15
ENDBRANCH   1  14
TORSDOF 6
ENDMDL
