MODEL 1
REMARK VINA RESULT:      -6.9      0.000      0.000
REMARK  Name = 6440856_Goniothalamin.pdbqt.pdb
REMARK  2 active torsions:
REMARK  status: ('A' for Active; 'I' for Inactive)
REMARK    1  A    between atoms: C_1  and  C_5
REMARK    2  A    between atoms: C_2  and  C_10
REMARK                            x       y       z     vdW  Elec       q    Type
REMARK                         _______ _______ _______ _____ _____    ______ ____
ROOT
ATOM      1  C   UNL     1      48.246 -39.119  50.952  0.00  0.00    +0.000 C 
ATOM      2  C   UNL     1      48.442 -40.242  50.576  0.00  0.00    +0.000 C 
ENDROOT
BRANCH   1   5
ATOM      3  O   UNL     1      46.673 -37.279  51.356  0.00  0.00    +0.000 OA
ATOM      4  O   UNL     1      45.369 -35.418  51.814  0.00  0.00    +0.000 OA
ATOM      5  C   UNL     1      48.016 -37.798  51.399  0.00  0.00    +0.000 A 
ATOM      6  C   UNL     1      48.998 -36.901  51.901  0.00  0.00    +0.000 A 
ATOM      7  C   UNL     1      48.837 -35.483  52.396  0.00  0.00    +0.000 A 
ATOM      8  C   UNL     1      47.662 -35.301  52.257  0.00  0.00    +0.000 A 
ATOM      9  C   UNL     1      46.459 -35.970  51.801  0.00  0.00    +0.000 A 
ENDBRANCH   1   5
BRANCH   2  10
ATOM     10  C   UNL     1      48.675 -41.577  50.129  0.00  0.00    +0.000 A 
ATOM     11  C   UNL     1      48.319 -42.653  50.938  0.00  0.00    +0.000 A 
ATOM     12  C   UNL     1      49.259 -41.801  48.884  0.00  0.00    +0.000 A 
ATOM     13  C   UNL     1      48.548 -43.956  50.502  0.00  0.00    +0.000 A 
ATOM     14  C   UNL     1      49.487 -43.104  48.448  0.00  0.00    +0.000 A 
ATOM     15  C   UNL     1      49.131 -44.181  49.257  0.00  0.00    +0.000 A 
ENDBRANCH   2  10
TORSDOF 2
ENDMDL
MODEL 2
REMARK VINA RESULT:      -6.5      2.564      7.034
REMARK  Name = 6440856_Goniothalamin.pdbqt.pdb
REMARK  2 active torsions:
REMARK  status: ('A' for Active; 'I' for Inactive)
REMARK    1  A    between atoms: C_1  and  C_5
REMARK    2  A    between atoms: C_2  and  C_10
REMARK                            x       y       z     vdW  Elec       q    Type
REMARK                         _______ _______ _______ _____ _____    ______ ____
ROOT
ATOM      1  C   UNL     1      48.581 -39.922  50.315  0.00  0.00    +0.000 C 
ATOM      2  C   UNL     1      48.386 -38.844  50.807  0.00  0.00    +0.000 C 
ENDROOT
BRANCH   1   5
ATOM      3  O   UNL     1      49.362 -41.250  48.405  0.00  0.00    +0.000 OA
ATOM      4  O   UNL     1      50.044 -42.695  46.724  0.00  0.00    +0.000 OA
ATOM      5  C   UNL     1      48.807 -41.191  49.733  0.00  0.00    +0.000 A 
ATOM      6  C   UNL     1      48.537 -42.449  50.337  0.00  0.00    +0.000 A 
ATOM      7  C   UNL     1      48.748 -43.840  49.787  0.00  0.00    +0.000 A 
ATOM      8  C   UNL     1      49.204 -43.615  48.703  0.00  0.00    +0.000 A 
ATOM      9  C   UNL     1      49.580 -42.512  47.840  0.00  0.00    +0.000 A 
ENDBRANCH   1   5
BRANCH   2  10
ATOM     10  C   UNL     1      48.156 -37.564  51.392  0.00  0.00    +0.000 A 
ATOM     11  C   UNL     1      46.917 -36.944  51.243  0.00  0.00    +0.000 A 
ATOM     12  C   UNL     1      49.170 -36.936  52.112  0.00  0.00    +0.000 A 
ATOM     13  C   UNL     1      46.693 -35.693  51.813  0.00  0.00    +0.000 A 
ATOM     14  C   UNL     1      48.944 -35.685  52.683  0.00  0.00    +0.000 A 
ATOM     15  C   UNL     1      47.706 -35.065  52.533  0.00  0.00    +0.000 A 
ENDBRANCH   2  10
TORSDOF 2
ENDMDL
MODEL 3
REMARK VINA RESULT:      -6.4      1.329      2.145
REMARK  Name = 6440856_Goniothalamin.pdbqt.pdb
REMARK  2 active torsions:
REMARK  status: ('A' for Active; 'I' for Inactive)
REMARK    1  A    between atoms: C_1  and  C_5
REMARK    2  A    between atoms: C_2  and  C_10
REMARK                            x       y       z     vdW  Elec       q    Type
REMARK                         _______ _______ _______ _____ _____    ______ ____
ROOT
ATOM      1  C   UNL     1      48.152 -39.126  51.040  0.00  0.00    +0.000 C 
ATOM      2  C   UNL     1      48.302 -40.281  50.749  0.00  0.00    +0.000 C 
ENDROOT
BRANCH   1   5
ATOM      3  O   UNL     1      49.082 -37.056  51.974  0.00  0.00    +0.000 OA
ATOM      4  O   UNL     1      49.753 -35.002  52.816  0.00  0.00    +0.000 OA
ATOM      5  C   UNL     1      47.976 -37.766  51.387  0.00  0.00    +0.000 A 
ATOM      6  C   UNL     1      46.788 -37.005  51.212  0.00  0.00    +0.000 A 
ATOM      7  C   UNL     1      46.518 -35.558  51.553  0.00  0.00    +0.000 A 
ATOM      8  C   UNL     1      47.567 -35.210  52.014  0.00  0.00    +0.000 A 
ATOM      9  C   UNL     1      48.895 -35.711  52.314  0.00  0.00    +0.000 A 
ENDBRANCH   1   5
BRANCH   2  10
ATOM     10  C   UNL     1      48.481 -41.653  50.403  0.00  0.00    +0.000 A 
ATOM     11  C   UNL     1      49.188 -41.994  49.253  0.00  0.00    +0.000 A 
ATOM     12  C   UNL     1      47.948 -42.650  51.218  0.00  0.00    +0.000 A 
ATOM     13  C   UNL     1      49.361 -43.334  48.915  0.00  0.00    +0.000 A 
ATOM     14  C   UNL     1      48.123 -43.990  50.880  0.00  0.00    +0.000 A 
ATOM     15  C   UNL     1      48.830 -44.331  49.729  0.00  0.00    +0.000 A 
ENDBRANCH   2  10
TORSDOF 2
ENDMDL
MODEL 4
REMARK VINA RESULT:      -6.4      1.442      2.370
REMARK  Name = 6440856_Goniothalamin.pdbqt.pdb
REMARK  2 active torsions:
REMARK  status: ('A' for Active; 'I' for Inactive)
REMARK    1  A    between atoms: C_1  and  C_5
REMARK    2  A    between atoms: C_2  and  C_10
REMARK                            x       y       z     vdW  Elec       q    Type
REMARK                         _______ _______ _______ _____ _____    ______ ____
ROOT
ATOM      1  C   UNL     1      48.228 -40.436  50.680  0.00  0.00    +0.000 C 
ATOM      2  C   UNL     1      48.292 -41.627  50.815  0.00  0.00    +0.000 C 
ENDROOT
BRANCH   1   5
ATOM      3  O   UNL     1      47.132 -38.314  51.245  0.00  0.00    +0.000 OA
ATOM      4  O   UNL     1      46.250 -36.205  51.638  0.00  0.00    +0.000 OA
ATOM      5  C   UNL     1      48.151 -39.032  50.524  0.00  0.00    +0.000 A 
ATOM      6  C   UNL     1      48.998 -38.233  49.709  0.00  0.00    +0.000 A 
ATOM      7  C   UNL     1      48.984 -36.738  49.489  0.00  0.00    +0.000 A 
ATOM      8  C   UNL     1      48.070 -36.392  50.181  0.00  0.00    +0.000 A 
ATOM      9  C   UNL     1      47.067 -36.925  51.083  0.00  0.00    +0.000 A 
ENDBRANCH   1   5
BRANCH   2  10
ATOM     10  C   UNL     1      48.370 -43.042  50.976  0.00  0.00    +0.000 A 
ATOM     11  C   UNL     1      48.896 -43.830  49.955  0.00  0.00    +0.000 A 
ATOM     12  C   UNL     1      47.919 -43.633  52.154  0.00  0.00    +0.000 A 
ATOM     13  C   UNL     1      48.970 -45.213  50.113  0.00  0.00    +0.000 A 
ATOM     14  C   UNL     1      47.994 -45.015  52.311  0.00  0.00    +0.000 A 
ATOM     15  C   UNL     1      48.521 -45.804  51.291  0.00  0.00    +0.000 A 
ENDBRANCH   2  10
TORSDOF 2
ENDMDL
MODEL 5
REMARK VINA RESULT:      -6.3      2.432      6.938
REMARK  Name = 6440856_Goniothalamin.pdbqt.pdb
REMARK  2 active torsions:
REMARK  status: ('A' for Active; 'I' for Inactive)
REMARK    1  A    between atoms: C_1  and  C_5
REMARK    2  A    between atoms: C_2  and  C_10
REMARK                            x       y       z     vdW  Elec       q    Type
REMARK                         _______ _______ _______ _____ _____    ______ ____
ROOT
ATOM      1  C   UNL     1      48.411 -39.862  50.330  0.00  0.00    +0.000 C 
ATOM      2  C   UNL     1      48.302 -38.779  50.837  0.00  0.00    +0.000 C 
ENDROOT
BRANCH   1   5
ATOM      3  O   UNL     1      47.764 -42.227  50.257  0.00  0.00    +0.000 OA
ATOM      4  O   UNL     1      47.298 -44.485  50.008  0.00  0.00    +0.000 OA
ATOM      5  C   UNL     1      48.538 -41.135  49.728  0.00  0.00    +0.000 A 
ATOM      6  C   UNL     1      49.374 -41.459  48.625  0.00  0.00    +0.000 A 
ATOM      7  C   UNL     1      49.567 -42.785  47.926  0.00  0.00    +0.000 A 
ATOM      8  C   UNL     1      48.832 -43.502  48.543  0.00  0.00    +0.000 A 
ATOM      9  C   UNL     1      47.899 -43.483  49.653  0.00  0.00    +0.000 A 
ENDBRANCH   1   5
BRANCH   2  10
ATOM     10  C   UNL     1      48.174 -37.493  51.440  0.00  0.00    +0.000 A 
ATOM     11  C   UNL     1      49.254 -36.931  52.117  0.00  0.00    +0.000 A 
ATOM     12  C   UNL     1      46.969 -36.800  51.350  0.00  0.00    +0.000 A 
ATOM     13  C   UNL     1      49.128 -35.675  52.707  0.00  0.00    +0.000 A 
ATOM     14  C   UNL     1      46.844 -35.544  51.939  0.00  0.00    +0.000 A 
ATOM     15  C   UNL     1      47.924 -34.982  52.617  0.00  0.00    +0.000 A 
ENDBRANCH   2  10
TORSDOF 2
ENDMDL
MODEL 6
REMARK VINA RESULT:      -5.6     15.956     17.152
REMARK  Name = 6440856_Goniothalamin.pdbqt.pdb
REMARK  2 active torsions:
REMARK  status: ('A' for Active; 'I' for Inactive)
REMARK    1  A    between atoms: C_1  and  C_5
REMARK    2  A    between atoms: C_2  and  C_10
REMARK                            x       y       z     vdW  Elec       q    Type
REMARK                         _______ _______ _______ _____ _____    ______ ____
ROOT
ATOM      1  C   UNL     1      59.026 -49.140  59.685  0.00  0.00    +0.000 C 
ATOM      2  C   UNL     1      58.563 -50.230  59.489  0.00  0.00    +0.000 C 
ENDROOT
BRANCH   1   5
ATOM      3  O   UNL     1      59.361 -46.831  58.924  0.00  0.00    +0.000 OA
ATOM      4  O   UNL     1      59.799 -44.615  58.401  0.00  0.00    +0.000 OA
ATOM      5  C   UNL     1      59.574 -47.856  59.912  0.00  0.00    +0.000 A 
ATOM      6  C   UNL     1      60.333 -47.460  61.047  0.00  0.00    +0.000 A 
ATOM      7  C   UNL     1      60.950 -46.118  61.365  0.00  0.00    +0.000 A 
ATOM      8  C   UNL     1      60.636 -45.465  60.411  0.00  0.00    +0.000 A 
ATOM      9  C   UNL     1      59.909 -45.565  59.161  0.00  0.00    +0.000 A 
ENDBRANCH   1   5
BRANCH   2  10
ATOM     10  C   UNL     1      58.014 -51.526  59.257  0.00  0.00    +0.000 A 
ATOM     11  C   UNL     1      57.361 -52.199  60.287  0.00  0.00    +0.000 A 
ATOM     12  C   UNL     1      58.130 -52.115  58.000  0.00  0.00    +0.000 A 
ATOM     13  C   UNL     1      56.825 -53.465  60.060  0.00  0.00    +0.000 A 
ATOM     14  C   UNL     1      57.593 -53.381  57.774  0.00  0.00    +0.000 A 
ATOM     15  C   UNL     1      56.941 -54.054  58.804  0.00  0.00    +0.000 A 
ENDBRANCH   2  10
TORSDOF 2
ENDMDL
MODEL 7
REMARK VINA RESULT:      -5.6      2.085      2.769
REMARK  Name = 6440856_Goniothalamin.pdbqt.pdb
REMARK  2 active torsions:
REMARK  status: ('A' for Active; 'I' for Inactive)
REMARK    1  A    between atoms: C_1  and  C_5
REMARK    2  A    between atoms: C_2  and  C_10
REMARK                            x       y       z     vdW  Elec       q    Type
REMARK                         _______ _______ _______ _____ _____    ______ ____
ROOT
ATOM      1  C   UNL     1      48.373 -40.379  50.562  0.00  0.00    +0.000 C 
ATOM      2  C   UNL     1      48.373 -41.562  50.764  0.00  0.00    +0.000 C 
ENDROOT
BRANCH   1   5
ATOM      3  O   UNL     1      49.066 -38.488  49.160  0.00  0.00    +0.000 OA
ATOM      4  O   UNL     1      49.610 -36.564  47.986  0.00  0.00    +0.000 OA
ATOM      5  C   UNL     1      48.377 -38.985  50.322  0.00  0.00    +0.000 A 
ATOM      6  C   UNL     1      47.754 -37.995  51.130  0.00  0.00    +0.000 A 
ATOM      7  C   UNL     1      47.711 -36.496  50.945  0.00  0.00    +0.000 A 
ATOM      8  C   UNL     1      48.340 -36.350  49.937  0.00  0.00    +0.000 A 
ATOM      9  C   UNL     1      49.063 -37.107  48.933  0.00  0.00    +0.000 A 
ENDBRANCH   1   5
BRANCH   2  10
ATOM     10  C   UNL     1      48.372 -42.968  51.003  0.00  0.00    +0.000 A 
ATOM     11  C   UNL     1      47.919 -43.466  52.222  0.00  0.00    +0.000 A 
ATOM     12  C   UNL     1      48.823 -43.842  50.015  0.00  0.00    +0.000 A 
ATOM     13  C   UNL     1      47.919 -44.840  52.455  0.00  0.00    +0.000 A 
ATOM     14  C   UNL     1      48.822 -45.215  50.249  0.00  0.00    +0.000 A 
ATOM     15  C   UNL     1      48.369 -45.713  51.469  0.00  0.00    +0.000 A 
ENDBRANCH   2  10
TORSDOF 2
ENDMDL
MODEL 8
REMARK VINA RESULT:      -5.5      3.446      7.118
REMARK  Name = 6440856_Goniothalamin.pdbqt.pdb
REMARK  2 active torsions:
REMARK  status: ('A' for Active; 'I' for Inactive)
REMARK    1  A    between atoms: C_1  and  C_5
REMARK    2  A    between atoms: C_2  and  C_10
REMARK                            x       y       z     vdW  Elec       q    Type
REMARK                         _______ _______ _______ _____ _____    ______ ____
ROOT
ATOM      1  C   UNL     1      48.277 -42.672  50.770  0.00  0.00    +0.000 C 
ATOM      2  C   UNL     1      48.490 -41.524  50.489  0.00  0.00    +0.000 C 
ENDROOT
BRANCH   1   5
ATOM      3  O   UNL     1      47.019 -44.319  52.084  0.00  0.00    +0.000 OA
ATOM      4  O   UNL     1      45.955 -46.040  53.217  0.00  0.00    +0.000 OA
ATOM      5  C   UNL     1      48.025 -44.024  51.096  0.00  0.00    +0.000 A 
ATOM      6  C   UNL     1      48.677 -45.156  50.535  0.00  0.00    +0.000 A 
ATOM      7  C   UNL     1      48.469 -46.624  50.826  0.00  0.00    +0.000 A 
ATOM      8  C   UNL     1      47.607 -46.594  51.657  0.00  0.00    +0.000 A 
ATOM      9  C   UNL     1      46.779 -45.662  52.398  0.00  0.00    +0.000 A 
ENDBRANCH   1   5
BRANCH   2  10
ATOM     10  C   UNL     1      48.745 -40.161  50.156  0.00  0.00    +0.000 A 
ATOM     11  C   UNL     1      48.082 -39.142  50.838  0.00  0.00    +0.000 A 
ATOM     12  C   UNL     1      49.655 -39.849  49.149  0.00  0.00    +0.000 A 
ATOM     13  C   UNL     1      48.331 -37.811  50.512  0.00  0.00    +0.000 A 
ATOM     14  C   UNL     1      49.904 -38.518  48.823  0.00  0.00    +0.000 A 
ATOM     15  C   UNL     1      49.241 -37.500  49.505  0.00  0.00    +0.000 A 
ENDBRANCH   2  10
TORSDOF 2
ENDMDL
MODEL 9
REMARK VINA RESULT:      -5.3      4.043      6.668
REMARK  Name = 6440856_Goniothalamin.pdbqt.pdb
REMARK  2 active torsions:
REMARK  status: ('A' for Active; 'I' for Inactive)
REMARK    1  A    between atoms: C_1  and  C_5
REMARK    2  A    between atoms: C_2  and  C_10
REMARK                            x       y       z     vdW  Elec       q    Type
REMARK                         _______ _______ _______ _____ _____    ______ ____
ROOT
ATOM      1  C   UNL     1      48.824 -39.436  48.470  0.00  0.00    +0.000 C 
ATOM      2  C   UNL     1      48.908 -38.430  47.820  0.00  0.00    +0.000 C 
ENDROOT
BRANCH   1   5
ATOM      3  O   UNL     1      47.799 -40.651  50.340  0.00  0.00    +0.000 OA
ATOM      4  O   UNL     1      46.965 -41.980  52.047  0.00  0.00    +0.000 OA
ATOM      5  C   UNL     1      48.721 -40.622  49.233  0.00  0.00    +0.000 A 
ATOM      6  C   UNL     1      49.450 -41.823  49.017  0.00  0.00    +0.000 A 
ATOM      7  C   UNL     1      49.399 -43.125  49.781  0.00  0.00    +0.000 A 
ATOM      8  C   UNL     1      48.582 -42.890  50.624  0.00  0.00    +0.000 A 
ATOM      9  C   UNL     1      47.707 -41.831  51.088  0.00  0.00    +0.000 A 
ENDBRANCH   1   5
BRANCH   2  10
ATOM     10  C   UNL     1      49.009 -37.235  47.048  0.00  0.00    +0.000 A 
ATOM     11  C   UNL     1      48.383 -37.155  45.806  0.00  0.00    +0.000 A 
ATOM     12  C   UNL     1      49.732 -36.150  47.538  0.00  0.00    +0.000 A 
ATOM     13  C   UNL     1      48.482 -35.988  45.052  0.00  0.00    +0.000 A 
ATOM     14  C   UNL     1      49.831 -34.983  46.783  0.00  0.00    +0.000 A 
ATOM     15  C   UNL     1      49.205 -34.902  45.541  0.00  0.00    +0.000 A 
ENDBRANCH   2  10
TORSDOF 2
ENDMDL
