MODEL 1
REMARK VINA RESULT:      -4.7      0.000      0.000
REMARK  Name = 649_Dihydrouracil.pdb
REMARK  0 active torsions:
REMARK  status: ('A' for Active; 'I' for Inactive)
REMARK                            x       y       z     vdW  Elec       q    Type
REMARK                         _______ _______ _______ _____ _____    ______ ____
ROOT
ATOM      1  O   UNL     1      47.136 -35.906  50.620  0.00  0.00    +0.000 OA
ATOM      2  O   UNL     1      47.073 -40.519  50.695  0.00  0.00    +0.000 OA
ATOM      3  N   UNL     1      49.083 -39.477  51.061  0.00  0.00    +0.000 N 
ATOM      4  N   UNL     1      47.126 -38.222  50.662  0.00  0.00    +0.000 N 
ATOM      5  C   UNL     1      49.796 -38.349  51.176  0.00  0.00    +0.000 A 
ATOM      6  C   UNL     1      49.136 -37.017  51.025  0.00  0.00    +0.000 A 
ATOM      7  C   UNL     1      47.727 -36.966  50.754  0.00  0.00    +0.000 A 
ATOM      8  C   UNL     1      47.718 -39.483  50.799  0.00  0.00    +0.000 A 
ATOM      9  H   UNL     1      49.540 -40.375  51.166  0.00  0.00    +0.000 HD
ATOM     10  H   UNL     1      46.137 -38.222  50.472  0.00  0.00    +0.000 HD
ENDROOT
TORSDOF 0
ENDMDL
MODEL 2
REMARK VINA RESULT:      -4.7      1.948      3.287
REMARK  Name = 649_Dihydrouracil.pdb
REMARK  0 active torsions:
REMARK  status: ('A' for Active; 'I' for Inactive)
REMARK                            x       y       z     vdW  Elec       q    Type
REMARK                         _______ _______ _______ _____ _____    ______ ____
ROOT
ATOM      1  O   UNL     1      48.310 -38.697  50.199  0.00  0.00    +0.000 OA
ATOM      2  O   UNL     1      45.341 -35.548  51.800  0.00  0.00    +0.000 OA
ATOM      3  N   UNL     1      47.572 -35.212  52.212  0.00  0.00    +0.000 N 
ATOM      4  N   UNL     1      46.837 -37.104  51.011  0.00  0.00    +0.000 N 
ATOM      5  C   UNL     1      48.843 -35.616  52.091  0.00  0.00    +0.000 A 
ATOM      6  C   UNL     1      49.171 -36.880  51.365  0.00  0.00    +0.000 A 
ATOM      7  C   UNL     1      48.101 -37.655  50.801  0.00  0.00    +0.000 A 
ATOM      8  C   UNL     1      46.502 -35.924  51.685  0.00  0.00    +0.000 A 
ATOM      9  H   UNL     1      47.361 -34.353  52.704  0.00  0.00    +0.000 HD
ATOM     10  H   UNL     1      46.063 -37.624  50.628  0.00  0.00    +0.000 HD
ENDROOT
TORSDOF 0
ENDMDL
MODEL 3
REMARK VINA RESULT:      -4.3     11.351     12.457
REMARK  Name = 649_Dihydrouracil.pdb
REMARK  0 active torsions:
REMARK  status: ('A' for Active; 'I' for Inactive)
REMARK                            x       y       z     vdW  Elec       q    Type
REMARK                         _______ _______ _______ _____ _____    ______ ____
ROOT
ATOM      1  O   UNL     1      38.860 -27.517  55.091  0.00  0.00    +0.000 OA
ATOM      2  O   UNL     1      40.530 -30.114  51.661  0.00  0.00    +0.000 OA
ATOM      3  N   UNL     1      40.673 -30.948  53.792  0.00  0.00    +0.000 N 
ATOM      4  N   UNL     1      39.704 -28.836  53.384  0.00  0.00    +0.000 N 
ATOM      5  C   UNL     1      40.447 -30.809  55.105  0.00  0.00    +0.000 A 
ATOM      6  C   UNL     1      39.787 -29.578  55.635  0.00  0.00    +0.000 A 
ATOM      7  C   UNL     1      39.401 -28.545  54.714  0.00  0.00    +0.000 A 
ATOM      8  C   UNL     1      40.319 -29.979  52.861  0.00  0.00    +0.000 A 
ATOM      9  H   UNL     1      41.120 -31.786  53.444  0.00  0.00    +0.000 HD
ATOM     10  H   UNL     1      39.446 -28.131  52.711  0.00  0.00    +0.000 HD
ENDROOT
TORSDOF 0
ENDMDL
MODEL 4
REMARK VINA RESULT:      -4.2      2.179      3.604
REMARK  Name = 649_Dihydrouracil.pdb
REMARK  0 active torsions:
REMARK  status: ('A' for Active; 'I' for Inactive)
REMARK                            x       y       z     vdW  Elec       q    Type
REMARK                         _______ _______ _______ _____ _____    ______ ____
ROOT
ATOM      1  O   UNL     1      47.049 -41.356  51.280  0.00  0.00    +0.000 OA
ATOM      2  O   UNL     1      50.339 -38.130  51.523  0.00  0.00    +0.000 OA
ATOM      3  N   UNL     1      50.218 -39.383  49.606  0.00  0.00    +0.000 N 
ATOM      4  N   UNL     1      48.707 -39.742  51.381  0.00  0.00    +0.000 N 
ATOM      5  C   UNL     1      49.631 -40.355  48.896  0.00  0.00    +0.000 A 
ATOM      6  C   UNL     1      48.469 -41.108  49.458  0.00  0.00    +0.000 A 
ATOM      7  C   UNL     1      47.993 -40.773  50.771  0.00  0.00    +0.000 A 
ATOM      8  C   UNL     1      49.796 -39.021  50.880  0.00  0.00    +0.000 A 
ATOM      9  H   UNL     1      51.004 -38.879  49.216  0.00  0.00    +0.000 HD
ATOM     10  H   UNL     1      48.398 -39.483  52.305  0.00  0.00    +0.000 HD
ENDROOT
TORSDOF 0
ENDMDL
MODEL 5
REMARK VINA RESULT:      -3.8     13.014     14.224
REMARK  Name = 649_Dihydrouracil.pdb
REMARK  0 active torsions:
REMARK  status: ('A' for Active; 'I' for Inactive)
REMARK                            x       y       z     vdW  Elec       q    Type
REMARK                         _______ _______ _______ _____ _____    ______ ____
ROOT
ATOM      1  O   UNL     1      37.876 -27.763  52.474  0.00  0.00    +0.000 OA
ATOM      2  O   UNL     1      40.543 -30.095  55.431  0.00  0.00    +0.000 OA
ATOM      3  N   UNL     1      38.839 -28.833  56.304  0.00  0.00    +0.000 N 
ATOM      4  N   UNL     1      39.203 -28.925  53.976  0.00  0.00    +0.000 N 
ATOM      5  C   UNL     1      37.802 -28.005  56.120  0.00  0.00    +0.000 A 
ATOM      6  C   UNL     1      37.405 -27.582  54.743  0.00  0.00    +0.000 A 
ATOM      7  C   UNL     1      38.154 -28.076  53.621  0.00  0.00    +0.000 A 
ATOM      8  C   UNL     1      39.595 -29.338  55.254  0.00  0.00    +0.000 A 
ATOM      9  H   UNL     1      39.098 -29.114  57.241  0.00  0.00    +0.000 HD
ATOM     10  H   UNL     1      39.749 -29.290  53.211  0.00  0.00    +0.000 HD
ENDROOT
TORSDOF 0
ENDMDL
MODEL 6
REMARK VINA RESULT:      -3.7      2.793      2.854
REMARK  Name = 649_Dihydrouracil.pdb
REMARK  0 active torsions:
REMARK  status: ('A' for Active; 'I' for Inactive)
REMARK                            x       y       z     vdW  Elec       q    Type
REMARK                         _______ _______ _______ _____ _____    ______ ____
ROOT
ATOM      1  O   UNL     1      48.635 -36.128  48.091  0.00  0.00    +0.000 OA
ATOM      2  O   UNL     1      50.061 -40.465  47.422  0.00  0.00    +0.000 OA
ATOM      3  N   UNL     1      50.129 -39.642  49.561  0.00  0.00    +0.000 N 
ATOM      4  N   UNL     1      49.355 -38.307  47.777  0.00  0.00    +0.000 N 
ATOM      5  C   UNL     1      49.916 -38.636  50.420  0.00  0.00    +0.000 A 
ATOM      6  C   UNL     1      49.372 -37.331  49.938  0.00  0.00    +0.000 A 
ATOM      7  C   UNL     1      49.081 -37.172  48.541  0.00  0.00    +0.000 A 
ATOM      8  C   UNL     1      49.864 -39.540  48.201  0.00  0.00    +0.000 A 
ATOM      9  H   UNL     1      50.497 -40.522  49.898  0.00  0.00    +0.000 HD
ATOM     10  H   UNL     1      49.162 -38.229  46.791  0.00  0.00    +0.000 HD
ENDROOT
TORSDOF 0
ENDMDL
MODEL 7
REMARK VINA RESULT:      -3.6     22.931     23.115
REMARK  Name = 649_Dihydrouracil.pdb
REMARK  0 active torsions:
REMARK  status: ('A' for Active; 'I' for Inactive)
REMARK                            x       y       z     vdW  Elec       q    Type
REMARK                         _______ _______ _______ _____ _____    ______ ____
ROOT
ATOM      1  O   UNL     1      51.141 -35.355  74.091  0.00  0.00    +0.000 OA
ATOM      2  O   UNL     1      47.754 -37.896  72.256  0.00  0.00    +0.000 OA
ATOM      3  N   UNL     1      48.937 -38.801  74.000  0.00  0.00    +0.000 N 
ATOM      4  N   UNL     1      49.445 -36.647  73.185  0.00  0.00    +0.000 N 
ATOM      5  C   UNL     1      49.911 -38.696  74.914  0.00  0.00    +0.000 A 
ATOM      6  C   UNL     1      50.747 -37.460  74.992  0.00  0.00    +0.000 A 
ATOM      7  C   UNL     1      50.489 -36.387  74.073  0.00  0.00    +0.000 A 
ATOM      8  C   UNL     1      48.647 -37.792  73.089  0.00  0.00    +0.000 A 
ATOM      9  H   UNL     1      48.376 -39.642  73.956  0.00  0.00    +0.000 HD
ATOM     10  H   UNL     1      49.238 -35.913  72.525  0.00  0.00    +0.000 HD
ENDROOT
TORSDOF 0
ENDMDL
MODEL 8
REMARK VINA RESULT:      -3.5     23.744     24.254
REMARK  Name = 649_Dihydrouracil.pdb
REMARK  0 active torsions:
REMARK  status: ('A' for Active; 'I' for Inactive)
REMARK                            x       y       z     vdW  Elec       q    Type
REMARK                         _______ _______ _______ _____ _____    ______ ____
ROOT
ATOM      1  O   UNL     1      63.015 -43.554  69.978  0.00  0.00    +0.000 OA
ATOM      2  O   UNL     1      59.230 -41.233  71.235  0.00  0.00    +0.000 OA
ATOM      3  N   UNL     1      61.122 -40.018  70.786  0.00  0.00    +0.000 N 
ATOM      4  N   UNL     1      61.126 -42.370  70.607  0.00  0.00    +0.000 N 
ATOM      5  C   UNL     1      62.410 -39.977  70.422  0.00  0.00    +0.000 A 
ATOM      6  C   UNL     1      63.151 -41.238  70.114  0.00  0.00    +0.000 A 
ATOM      7  C   UNL     1      62.460 -42.493  70.216  0.00  0.00    +0.000 A 
ATOM      8  C   UNL     1      60.408 -41.205  70.900  0.00  0.00    +0.000 A 
ATOM      9  H   UNL     1      60.630 -39.158  70.992  0.00  0.00    +0.000 HD
ATOM     10  H   UNL     1      60.612 -43.233  70.689  0.00  0.00    +0.000 HD
ENDROOT
TORSDOF 0
ENDMDL
MODEL 9
REMARK VINA RESULT:      -3.4     13.135     14.344
REMARK  Name = 649_Dihydrouracil.pdb
REMARK  0 active torsions:
REMARK  status: ('A' for Active; 'I' for Inactive)
REMARK                            x       y       z     vdW  Elec       q    Type
REMARK                         _______ _______ _______ _____ _____    ______ ____
ROOT
ATOM      1  O   UNL     1      36.306 -29.025  56.559  0.00  0.00    +0.000 OA
ATOM      2  O   UNL     1      40.610 -30.313  55.506  0.00  0.00    +0.000 OA
ATOM      3  N   UNL     1      39.866 -28.308  54.676  0.00  0.00    +0.000 N 
ATOM      4  N   UNL     1      38.469 -29.653  56.019  0.00  0.00    +0.000 N 
ATOM      5  C   UNL     1      38.894 -27.394  54.560  0.00  0.00    +0.000 A 
ATOM      6  C   UNL     1      37.573 -27.604  55.228  0.00  0.00    +0.000 A 
ATOM      7  C   UNL     1      37.364 -28.801  55.994  0.00  0.00    +0.000 A 
ATOM      8  C   UNL     1      39.715 -29.482  55.405  0.00  0.00    +0.000 A 
ATOM      9  H   UNL     1      40.757 -28.156  54.220  0.00  0.00    +0.000 HD
ATOM     10  H   UNL     1      38.355 -30.503  56.548  0.00  0.00    +0.000 HD
ENDROOT
TORSDOF 0
ENDMDL
