MODEL 1
REMARK VINA RESULT:      -9.8      0.000      0.000
REMARK  Name = 6509753_ManzamineA.pdbqt.pdb
REMARK  2 active torsions:
REMARK  status: ('A' for Active; 'I' for Inactive)
REMARK    1  A    between atoms: C_7  and  O_42
REMARK    2  A    between atoms: C_11  and  C_30
REMARK                            x       y       z     vdW  Elec       q    Type
REMARK                         _______ _______ _______ _____ _____    ______ ____
ROOT
ATOM      1  N   UNL     1      51.841 -46.261  46.585  0.00  0.00    +0.000 N 
ATOM      2  N   UNL     1      46.880 -46.723  46.738  0.00  0.00    +0.000 N 
ATOM      3  C   UNL     1      49.468 -45.503  47.036  0.00  0.00    +0.000 C 
ATOM      4  C   UNL     1      50.789 -46.101  47.621  0.00  0.00    +0.000 C 
ATOM      5  C   UNL     1      48.824 -44.233  47.731  0.00  0.00    +0.000 C 
ATOM      6  C   UNL     1      50.010 -45.158  45.725  0.00  0.00    +0.000 C 
ATOM      7  C   UNL     1      51.231 -45.688  49.027  0.00  0.00    +0.000 C 
ATOM      8  C   UNL     1      48.358 -46.506  46.872  0.00  0.00    +0.000 C 
ATOM      9  C   UNL     1      51.238 -45.731  45.342  0.00  0.00    +0.000 C 
ATOM     10  C   UNL     1      47.387 -44.195  47.621  0.00  0.00    +0.000 C 
ATOM     11  C   UNL     1      49.459 -43.741  48.945  0.00  0.00    +0.000 C 
ATOM     12  C   UNL     1      50.426 -44.519  49.319  0.00  0.00    +0.000 C 
ATOM     13  C   UNL     1      46.509 -45.377  47.199  0.00  0.00    +0.000 C 
ATOM     14  C   UNL     1      52.283 -47.653  46.459  0.00  0.00    +0.000 C 
ATOM     15  C   UNL     1      51.054 -46.794  49.963  0.00  0.00    +0.000 C 
ATOM     16  C   UNL     1      51.524 -46.306  44.068  0.00  0.00    +0.000 C 
ATOM     17  C   UNL     1      46.478 -47.681  47.754  0.00  0.00    +0.000 C 
ATOM     18  C   UNL     1      52.724 -48.958  45.770  0.00  0.00    +0.000 C 
ATOM     19  C   UNL     1      50.689 -47.945  50.902  0.00  0.00    +0.000 C 
ATOM     20  C   UNL     1      51.875 -47.146  43.284  0.00  0.00    +0.000 C 
ATOM     21  C   UNL     1      52.845 -49.427  44.322  0.00  0.00    +0.000 C 
ATOM     22  C   UNL     1      46.236 -48.704  48.867  0.00  0.00    +0.000 C 
ATOM     23  C   UNL     1      52.453 -48.555  43.134  0.00  0.00    +0.000 C 
ATOM     24  C   UNL     1      49.887 -49.052  51.582  0.00  0.00    +0.000 C 
ATOM     25  C   UNL     1      46.508 -49.591  50.078  0.00  0.00    +0.000 C 
ATOM     26  C   UNL     1      47.483 -50.017  51.164  0.00  0.00    +0.000 C 
ATOM     27  C   UNL     1      48.880 -49.695  51.664  0.00  0.00    +0.000 C 
ENDROOT
BRANCH  11  30
ATOM     28  N   UNL     1      48.436 -42.910  50.981  0.00  0.00    +0.000 NA
ATOM     29  N   UNL     1      49.633 -40.778  48.203  0.00  0.00    +0.000 N 
ATOM     30  C   UNL     1      48.994 -42.642  49.779  0.00  0.00    +0.000 A 
ATOM     31  C   UNL     1      49.104 -41.321  49.353  0.00  0.00    +0.000 A 
ATOM     32  C   UNL     1      48.649 -40.257  50.134  0.00  0.00    +0.000 A 
ATOM     33  C   UNL     1      47.998 -41.875  51.732  0.00  0.00    +0.000 A 
ATOM     34  C   UNL     1      48.066 -40.534  51.380  0.00  0.00    +0.000 A 
ATOM     35  C   UNL     1      48.912 -39.052  49.414  0.00  0.00    +0.000 A 
ATOM     36  C   UNL     1      49.526 -39.408  48.215  0.00  0.00    +0.000 A 
ATOM     37  C   UNL     1      48.685 -37.688  49.678  0.00  0.00    +0.000 A 
ATOM     38  C   UNL     1      49.930 -38.471  47.259  0.00  0.00    +0.000 A 
ATOM     39  C   UNL     1      49.080 -36.737  48.734  0.00  0.00    +0.000 A 
ATOM     40  C   UNL     1      49.692 -37.126  47.548  0.00  0.00    +0.000 A 
ATOM     41  H   UNL     1      50.054 -41.311  47.454  0.00  0.00    +0.000 HD
ENDBRANCH  11  30
BRANCH   7  42
ATOM     42  O   UNL     1      52.594 -45.289  49.032  0.00  0.00    +0.000 OA
ATOM     43  H   UNL     1      53.102 -46.073  49.302  0.00  0.00    +0.000 HD
ENDBRANCH   7  42
TORSDOF 2
ENDMDL
MODEL 2
REMARK VINA RESULT:      -8.9      4.901     10.207
REMARK  Name = 6509753_ManzamineA.pdbqt.pdb
REMARK  2 active torsions:
REMARK  status: ('A' for Active; 'I' for Inactive)
REMARK    1  A    between atoms: C_7  and  O_42
REMARK    2  A    between atoms: C_11  and  C_30
REMARK                            x       y       z     vdW  Elec       q    Type
REMARK                         _______ _______ _______ _____ _____    ______ ____
ROOT
ATOM      1  N   UNL     1      49.161 -49.300  49.837  0.00  0.00    +0.000 N 
ATOM      2  N   UNL     1      46.111 -46.495  52.608  0.00  0.00    +0.000 N 
ATOM      3  C   UNL     1      47.684 -48.772  51.825  0.00  0.00    +0.000 C 
ATOM      4  C   UNL     1      47.808 -49.463  50.428  0.00  0.00    +0.000 C 
ATOM      5  C   UNL     1      47.138 -49.611  53.053  0.00  0.00    +0.000 C 
ATOM      6  C   UNL     1      49.105 -48.476  51.988  0.00  0.00    +0.000 C 
ATOM      7  C   UNL     1      47.082 -50.790  50.190  0.00  0.00    +0.000 C 
ATOM      8  C   UNL     1      46.903 -47.486  51.808  0.00  0.00    +0.000 C 
ATOM      9  C   UNL     1      49.934 -48.551  50.853  0.00  0.00    +0.000 C 
ATOM     10  C   UNL     1      46.423 -48.809  54.014  0.00  0.00    +0.000 C 
ATOM     11  C   UNL     1      46.693 -50.972  52.788  0.00  0.00    +0.000 C 
ATOM     12  C   UNL     1      46.730 -51.241  51.521  0.00  0.00    +0.000 C 
ATOM     13  C   UNL     1      45.923 -47.383  53.765  0.00  0.00    +0.000 C 
ATOM     14  C   UNL     1      49.116 -48.624  48.538  0.00  0.00    +0.000 C 
ATOM     15  C   UNL     1      45.945 -50.597  49.296  0.00  0.00    +0.000 C 
ATOM     16  C   UNL     1      50.922 -47.591  50.482  0.00  0.00    +0.000 C 
ATOM     17  C   UNL     1      44.826 -46.319  51.953  0.00  0.00    +0.000 C 
ATOM     18  C   UNL     1      49.533 -47.660  47.411  0.00  0.00    +0.000 C 
ATOM     19  C   UNL     1      44.686 -50.279  48.486  0.00  0.00    +0.000 C 
ATOM     20  C   UNL     1      51.492 -46.802  49.779  0.00  0.00    +0.000 C 
ATOM     21  C   UNL     1      50.593 -46.571  47.257  0.00  0.00    +0.000 C 
ATOM     22  C   UNL     1      43.538 -46.248  51.128  0.00  0.00    +0.000 C 
ATOM     23  C   UNL     1      51.539 -46.173  48.385  0.00  0.00    +0.000 C 
ATOM     24  C   UNL     1      43.395 -49.601  48.037  0.00  0.00    +0.000 C 
ATOM     25  C   UNL     1      42.502 -46.588  50.061  0.00  0.00    +0.000 C 
ATOM     26  C   UNL     1      42.090 -47.501  48.917  0.00  0.00    +0.000 C 
ATOM     27  C   UNL     1      42.581 -48.733  48.177  0.00  0.00    +0.000 C 
ENDROOT
BRANCH  11  30
ATOM     28  N   UNL     1      44.759 -52.109  53.711  0.00  0.00    +0.000 NA
ATOM     29  N   UNL     1      48.221 -52.488  54.962  0.00  0.00    +0.000 N 
ATOM     30  C   UNL     1      46.092 -51.887  53.749  0.00  0.00    +0.000 A 
ATOM     31  C   UNL     1      46.868 -52.526  54.714  0.00  0.00    +0.000 A 
ATOM     32  C   UNL     1      46.304 -53.393  55.651  0.00  0.00    +0.000 A 
ATOM     33  C   UNL     1      44.221 -52.950  54.621  0.00  0.00    +0.000 A 
ATOM     34  C   UNL     1      44.920 -53.622  55.615  0.00  0.00    +0.000 A 
ATOM     35  C   UNL     1      47.362 -53.874  56.482  0.00  0.00    +0.000 A 
ATOM     36  C   UNL     1      48.545 -53.293  56.028  0.00  0.00    +0.000 A 
ATOM     37  C   UNL     1      47.419 -54.754  57.578  0.00  0.00    +0.000 A 
ATOM     38  C   UNL     1      49.790 -53.545  56.612  0.00  0.00    +0.000 A 
ATOM     39  C   UNL     1      48.653 -55.018  58.176  0.00  0.00    +0.000 A 
ATOM     40  C   UNL     1      49.815 -54.423  57.698  0.00  0.00    +0.000 A 
ATOM     41  H   UNL     1      48.891 -51.952  54.428  0.00  0.00    +0.000 HD
ENDBRANCH  11  30
BRANCH   7  42
ATOM     42  O   UNL     1      47.960 -51.752  49.624  0.00  0.00    +0.000 OA
ATOM     43  H   UNL     1      47.550 -52.618  49.787  0.00  0.00    +0.000 HD
ENDBRANCH   7  42
TORSDOF 2
ENDMDL
MODEL 3
REMARK VINA RESULT:      -8.7      2.619      7.427
REMARK  Name = 6509753_ManzamineA.pdbqt.pdb
REMARK  2 active torsions:
REMARK  status: ('A' for Active; 'I' for Inactive)
REMARK    1  A    between atoms: C_7  and  O_42
REMARK    2  A    between atoms: C_11  and  C_30
REMARK                            x       y       z     vdW  Elec       q    Type
REMARK                         _______ _______ _______ _____ _____    ______ ____
ROOT
ATOM      1  N   UNL     1      51.399 -46.275  47.076  0.00  0.00    +0.000 N 
ATOM      2  N   UNL     1      49.448 -42.007  48.755  0.00  0.00    +0.000 N 
ATOM      3  C   UNL     1      50.131 -44.800  48.697  0.00  0.00    +0.000 C 
ATOM      4  C   UNL     1      50.055 -45.819  47.513  0.00  0.00    +0.000 C 
ATOM      5  C   UNL     1      49.272 -45.069  50.001  0.00  0.00    +0.000 C 
ATOM      6  C   UNL     1      51.555 -44.970  48.968  0.00  0.00    +0.000 C 
ATOM      7  C   UNL     1      48.912 -46.838  47.484  0.00  0.00    +0.000 C 
ATOM      8  C   UNL     1      49.863 -43.374  48.298  0.00  0.00    +0.000 C 
ATOM      9  C   UNL     1      52.347 -45.603  47.991  0.00  0.00    +0.000 C 
ATOM     10  C   UNL     1      48.854 -43.859  50.663  0.00  0.00    +0.000 C 
ATOM     11  C   UNL     1      48.381 -46.220  49.989  0.00  0.00    +0.000 C 
ATOM     12  C   UNL     1      48.369 -46.795  48.827  0.00  0.00    +0.000 C 
ATOM     13  C   UNL     1      48.908 -42.459  50.046  0.00  0.00    +0.000 C 
ATOM     14  C   UNL     1      51.651 -45.973  45.665  0.00  0.00    +0.000 C 
ATOM     15  C   UNL     1      47.956 -46.503  46.434  0.00  0.00    +0.000 C 
ATOM     16  C   UNL     1      53.628 -45.158  47.546  0.00  0.00    +0.000 C 
ATOM     17  C   UNL     1      48.338 -41.578  47.920  0.00  0.00    +0.000 C 
ATOM     18  C   UNL     1      52.429 -45.522  44.415  0.00  0.00    +0.000 C 
ATOM     19  C   UNL     1      46.928 -45.993  45.422  0.00  0.00    +0.000 C 
ATOM     20  C   UNL     1      54.470 -44.811  46.763  0.00  0.00    +0.000 C 
ATOM     21  C   UNL     1      53.814 -44.930  44.160  0.00  0.00    +0.000 C 
ATOM     22  C   UNL     1      47.195 -41.285  46.944  0.00  0.00    +0.000 C 
ATOM     23  C   UNL     1      54.794 -44.605  45.282  0.00  0.00    +0.000 C 
ATOM     24  C   UNL     1      45.984 -45.054  44.675  0.00  0.00    +0.000 C 
ATOM     25  C   UNL     1      46.149 -41.512  45.856  0.00  0.00    +0.000 C 
ATOM     26  C   UNL     1      45.483 -42.488  44.900  0.00  0.00    +0.000 C 
ATOM     27  C   UNL     1      45.530 -43.957  44.517  0.00  0.00    +0.000 C 
ENDROOT
BRANCH  11  30
ATOM     28  N   UNL     1      46.509 -45.731  51.452  0.00  0.00    +0.000 NA
ATOM     29  N   UNL     1      48.378 -48.924  51.419  0.00  0.00    +0.000 N 
ATOM     30  C   UNL     1      47.454 -46.607  51.044  0.00  0.00    +0.000 A 
ATOM     31  C   UNL     1      47.536 -47.859  51.647  0.00  0.00    +0.000 A 
ATOM     32  C   UNL     1      46.666 -48.239  52.670  0.00  0.00    +0.000 A 
ATOM     33  C   UNL     1      45.669 -46.106  52.442  0.00  0.00    +0.000 A 
ATOM     34  C   UNL     1      45.686 -47.329  53.097  0.00  0.00    +0.000 A 
ATOM     35  C   UNL     1      47.015 -49.568  53.061  0.00  0.00    +0.000 A 
ATOM     36  C   UNL     1      48.085 -49.969  52.263  0.00  0.00    +0.000 A 
ATOM     37  C   UNL     1      46.513 -50.467  54.020  0.00  0.00    +0.000 A 
ATOM     38  C   UNL     1      48.686 -51.227  52.371  0.00  0.00    +0.000 A 
ATOM     39  C   UNL     1      47.101 -51.729  54.144  0.00  0.00    +0.000 A 
ATOM     40  C   UNL     1      48.167 -52.098  53.331  0.00  0.00    +0.000 A 
ATOM     41  H   UNL     1      49.107 -48.944  50.719  0.00  0.00    +0.000 HD
ENDBRANCH  11  30
BRANCH   7  42
ATOM     42  O   UNL     1      49.409 -48.149  47.259  0.00  0.00    +0.000 OA
ATOM     43  H   UNL     1      50.324 -48.040  46.950  0.00  0.00    +0.000 HD
ENDBRANCH   7  42
TORSDOF 2
ENDMDL
MODEL 4
REMARK VINA RESULT:      -8.5      4.666      7.652
REMARK  Name = 6509753_ManzamineA.pdbqt.pdb
REMARK  2 active torsions:
REMARK  status: ('A' for Active; 'I' for Inactive)
REMARK    1  A    between atoms: C_7  and  O_42
REMARK    2  A    between atoms: C_11  and  C_30
REMARK                            x       y       z     vdW  Elec       q    Type
REMARK                         _______ _______ _______ _____ _____    ______ ____
ROOT
ATOM      1  N   UNL     1      47.606 -46.481  50.037  0.00  0.00    +0.000 N 
ATOM      2  N   UNL     1      45.925 -50.830  48.274  0.00  0.00    +0.000 N 
ATOM      3  C   UNL     1      45.850 -48.122  49.241  0.00  0.00    +0.000 C 
ATOM      4  C   UNL     1      46.591 -47.479  50.459  0.00  0.00    +0.000 C 
ATOM      5  C   UNL     1      44.266 -48.124  49.217  0.00  0.00    +0.000 C 
ATOM      6  C   UNL     1      46.383 -47.216  48.228  0.00  0.00    +0.000 C 
ATOM      7  C   UNL     1      45.803 -47.195  51.740  0.00  0.00    +0.000 C 
ATOM      8  C   UNL     1      46.282 -49.530  48.933  0.00  0.00    +0.000 C 
ATOM      9  C   UNL     1      47.503 -46.431  48.561  0.00  0.00    +0.000 C 
ATOM     10  C   UNL     1      43.711 -49.259  48.524  0.00  0.00    +0.000 C 
ATOM     11  C   UNL     1      43.578 -47.598  50.389  0.00  0.00    +0.000 C 
ATOM     12  C   UNL     1      44.417 -47.297  51.330  0.00  0.00    +0.000 C 
ATOM     13  C   UNL     1      44.494 -50.517  48.137  0.00  0.00    +0.000 C 
ATOM     14  C   UNL     1      48.949 -46.830  50.506  0.00  0.00    +0.000 C 
ATOM     15  C   UNL     1      46.192 -48.125  52.796  0.00  0.00    +0.000 C 
ATOM     16  C   UNL     1      48.651 -46.231  47.738  0.00  0.00    +0.000 C 
ATOM     17  C   UNL     1      46.070 -51.883  49.265  0.00  0.00    +0.000 C 
ATOM     18  C   UNL     1      50.478 -47.014  50.462  0.00  0.00    +0.000 C 
ATOM     19  C   UNL     1      46.541 -49.234  53.790  0.00  0.00    +0.000 C 
ATOM     20  C   UNL     1      49.816 -46.223  47.443  0.00  0.00    +0.000 C 
ATOM     21  C   UNL     1      51.555 -46.857  49.390  0.00  0.00    +0.000 C 
ATOM     22  C   UNL     1      46.287 -52.860  50.423  0.00  0.00    +0.000 C 
ATOM     23  C   UNL     1      51.239 -46.464  47.952  0.00  0.00    +0.000 C 
ATOM     24  C   UNL     1      46.796 -50.624  54.367  0.00  0.00    +0.000 C 
ATOM     25  C   UNL     1      46.557 -53.365  51.838  0.00  0.00    +0.000 C 
ATOM     26  C   UNL     1      46.795 -53.021  53.299  0.00  0.00    +0.000 C 
ATOM     27  C   UNL     1      46.871 -51.809  54.212  0.00  0.00    +0.000 C 
ENDROOT
BRANCH  11  30
ATOM     28  N   UNL     1      41.607 -48.302  51.614  0.00  0.00    +0.000 NA
ATOM     29  N   UNL     1      41.576 -45.997  48.721  0.00  0.00    +0.000 N 
ATOM     30  C   UNL     1      42.139 -47.574  50.608  0.00  0.00    +0.000 A 
ATOM     31  C   UNL     1      41.301 -46.822  49.787  0.00  0.00    +0.000 A 
ATOM     32  C   UNL     1      39.918 -46.800  49.975  0.00  0.00    +0.000 A 
ATOM     33  C   UNL     1      40.268 -48.276  51.790  0.00  0.00    +0.000 A 
ATOM     34  C   UNL     1      39.365 -47.559  51.018  0.00  0.00    +0.000 A 
ATOM     35  C   UNL     1      39.363 -45.940  48.978  0.00  0.00    +0.000 A 
ATOM     36  C   UNL     1      40.421 -45.454  48.212  0.00  0.00    +0.000 A 
ATOM     37  C   UNL     1      38.055 -45.530  48.662  0.00  0.00    +0.000 A 
ATOM     38  C   UNL     1      40.242 -44.573  47.140  0.00  0.00    +0.000 A 
ATOM     39  C   UNL     1      37.856 -44.651  47.594  0.00  0.00    +0.000 A 
ATOM     40  C   UNL     1      38.933 -44.183  46.850  0.00  0.00    +0.000 A 
ATOM     41  H   UNL     1      42.502 -45.805  48.363  0.00  0.00    +0.000 HD
ENDBRANCH  11  30
BRANCH   7  42
ATOM     42  O   UNL     1      46.026 -45.866  52.187  0.00  0.00    +0.000 OA
ATOM     43  H   UNL     1      45.531 -45.291  51.580  0.00  0.00    +0.000 HD
ENDBRANCH   7  42
TORSDOF 2
ENDMDL
MODEL 5
REMARK VINA RESULT:      -8.2      2.773      6.915
REMARK  Name = 6509753_ManzamineA.pdbqt.pdb
REMARK  2 active torsions:
REMARK  status: ('A' for Active; 'I' for Inactive)
REMARK    1  A    between atoms: C_7  and  O_42
REMARK    2  A    between atoms: C_11  and  C_30
REMARK                            x       y       z     vdW  Elec       q    Type
REMARK                         _______ _______ _______ _____ _____    ______ ____
ROOT
ATOM      1  N   UNL     1      51.729 -46.465  47.146  0.00  0.00    +0.000 N 
ATOM      2  N   UNL     1      49.265 -42.743  49.365  0.00  0.00    +0.000 N 
ATOM      3  C   UNL     1      50.212 -45.416  48.881  0.00  0.00    +0.000 C 
ATOM      4  C   UNL     1      50.319 -46.205  47.536  0.00  0.00    +0.000 C 
ATOM      5  C   UNL     1      49.290 -45.986  50.036  0.00  0.00    +0.000 C 
ATOM      6  C   UNL     1      51.623 -45.518  49.244  0.00  0.00    +0.000 C 
ATOM      7  C   UNL     1      49.284 -47.290  47.228  0.00  0.00    +0.000 C 
ATOM      8  C   UNL     1      49.840 -43.967  48.716  0.00  0.00    +0.000 C 
ATOM      9  C   UNL     1      52.540 -45.896  48.246  0.00  0.00    +0.000 C 
ATOM     10  C   UNL     1      48.712 -44.954  50.860  0.00  0.00    +0.000 C 
ATOM     11  C   UNL     1      48.515 -47.183  49.744  0.00  0.00    +0.000 C 
ATOM     12  C   UNL     1      48.643 -47.536  48.503  0.00  0.00    +0.000 C 
ATOM     13  C   UNL     1      48.678 -43.465  50.504  0.00  0.00    +0.000 C 
ATOM     14  C   UNL     1      52.054 -45.892  45.838  0.00  0.00    +0.000 C 
ATOM     15  C   UNL     1      48.380 -46.847  46.171  0.00  0.00    +0.000 C 
ATOM     16  C   UNL     1      53.802 -45.277  48.001  0.00  0.00    +0.000 C 
ATOM     17  C   UNL     1      48.183 -42.261  48.523  0.00  0.00    +0.000 C 
ATOM     18  C   UNL     1      52.875 -45.159  44.760  0.00  0.00    +0.000 C 
ATOM     19  C   UNL     1      47.385 -46.245  45.177  0.00  0.00    +0.000 C 
ATOM     20  C   UNL     1      54.663 -44.726  47.368  0.00  0.00    +0.000 C 
ATOM     21  C   UNL     1      54.213 -44.422  44.737  0.00  0.00    +0.000 C 
ATOM     22  C   UNL     1      47.092 -41.888  47.516  0.00  0.00    +0.000 C 
ATOM     23  C   UNL     1      55.073 -44.230  45.981  0.00  0.00    +0.000 C 
ATOM     24  C   UNL     1      46.413 -45.265  44.525  0.00  0.00    +0.000 C 
ATOM     25  C   UNL     1      46.155 -41.996  46.317  0.00  0.00    +0.000 C 
ATOM     26  C   UNL     1      45.656 -42.831  45.149  0.00  0.00    +0.000 C 
ATOM     27  C   UNL     1      45.870 -44.198  44.522  0.00  0.00    +0.000 C 
ENDROOT
BRANCH  11  30
ATOM     28  N   UNL     1      48.000 -48.614  51.634  0.00  0.00    +0.000 NA
ATOM     29  N   UNL     1      45.475 -46.918  49.528  0.00  0.00    +0.000 N 
ATOM     30  C   UNL     1      47.555 -47.828  50.629  0.00  0.00    +0.000 A 
ATOM     31  C   UNL     1      46.184 -47.659  50.446  0.00  0.00    +0.000 A 
ATOM     32  C   UNL     1      45.251 -48.283  51.276  0.00  0.00    +0.000 A 
ATOM     33  C   UNL     1      47.092 -49.214  52.433  0.00  0.00    +0.000 A 
ATOM     34  C   UNL     1      45.713 -49.102  52.318  0.00  0.00    +0.000 A 
ATOM     35  C   UNL     1      43.951 -47.902  50.823  0.00  0.00    +0.000 A 
ATOM     36  C   UNL     1      44.122 -47.051  49.733  0.00  0.00    +0.000 A 
ATOM     37  C   UNL     1      42.643 -48.204  51.246  0.00  0.00    +0.000 A 
ATOM     38  C   UNL     1      43.052 -46.480  49.037  0.00  0.00    +0.000 A 
ATOM     39  C   UNL     1      41.560 -47.643  50.563  0.00  0.00    +0.000 A 
ATOM     40  C   UNL     1      41.766 -46.797  49.480  0.00  0.00    +0.000 A 
ATOM     41  H   UNL     1      45.889 -46.345  48.806  0.00  0.00    +0.000 HD
ENDBRANCH  11  30
BRANCH   7  42
ATOM     42  O   UNL     1      49.918 -48.494  46.822  0.00  0.00    +0.000 OA
ATOM     43  H   UNL     1      50.817 -48.462  47.191  0.00  0.00    +0.000 HD
ENDBRANCH   7  42
TORSDOF 2
ENDMDL
MODEL 6
REMARK VINA RESULT:      -8.2      2.779      5.385
REMARK  Name = 6509753_ManzamineA.pdbqt.pdb
REMARK  2 active torsions:
REMARK  status: ('A' for Active; 'I' for Inactive)
REMARK    1  A    between atoms: C_7  and  O_42
REMARK    2  A    between atoms: C_11  and  C_30
REMARK                            x       y       z     vdW  Elec       q    Type
REMARK                         _______ _______ _______ _____ _____    ______ ____
ROOT
ATOM      1  N   UNL     1      54.887 -45.274  45.101  0.00  0.00    +0.000 N 
ATOM      2  N   UNL     1      50.682 -47.066  43.112  0.00  0.00    +0.000 N 
ATOM      3  C   UNL     1      52.420 -45.844  45.051  0.00  0.00    +0.000 C 
ATOM      4  C   UNL     1      53.856 -46.264  45.505  0.00  0.00    +0.000 C 
ATOM      5  C   UNL     1      51.253 -45.809  46.122  0.00  0.00    +0.000 C 
ATOM      6  C   UNL     1      52.772 -44.493  44.622  0.00  0.00    +0.000 C 
ATOM      7  C   UNL     1      54.031 -46.964  46.855  0.00  0.00    +0.000 C 
ATOM      8  C   UNL     1      51.895 -46.622  43.875  0.00  0.00    +0.000 C 
ATOM      9  C   UNL     1      54.133 -44.190  44.431  0.00  0.00    +0.000 C 
ATOM     10  C   UNL     1      49.960 -46.111  45.561  0.00  0.00    +0.000 C 
ATOM     11  C   UNL     1      51.568 -46.262  47.469  0.00  0.00    +0.000 C 
ATOM     12  C   UNL     1      52.776 -46.728  47.539  0.00  0.00    +0.000 C 
ATOM     13  C   UNL     1      49.728 -46.731  44.180  0.00  0.00    +0.000 C 
ATOM     14  C   UNL     1      55.917 -45.869  44.247  0.00  0.00    +0.000 C 
ATOM     15  C   UNL     1      54.359 -48.373  46.661  0.00  0.00    +0.000 C 
ATOM     16  C   UNL     1      54.677 -43.480  43.319  0.00  0.00    +0.000 C 
ATOM     17  C   UNL     1      50.740 -48.513  42.988  0.00  0.00    +0.000 C 
ATOM     18  C   UNL     1      56.920 -45.987  43.084  0.00  0.00    +0.000 C 
ATOM     19  C   UNL     1      54.541 -49.864  46.371  0.00  0.00    +0.000 C 
ATOM     20  C   UNL     1      55.389 -43.278  42.373  0.00  0.00    +0.000 C 
ATOM     21  C   UNL     1      57.272 -45.128  41.870  0.00  0.00    +0.000 C 
ATOM     22  C   UNL     1      50.969 -50.026  42.941  0.00  0.00    +0.000 C 
ATOM     23  C   UNL     1      56.550 -43.826  41.541  0.00  0.00    +0.000 C 
ATOM     24  C   UNL     1      54.318 -51.256  45.785  0.00  0.00    +0.000 C 
ATOM     25  C   UNL     1      51.591 -51.388  43.233  0.00  0.00    +0.000 C 
ATOM     26  C   UNL     1      52.629 -52.186  44.005  0.00  0.00    +0.000 C 
ATOM     27  C   UNL     1      53.715 -51.981  45.047  0.00  0.00    +0.000 C 
ENDROOT
BRANCH  11  30
ATOM     28  N   UNL     1      50.357 -47.605  49.086  0.00  0.00    +0.000 NA
ATOM     29  N   UNL     1      50.127 -43.923  48.813  0.00  0.00    +0.000 N 
ATOM     30  C   UNL     1      50.636 -46.383  48.581  0.00  0.00    +0.000 A 
ATOM     31  C   UNL     1      50.016 -45.259  49.123  0.00  0.00    +0.000 A 
ATOM     32  C   UNL     1      49.108 -45.360  50.178  0.00  0.00    +0.000 A 
ATOM     33  C   UNL     1      49.477 -47.695  50.107  0.00  0.00    +0.000 A 
ATOM     34  C   UNL     1      48.815 -46.629  50.700  0.00  0.00    +0.000 A 
ATOM     35  C   UNL     1      48.665 -44.038  50.491  0.00  0.00    +0.000 A 
ATOM     36  C   UNL     1      49.317 -43.164  49.624  0.00  0.00    +0.000 A 
ATOM     37  C   UNL     1      47.769 -43.508  51.438  0.00  0.00    +0.000 A 
ATOM     38  C   UNL     1      49.124 -41.779  49.652  0.00  0.00    +0.000 A 
ATOM     39  C   UNL     1      47.561 -42.127  51.480  0.00  0.00    +0.000 A 
ATOM     40  C   UNL     1      48.230 -41.282  50.602  0.00  0.00    +0.000 A 
ATOM     41  H   UNL     1      50.729 -43.545  48.094  0.00  0.00    +0.000 HD
ENDBRANCH  11  30
BRANCH   7  42
ATOM     42  O   UNL     1      55.061 -46.348  47.614  0.00  0.00    +0.000 OA
ATOM     43  H   UNL     1      55.865 -46.868  47.447  0.00  0.00    +0.000 HD
ENDBRANCH   7  42
TORSDOF 2
ENDMDL
MODEL 7
REMARK VINA RESULT:      -8.1      2.032      5.626
REMARK  Name = 6509753_ManzamineA.pdbqt.pdb
REMARK  2 active torsions:
REMARK  status: ('A' for Active; 'I' for Inactive)
REMARK    1  A    between atoms: C_7  and  O_42
REMARK    2  A    between atoms: C_11  and  C_30
REMARK                            x       y       z     vdW  Elec       q    Type
REMARK                         _______ _______ _______ _____ _____    ______ ____
ROOT
ATOM      1  N   UNL     1      47.654 -47.072  49.678  0.00  0.00    +0.000 N 
ATOM      2  N   UNL     1      52.179 -47.203  47.592  0.00  0.00    +0.000 N 
ATOM      3  C   UNL     1      49.750 -46.087  48.655  0.00  0.00    +0.000 C 
ATOM      4  C   UNL     1      48.269 -46.538  48.436  0.00  0.00    +0.000 C 
ATOM      5  C   UNL     1      50.185 -44.631  48.206  0.00  0.00    +0.000 C 
ATOM      6  C   UNL     1      49.744 -46.203  50.110  0.00  0.00    +0.000 C 
ATOM      7  C   UNL     1      47.378 -45.726  47.492  0.00  0.00    +0.000 C 
ATOM      8  C   UNL     1      50.771 -47.032  48.081  0.00  0.00    +0.000 C 
ATOM      9  C   UNL     1      48.701 -46.929  50.714  0.00  0.00    +0.000 C 
ATOM     10  C   UNL     1      51.563 -44.555  47.791  0.00  0.00    +0.000 C 
ATOM     11  C   UNL     1      49.190 -43.815  47.526  0.00  0.00    +0.000 C 
ATOM     12  C   UNL     1      48.101 -44.484  47.308  0.00  0.00    +0.000 C 
ATOM     13  C   UNL     1      52.451 -45.762  47.473  0.00  0.00    +0.000 C 
ATOM     14  C   UNL     1      47.192 -48.452  49.515  0.00  0.00    +0.000 C 
ATOM     15  C   UNL     1      47.127 -46.469  46.261  0.00  0.00    +0.000 C 
ATOM     16  C   UNL     1      48.855 -47.891  51.757  0.00  0.00    +0.000 C 
ATOM     17  C   UNL     1      52.119 -47.768  46.255  0.00  0.00    +0.000 C 
ATOM     18  C   UNL     1      46.940 -49.929  49.873  0.00  0.00    +0.000 C 
ATOM     19  C   UNL     1      47.047 -47.245  44.945  0.00  0.00    +0.000 C 
ATOM     20  C   UNL     1      48.754 -48.953  52.310  0.00  0.00    +0.000 C 
ATOM     21  C   UNL     1      47.319 -50.837  51.041  0.00  0.00    +0.000 C 
ATOM     22  C   UNL     1      51.871 -48.374  44.871  0.00  0.00    +0.000 C 
ATOM     23  C   UNL     1      48.172 -50.365  52.213  0.00  0.00    +0.000 C 
ATOM     24  C   UNL     1      47.471 -48.037  43.711  0.00  0.00    +0.000 C 
ATOM     25  C   UNL     1      51.119 -48.847  43.630  0.00  0.00    +0.000 C 
ATOM     26  C   UNL     1      49.790 -48.958  42.900  0.00  0.00    +0.000 C 
ATOM     27  C   UNL     1      48.332 -48.568  43.070  0.00  0.00    +0.000 C 
ENDROOT
BRANCH  11  30
ATOM     28  N   UNL     1      49.654 -42.352  45.648  0.00  0.00    +0.000 NA
ATOM     29  N   UNL     1      49.097 -41.206  49.122  0.00  0.00    +0.000 N 
ATOM     30  C   UNL     1      49.397 -42.486  46.968  0.00  0.00    +0.000 A 
ATOM     31  C   UNL     1      49.347 -41.352  47.776  0.00  0.00    +0.000 A 
ATOM     32  C   UNL     1      49.559 -40.073  47.259  0.00  0.00    +0.000 A 
ATOM     33  C   UNL     1      49.857 -41.111  45.154  0.00  0.00    +0.000 A 
ATOM     34  C   UNL     1      49.829 -39.934  45.888  0.00  0.00    +0.000 A 
ATOM     35  C   UNL     1      49.437 -39.147  48.340  0.00  0.00    +0.000 A 
ATOM     36  C   UNL     1      49.149 -39.882  49.488  0.00  0.00    +0.000 A 
ATOM     37  C   UNL     1      49.544 -37.748  48.442  0.00  0.00    +0.000 A 
ATOM     38  C   UNL     1      48.959 -39.293  50.741  0.00  0.00    +0.000 A 
ATOM     39  C   UNL     1      49.358 -37.140  49.686  0.00  0.00    +0.000 A 
ATOM     40  C   UNL     1      49.070 -37.903  50.812  0.00  0.00    +0.000 A 
ATOM     41  H   UNL     1      48.892 -41.966  49.756  0.00  0.00    +0.000 HD
ENDBRANCH  11  30
BRANCH   7  42
ATOM     42  O   UNL     1      46.137 -45.417  48.109  0.00  0.00    +0.000 OA
ATOM     43  H   UNL     1      45.541 -46.156  47.899  0.00  0.00    +0.000 HD
ENDBRANCH   7  42
TORSDOF 2
ENDMDL
MODEL 8
REMARK VINA RESULT:      -8.0      5.864     10.266
REMARK  Name = 6509753_ManzamineA.pdbqt.pdb
REMARK  2 active torsions:
REMARK  status: ('A' for Active; 'I' for Inactive)
REMARK    1  A    between atoms: C_7  and  O_42
REMARK    2  A    between atoms: C_11  and  C_30
REMARK                            x       y       z     vdW  Elec       q    Type
REMARK                         _______ _______ _______ _____ _____    ______ ____
ROOT
ATOM      1  N   UNL     1      46.716 -51.281  47.963  0.00  0.00    +0.000 N 
ATOM      2  N   UNL     1      47.369 -47.264  50.842  0.00  0.00    +0.000 N 
ATOM      3  C   UNL     1      47.397 -50.031  50.058  0.00  0.00    +0.000 C 
ATOM      4  C   UNL     1      46.297 -50.870  49.328  0.00  0.00    +0.000 C 
ATOM      5  C   UNL     1      47.863 -50.470  51.507  0.00  0.00    +0.000 C 
ATOM      6  C   UNL     1      48.455 -50.261  49.079  0.00  0.00    +0.000 C 
ATOM      7  C   UNL     1      45.454 -51.856  50.141  0.00  0.00    +0.000 C 
ATOM      8  C   UNL     1      47.096 -48.559  50.136  0.00  0.00    +0.000 C 
ATOM      9  C   UNL     1      48.094 -50.760  47.814  0.00  0.00    +0.000 C 
ATOM     10  C   UNL     1      48.277 -49.361  52.329  0.00  0.00    +0.000 C 
ATOM     11  C   UNL     1      47.170 -51.593  52.122  0.00  0.00    +0.000 C 
ATOM     12  C   UNL     1      46.182 -51.996  51.386  0.00  0.00    +0.000 C 
ATOM     13  C   UNL     1      47.997 -47.887  52.017  0.00  0.00    +0.000 C 
ATOM     14  C   UNL     1      45.800 -50.784  46.933  0.00  0.00    +0.000 C 
ATOM     15  C   UNL     1      44.090 -51.360  50.290  0.00  0.00    +0.000 C 
ATOM     16  C   UNL     1      48.578 -50.277  46.562  0.00  0.00    +0.000 C 
ATOM     17  C   UNL     1      46.092 -46.704  51.251  0.00  0.00    +0.000 C 
ATOM     18  C   UNL     1      45.349 -50.172  45.594  0.00  0.00    +0.000 C 
ATOM     19  C   UNL     1      42.733 -50.694  50.532  0.00  0.00    +0.000 C 
ATOM     20  C   UNL     1      48.519 -49.835  45.446  0.00  0.00    +0.000 C 
ATOM     21  C   UNL     1      46.065 -49.572  44.385  0.00  0.00    +0.000 C 
ATOM     22  C   UNL     1      44.667 -46.257  51.590  0.00  0.00    +0.000 C 
ATOM     23  C   UNL     1      47.580 -49.426  44.309  0.00  0.00    +0.000 C 
ATOM     24  C   UNL     1      41.689 -49.644  50.900  0.00  0.00    +0.000 C 
ATOM     25  C   UNL     1      43.150 -46.309  51.746  0.00  0.00    +0.000 C 
ATOM     26  C   UNL     1      41.876 -47.128  51.623  0.00  0.00    +0.000 C 
ATOM     27  C   UNL     1      41.424 -48.529  51.246  0.00  0.00    +0.000 C 
ENDROOT
BRANCH  11  30
ATOM     28  N   UNL     1      46.522 -51.783  54.452  0.00  0.00    +0.000 NA
ATOM     29  N   UNL     1      49.481 -53.419  52.949  0.00  0.00    +0.000 N 
ATOM     30  C   UNL     1      47.386 -52.112  53.465  0.00  0.00    +0.000 A 
ATOM     31  C   UNL     1      48.476 -52.930  53.752  0.00  0.00    +0.000 A 
ATOM     32  C   UNL     1      48.706 -53.422  55.038  0.00  0.00    +0.000 A 
ATOM     33  C   UNL     1      46.750 -52.263  55.694  0.00  0.00    +0.000 A 
ATOM     34  C   UNL     1      47.811 -53.078  56.064  0.00  0.00    +0.000 A 
ATOM     35  C   UNL     1      49.890 -54.219  54.988  0.00  0.00    +0.000 A 
ATOM     36  C   UNL     1      50.351 -54.199  53.674  0.00  0.00    +0.000 A 
ATOM     37  C   UNL     1      50.609 -54.959  55.946  0.00  0.00    +0.000 A 
ATOM     38  C   UNL     1      51.497 -54.883  53.258  0.00  0.00    +0.000 A 
ATOM     39  C   UNL     1      51.758 -55.648  55.550  0.00  0.00    +0.000 A 
ATOM     40  C   UNL     1      52.190 -55.608  54.229  0.00  0.00    +0.000 A 
ATOM     41  H   UNL     1      49.566 -53.240  51.958  0.00  0.00    +0.000 HD
ENDBRANCH  11  30
BRANCH   7  42
ATOM     42  O   UNL     1      45.419 -53.129  49.514  0.00  0.00    +0.000 OA
ATOM     43  H   UNL     1      45.340 -52.957  48.560  0.00  0.00    +0.000 HD
ENDBRANCH   7  42
TORSDOF 2
ENDMDL
MODEL 9
REMARK VINA RESULT:      -7.9     13.464     18.304
REMARK  Name = 6509753_ManzamineA.pdbqt.pdb
REMARK  2 active torsions:
REMARK  status: ('A' for Active; 'I' for Inactive)
REMARK    1  A    between atoms: C_7  and  O_42
REMARK    2  A    between atoms: C_11  and  C_30
REMARK                            x       y       z     vdW  Elec       q    Type
REMARK                         _______ _______ _______ _____ _____    ______ ____
ROOT
ATOM      1  N   UNL     1      47.636 -55.774  59.012  0.00  0.00    +0.000 N 
ATOM      2  N   UNL     1      43.684 -56.542  56.072  0.00  0.00    +0.000 N 
ATOM      3  C   UNL     1      45.173 -56.020  58.477  0.00  0.00    +0.000 C 
ATOM      4  C   UNL     1      46.475 -56.702  59.008  0.00  0.00    +0.000 C 
ATOM      5  C   UNL     1      43.852 -56.098  59.349  0.00  0.00    +0.000 C 
ATOM      6  C   UNL     1      45.699 -54.658  58.452  0.00  0.00    +0.000 C 
ATOM      7  C   UNL     1      46.369 -57.713  60.153  0.00  0.00    +0.000 C 
ATOM      8  C   UNL     1      44.787 -56.435  57.083  0.00  0.00    +0.000 C 
ATOM      9  C   UNL     1      47.093 -54.483  58.533  0.00  0.00    +0.000 C 
ATOM     10  C   UNL     1      42.649 -56.105  58.556  0.00  0.00    +0.000 C 
ATOM     11  C   UNL     1      43.904 -56.887  60.572  0.00  0.00    +0.000 C 
ATOM     12  C   UNL     1      45.042 -57.496  60.692  0.00  0.00    +0.000 C 
ATOM     13  C   UNL     1      42.597 -56.354  57.046  0.00  0.00    +0.000 C 
ATOM     14  C   UNL     1      48.741 -56.272  58.189  0.00  0.00    +0.000 C 
ATOM     15  C   UNL     1      46.610 -59.067  59.663  0.00  0.00    +0.000 C 
ATOM     16  C   UNL     1      47.868 -53.602  57.721  0.00  0.00    +0.000 C 
ATOM     17  C   UNL     1      43.644 -57.916  55.602  0.00  0.00    +0.000 C 
ATOM     18  C   UNL     1      49.908 -56.233  57.185  0.00  0.00    +0.000 C 
ATOM     19  C   UNL     1      46.715 -60.460  59.039  0.00  0.00    +0.000 C 
ATOM     20  C   UNL     1      48.740 -53.272  56.963  0.00  0.00    +0.000 C 
ATOM     21  C   UNL     1      50.523 -55.163  56.284  0.00  0.00    +0.000 C 
ATOM     22  C   UNL     1      43.754 -59.393  55.213  0.00  0.00    +0.000 C 
ATOM     23  C   UNL     1      49.974 -53.745  56.191  0.00  0.00    +0.000 C 
ATOM     24  C   UNL     1      46.479 -61.640  58.101  0.00  0.00    +0.000 C 
ATOM     25  C   UNL     1      44.207 -60.850  55.241  0.00  0.00    +0.000 C 
ATOM     26  C   UNL     1      45.036 -61.923  55.927  0.00  0.00    +0.000 C 
ATOM     27  C   UNL     1      45.949 -62.097  57.129  0.00  0.00    +0.000 C 
ENDROOT
BRANCH  11  30
ATOM     28  N   UNL     1      41.753 -57.900  61.051  0.00  0.00    +0.000 NA
ATOM     29  N   UNL     1      43.704 -55.867  63.449  0.00  0.00    +0.000 N 
ATOM     30  C   UNL     1      42.795 -57.151  61.477  0.00  0.00    +0.000 A 
ATOM     31  C   UNL     1      42.784 -56.634  62.771  0.00  0.00    +0.000 A 
ATOM     32  C   UNL     1      41.721 -56.866  63.645  0.00  0.00    +0.000 A 
ATOM     33  C   UNL     1      40.728 -58.121  61.903  0.00  0.00    +0.000 A 
ATOM     34  C   UNL     1      40.637 -57.640  63.202  0.00  0.00    +0.000 A 
ATOM     35  C   UNL     1      42.024 -56.204  64.874  0.00  0.00    +0.000 A 
ATOM     36  C   UNL     1      43.265 -55.591  64.722  0.00  0.00    +0.000 A 
ATOM     37  C   UNL     1      41.352 -56.076  66.104  0.00  0.00    +0.000 A 
ATOM     38  C   UNL     1      43.879 -54.852  65.739  0.00  0.00    +0.000 A 
ATOM     39  C   UNL     1      41.948 -55.341  67.132  0.00  0.00    +0.000 A 
ATOM     40  C   UNL     1      43.189 -54.742  66.948  0.00  0.00    +0.000 A 
ATOM     41  H   UNL     1      44.587 -55.555  63.070  0.00  0.00    +0.000 HD
ENDBRANCH  11  30
BRANCH   7  42
ATOM     42  O   UNL     1      47.307 -57.418  61.178  0.00  0.00    +0.000 OA
ATOM     43  H   UNL     1      48.123 -57.146  60.725  0.00  0.00    +0.000 HD
ENDBRANCH   7  42
TORSDOF 2
ENDMDL
