MODEL 1
REMARK VINA RESULT:      -5.2      0.000      0.000
REMARK  Name = 67499_Pyrazolo.pdbqt.pdb
REMARK  0 active torsions:
REMARK  status: ('A' for Active; 'I' for Inactive)
REMARK                            x       y       z     vdW  Elec       q    Type
REMARK                         _______ _______ _______ _____ _____    ______ ____
ROOT
ATOM      1  N   UNL     1      46.120 -36.756  50.979  0.00  0.00    +0.000 N 
ATOM      2  N   UNL     1      45.824 -35.666  51.718  0.00  0.00    +0.000 NA
ATOM      3  N   UNL     1      47.978 -38.248  50.545  0.00  0.00    +0.000 NA
ATOM      4  N   UNL     1      49.945 -37.627  51.814  0.00  0.00    +0.000 NA
ATOM      5  C   UNL     1      47.983 -36.335  52.050  0.00  0.00    +0.000 A 
ATOM      6  C   UNL     1      47.401 -37.196  51.143  0.00  0.00    +0.000 A 
ATOM      7  C   UNL     1      46.968 -35.415  52.369  0.00  0.00    +0.000 A 
ATOM      8  C   UNL     1      49.307 -36.576  52.386  0.00  0.00    +0.000 A 
ATOM      9  C   UNL     1      49.258 -38.392  50.940  0.00  0.00    +0.000 A 
ATOM     10  H   UNL     1      45.407 -37.157  50.381  0.00  0.00    +0.000 HD
ENDROOT
TORSDOF 0
ENDMDL
MODEL 2
REMARK VINA RESULT:      -5.0      1.013      2.968
REMARK  Name = 67499_Pyrazolo.pdbqt.pdb
REMARK  0 active torsions:
REMARK  status: ('A' for Active; 'I' for Inactive)
REMARK                            x       y       z     vdW  Elec       q    Type
REMARK                         _______ _______ _______ _____ _____    ______ ____
ROOT
ATOM      1  N   UNL     1      47.583 -38.591  50.488  0.00  0.00    +0.000 N 
ATOM      2  N   UNL     1      48.849 -39.063  50.492  0.00  0.00    +0.000 NA
ATOM      3  N   UNL     1      46.319 -36.683  51.280  0.00  0.00    +0.000 NA
ATOM      4  N   UNL     1      47.723 -35.098  52.455  0.00  0.00    +0.000 NA
ATOM      5  C   UNL     1      48.706 -37.056  51.575  0.00  0.00    +0.000 A 
ATOM      6  C   UNL     1      47.446 -37.392  51.124  0.00  0.00    +0.000 A 
ATOM      7  C   UNL     1      49.527 -38.119  51.159  0.00  0.00    +0.000 A 
ATOM      8  C   UNL     1      48.829 -35.859  52.265  0.00  0.00    +0.000 A 
ATOM      9  C   UNL     1      46.549 -35.544  51.961  0.00  0.00    +0.000 A 
ATOM     10  H   UNL     1      46.856 -39.131  50.035  0.00  0.00    +0.000 HD
ENDROOT
TORSDOF 0
ENDMDL
MODEL 3
REMARK VINA RESULT:      -4.6      1.712      2.246
REMARK  Name = 67499_Pyrazolo.pdbqt.pdb
REMARK  0 active torsions:
REMARK  status: ('A' for Active; 'I' for Inactive)
REMARK                            x       y       z     vdW  Elec       q    Type
REMARK                         _______ _______ _______ _____ _____    ______ ____
ROOT
ATOM      1  N   UNL     1      48.880 -36.726  53.224  0.00  0.00    +0.000 N 
ATOM      2  N   UNL     1      48.021 -35.691  53.350  0.00  0.00    +0.000 NA
ATOM      3  N   UNL     1      49.876 -38.103  51.498  0.00  0.00    +0.000 NA
ATOM      4  N   UNL     1      49.123 -37.459  49.288  0.00  0.00    +0.000 NA
ATOM      5  C   UNL     1      48.304 -36.275  51.159  0.00  0.00    +0.000 A 
ATOM      6  C   UNL     1      49.083 -37.112  51.931  0.00  0.00    +0.000 A 
ATOM      7  C   UNL     1      47.674 -35.423  52.084  0.00  0.00    +0.000 A 
ATOM      8  C   UNL     1      48.338 -36.471  49.786  0.00  0.00    +0.000 A 
ATOM      9  C   UNL     1      49.836 -38.207  50.155  0.00  0.00    +0.000 A 
ATOM     10  H   UNL     1      49.297 -37.127  54.055  0.00  0.00    +0.000 HD
ENDROOT
TORSDOF 0
ENDMDL
MODEL 4
REMARK VINA RESULT:      -4.4      1.892      3.221
REMARK  Name = 67499_Pyrazolo.pdbqt.pdb
REMARK  0 active torsions:
REMARK  status: ('A' for Active; 'I' for Inactive)
REMARK                            x       y       z     vdW  Elec       q    Type
REMARK                         _______ _______ _______ _____ _____    ______ ____
ROOT
ATOM      1  N   UNL     1      48.301 -36.634  48.412  0.00  0.00    +0.000 N 
ATOM      2  N   UNL     1      49.385 -37.293  47.948  0.00  0.00    +0.000 NA
ATOM      3  N   UNL     1      47.235 -36.080  50.515  0.00  0.00    +0.000 NA
ATOM      4  N   UNL     1      48.462 -36.965  52.406  0.00  0.00    +0.000 NA
ATOM      5  C   UNL     1      49.285 -37.361  50.229  0.00  0.00    +0.000 A 
ATOM      6  C   UNL     1      48.197 -36.647  49.773  0.00  0.00    +0.000 A 
ATOM      7  C   UNL     1      49.980 -37.733  49.065  0.00  0.00    +0.000 A 
ATOM      8  C   UNL     1      49.406 -37.516  51.603  0.00  0.00    +0.000 A 
ATOM      9  C   UNL     1      47.447 -36.290  51.829  0.00  0.00    +0.000 A 
ATOM     10  H   UNL     1      47.668 -36.196  47.754  0.00  0.00    +0.000 HD
ENDROOT
TORSDOF 0
ENDMDL
MODEL 5
REMARK VINA RESULT:      -4.4      2.144      2.437
REMARK  Name = 67499_Pyrazolo.pdbqt.pdb
REMARK  0 active torsions:
REMARK  status: ('A' for Active; 'I' for Inactive)
REMARK                            x       y       z     vdW  Elec       q    Type
REMARK                         _______ _______ _______ _____ _____    ______ ____
ROOT
ATOM      1  N   UNL     1      46.871 -37.317  50.975  0.00  0.00    +0.000 N 
ATOM      2  N   UNL     1      47.315 -36.108  50.567  0.00  0.00    +0.000 NA
ATOM      3  N   UNL     1      47.502 -39.653  50.864  0.00  0.00    +0.000 NA
ATOM      4  N   UNL     1      49.575 -39.968  49.652  0.00  0.00    +0.000 NA
ATOM      5  C   UNL     1      48.728 -37.779  49.909  0.00  0.00    +0.000 A 
ATOM      6  C   UNL     1      47.683 -38.350  50.605  0.00  0.00    +0.000 A 
ATOM      7  C   UNL     1      48.450 -36.401  49.918  0.00  0.00    +0.000 A 
ATOM      8  C   UNL     1      49.703 -38.638  49.422  0.00  0.00    +0.000 A 
ATOM      9  C   UNL     1      48.501 -40.395  50.348  0.00  0.00    +0.000 A 
ATOM     10  H   UNL     1      46.007 -37.375  51.501  0.00  0.00    +0.000 HD
ENDROOT
TORSDOF 0
ENDMDL
MODEL 6
REMARK VINA RESULT:      -4.1      2.079      4.007
REMARK  Name = 67499_Pyrazolo.pdbqt.pdb
REMARK  0 active torsions:
REMARK  status: ('A' for Active; 'I' for Inactive)
REMARK                            x       y       z     vdW  Elec       q    Type
REMARK                         _______ _______ _______ _____ _____    ______ ____
ROOT
ATOM      1  N   UNL     1      50.331 -39.646  49.667  0.00  0.00    +0.000 N 
ATOM      2  N   UNL     1      49.955 -39.724  48.372  0.00  0.00    +0.000 NA
ATOM      3  N   UNL     1      50.089 -38.176  51.577  0.00  0.00    +0.000 NA
ATOM      4  N   UNL     1      48.765 -36.220  51.044  0.00  0.00    +0.000 NA
ATOM      5  C   UNL     1      49.158 -37.823  49.356  0.00  0.00    +0.000 A 
ATOM      6  C   UNL     1      49.878 -38.524  50.300  0.00  0.00    +0.000 A 
ATOM      7  C   UNL     1      49.239 -38.606  48.191  0.00  0.00    +0.000 A 
ATOM      8  C   UNL     1      48.586 -36.625  49.763  0.00  0.00    +0.000 A 
ATOM      9  C   UNL     1      49.494 -37.003  51.867  0.00  0.00    +0.000 A 
ATOM     10  H   UNL     1      50.896 -40.387  50.064  0.00  0.00    +0.000 HD
ENDROOT
TORSDOF 0
ENDMDL
MODEL 7
REMARK VINA RESULT:      -4.0      3.503      4.426
REMARK  Name = 67499_Pyrazolo.pdbqt.pdb
REMARK  0 active torsions:
REMARK  status: ('A' for Active; 'I' for Inactive)
REMARK                            x       y       z     vdW  Elec       q    Type
REMARK                         _______ _______ _______ _____ _____    ______ ____
ROOT
ATOM      1  N   UNL     1      48.633 -39.927  51.569  0.00  0.00    +0.000 N 
ATOM      2  N   UNL     1      47.810 -40.997  51.503  0.00  0.00    +0.000 NA
ATOM      3  N   UNL     1      49.811 -38.406  50.098  0.00  0.00    +0.000 NA
ATOM      4  N   UNL     1      49.421 -38.929  47.765  0.00  0.00    +0.000 NA
ATOM      5  C   UNL     1      48.387 -40.261  49.419  0.00  0.00    +0.000 A 
ATOM      6  C   UNL     1      49.006 -39.450  50.347  0.00  0.00    +0.000 A 
ATOM      7  C   UNL     1      47.666 -41.193  50.186  0.00  0.00    +0.000 A 
ATOM      8  C   UNL     1      48.615 -39.974  48.080  0.00  0.00    +0.000 A 
ATOM      9  C   UNL     1      49.965 -38.216  48.773  0.00  0.00    +0.000 A 
ATOM     10  H   UNL     1      48.905 -39.568  52.477  0.00  0.00    +0.000 HD
ENDROOT
TORSDOF 0
ENDMDL
MODEL 8
REMARK VINA RESULT:      -3.9     24.416     24.812
REMARK  Name = 67499_Pyrazolo.pdbqt.pdb
REMARK  0 active torsions:
REMARK  status: ('A' for Active; 'I' for Inactive)
REMARK                            x       y       z     vdW  Elec       q    Type
REMARK                         _______ _______ _______ _____ _____    ______ ____
ROOT
ATOM      1  N   UNL     1      43.943 -53.731  70.294  0.00  0.00    +0.000 N 
ATOM      2  N   UNL     1      45.108 -53.793  70.973  0.00  0.00    +0.000 NA
ATOM      3  N   UNL     1      43.061 -54.200  68.087  0.00  0.00    +0.000 NA
ATOM      4  N   UNL     1      44.771 -55.049  66.597  0.00  0.00    +0.000 NA
ATOM      5  C   UNL     1      45.362 -54.508  68.818  0.00  0.00    +0.000 A 
ATOM      6  C   UNL     1      44.043 -54.149  68.999  0.00  0.00    +0.000 A 
ATOM      7  C   UNL     1      45.969 -54.269  70.064  0.00  0.00    +0.000 A 
ATOM      8  C   UNL     1      45.721 -54.974  67.562  0.00  0.00    +0.000 A 
ATOM      9  C   UNL     1      43.515 -54.664  66.907  0.00  0.00    +0.000 A 
ATOM     10  H   UNL     1      43.112 -53.395  70.767  0.00  0.00    +0.000 HD
ENDROOT
TORSDOF 0
ENDMDL
MODEL 9
REMARK VINA RESULT:      -3.7     21.891     22.373
REMARK  Name = 67499_Pyrazolo.pdbqt.pdb
REMARK  0 active torsions:
REMARK  status: ('A' for Active; 'I' for Inactive)
REMARK                            x       y       z     vdW  Elec       q    Type
REMARK                         _______ _______ _______ _____ _____    ______ ____
ROOT
ATOM      1  N   UNL     1      45.763 -38.610  74.231  0.00  0.00    +0.000 N 
ATOM      2  N   UNL     1      45.785 -38.334  75.553  0.00  0.00    +0.000 NA
ATOM      3  N   UNL     1      47.133 -38.306  72.256  0.00  0.00    +0.000 NA
ATOM      4  N   UNL     1      49.199 -37.150  72.764  0.00  0.00    +0.000 NA
ATOM      5  C   UNL     1      47.674 -37.578  74.515  0.00  0.00    +0.000 A 
ATOM      6  C   UNL     1      46.873 -38.176  73.565  0.00  0.00    +0.000 A 
ATOM      7  C   UNL     1      46.956 -37.705  75.717  0.00  0.00    +0.000 A 
ATOM      8  C   UNL     1      48.881 -37.050  74.079  0.00  0.00    +0.000 A 
ATOM      9  C   UNL     1      48.324 -37.761  71.940  0.00  0.00    +0.000 A 
ATOM     10  H   UNL     1      44.965 -39.095  73.839  0.00  0.00    +0.000 HD
ENDROOT
TORSDOF 0
ENDMDL
