MODEL 1
REMARK VINA RESULT:      -5.1      0.000      0.000
REMARK  Name = 71369791_5FluoroDione.pdbqt.pdb
REMARK  1 active torsions:
REMARK  status: ('A' for Active; 'I' for Inactive)
REMARK    1  A    between atoms: N_4  and  C_12
REMARK                            x       y       z     vdW  Elec       q    Type
REMARK                         _______ _______ _______ _____ _____    ______ ____
ROOT
ATOM      1  F   UNL     1      44.708 -25.002  63.627  0.00  0.00    +0.000 F 
ATOM      2  O   UNL     1      48.801 -26.064  60.195  0.00  0.00    +0.000 OA
ATOM      3  O   UNL     1      44.285 -25.768  60.932  0.00  0.00    +0.000 OA
ATOM      4  N   UNL     1      48.124 -25.166  62.274  0.00  0.00    +0.000 N 
ATOM      5  N   UNL     1      46.566 -25.798  60.614  0.00  0.00    +0.000 N 
ATOM      6  C   UNL     1      47.029 -24.831  62.984  0.00  0.00    +0.000 C 
ATOM      7  C   UNL     1      45.663 -24.899  62.688  0.00  0.00    +0.000 C 
ATOM      8  C   UNL     1      47.931 -25.697  60.978  0.00  0.00    +0.000 C 
ATOM      9  C   UNL     1      45.407 -25.513  61.351  0.00  0.00    +0.000 C 
ATOM     10  H   UNL     1      46.406 -26.214  59.708  0.00  0.00    +0.000 HD
ENDROOT
BRANCH   4  12
ATOM     11  O   UNL     1      49.884 -23.710  63.098  0.00  0.00    +0.000 OA
ATOM     12  C   UNL     1      49.354 -24.980  62.839  0.00  0.00    +0.000 C 
ATOM     13  C   UNL     1      50.303 -25.950  63.257  0.00  0.00    +0.000 C 
ATOM     14  C   UNL     1      51.648 -25.564  63.875  0.00  0.00    +0.000 C 
ATOM     15  C   UNL     1      51.022 -24.196  63.609  0.00  0.00    +0.000 C 
ENDBRANCH   4  12
TORSDOF 1
ENDMDL
MODEL 2
REMARK VINA RESULT:      -5.1     21.135     22.398
REMARK  Name = 71369791_5FluoroDione.pdbqt.pdb
REMARK  1 active torsions:
REMARK  status: ('A' for Active; 'I' for Inactive)
REMARK    1  A    between atoms: N_4  and  C_12
REMARK                            x       y       z     vdW  Elec       q    Type
REMARK                         _______ _______ _______ _____ _____    ______ ____
ROOT
ATOM      1  F   UNL     1      48.542 -41.131  48.817  0.00  0.00    +0.000 F 
ATOM      2  O   UNL     1      48.018 -44.349  53.180  0.00  0.00    +0.000 OA
ATOM      3  O   UNL     1      47.902 -40.128  51.388  0.00  0.00    +0.000 OA
ATOM      4  N   UNL     1      48.195 -44.191  50.828  0.00  0.00    +0.000 N 
ATOM      5  N   UNL     1      47.882 -42.288  52.192  0.00  0.00    +0.000 N 
ATOM      6  C   UNL     1      48.192 -43.301  49.817  0.00  0.00    +0.000 C 
ATOM      7  C   UNL     1      48.045 -41.909  49.793  0.00  0.00    +0.000 C 
ATOM      8  C   UNL     1      48.031 -43.695  52.142  0.00  0.00    +0.000 C 
ATOM      9  C   UNL     1      47.931 -41.333  51.166  0.00  0.00    +0.000 C 
ATOM     10  H   UNL     1      47.805 -41.909  53.126  0.00  0.00    +0.000 HD
ENDROOT
BRANCH   4  12
ATOM     11  O   UNL     1      47.320 -46.448  50.637  0.00  0.00    +0.000 OA
ATOM     12  C   UNL     1      48.360 -45.515  50.536  0.00  0.00    +0.000 C 
ATOM     13  C   UNL     1      49.526 -46.197  50.101  0.00  0.00    +0.000 C 
ATOM     14  C   UNL     1      49.536 -47.701  49.818  0.00  0.00    +0.000 C 
ATOM     15  C   UNL     1      48.086 -47.472  50.244  0.00  0.00    +0.000 C 
ENDBRANCH   4  12
TORSDOF 1
ENDMDL
MODEL 3
REMARK VINA RESULT:      -5.1     17.986     19.188
REMARK  Name = 71369791_5FluoroDione.pdbqt.pdb
REMARK  1 active torsions:
REMARK  status: ('A' for Active; 'I' for Inactive)
REMARK    1  A    between atoms: N_4  and  C_12
REMARK                            x       y       z     vdW  Elec       q    Type
REMARK                         _______ _______ _______ _____ _____    ______ ____
ROOT
ATOM      1  F   UNL     1      47.220 -42.175  49.161  0.00  0.00    +0.000 F 
ATOM      2  O   UNL     1      49.216 -37.744  51.618  0.00  0.00    +0.000 OA
ATOM      3  O   UNL     1      47.496 -41.980  51.974  0.00  0.00    +0.000 OA
ATOM      4  N   UNL     1      48.889 -38.927  49.598  0.00  0.00    +0.000 N 
ATOM      5  N   UNL     1      48.444 -39.897  51.706  0.00  0.00    +0.000 N 
ATOM      6  C   UNL     1      48.480 -40.116  49.114  0.00  0.00    +0.000 C 
ATOM      7  C   UNL     1      48.035 -41.283  49.747  0.00  0.00    +0.000 C 
ATOM      8  C   UNL     1      48.889 -38.753  51.001  0.00  0.00    +0.000 C 
ATOM      9  C   UNL     1      47.959 -41.124  51.230  0.00  0.00    +0.000 C 
ATOM     10  H   UNL     1      48.397 -39.778  52.708  0.00  0.00    +0.000 HD
ENDROOT
BRANCH   4  12
ATOM     11  O   UNL     1      50.613 -37.752  48.357  0.00  0.00    +0.000 OA
ATOM     12  C   UNL     1      49.275 -37.958  48.717  0.00  0.00    +0.000 C 
ATOM     13  C   UNL     1      48.478 -37.013  48.019  0.00  0.00    +0.000 C 
ATOM     14  C   UNL     1      49.081 -35.985  47.060  0.00  0.00    +0.000 C 
ATOM     15  C   UNL     1      50.323 -36.738  47.532  0.00  0.00    +0.000 C 
ENDBRANCH   4  12
TORSDOF 1
ENDMDL
MODEL 4
REMARK VINA RESULT:      -5.0     24.623     25.757
REMARK  Name = 71369791_5FluoroDione.pdbqt.pdb
REMARK  1 active torsions:
REMARK  status: ('A' for Active; 'I' for Inactive)
REMARK    1  A    between atoms: N_4  and  C_12
REMARK                            x       y       z     vdW  Elec       q    Type
REMARK                         _______ _______ _______ _____ _____    ______ ____
ROOT
ATOM      1  F   UNL     1      63.200 -47.645  57.580  0.00  0.00    +0.000 F 
ATOM      2  O   UNL     1      60.982 -44.788  61.651  0.00  0.00    +0.000 OA
ATOM      3  O   UNL     1      63.898 -44.952  58.116  0.00  0.00    +0.000 OA
ATOM      4  N   UNL     1      60.907 -46.730  60.305  0.00  0.00    +0.000 N 
ATOM      5  N   UNL     1      62.341 -44.918  59.813  0.00  0.00    +0.000 N 
ATOM      6  C   UNL     1      61.452 -47.286  59.206  0.00  0.00    +0.000 C 
ATOM      7  C   UNL     1      62.420 -46.826  58.305  0.00  0.00    +0.000 C 
ATOM      8  C   UNL     1      61.354 -45.442  60.683  0.00  0.00    +0.000 C 
ATOM      9  C   UNL     1      62.968 -45.495  58.699  0.00  0.00    +0.000 C 
ATOM     10  H   UNL     1      62.703 -44.016  60.090  0.00  0.00    +0.000 HD
ENDROOT
BRANCH   4  12
ATOM     11  O   UNL     1      58.682 -47.687  60.483  0.00  0.00    +0.000 OA
ATOM     12  C   UNL     1      59.960 -47.433  60.996  0.00  0.00    +0.000 C 
ATOM     13  C   UNL     1      60.046 -48.019  62.286  0.00  0.00    +0.000 C 
ATOM     14  C   UNL     1      58.877 -48.778  62.917  0.00  0.00    +0.000 C 
ATOM     15  C   UNL     1      58.288 -48.362  61.570  0.00  0.00    +0.000 C 
ENDBRANCH   4  12
TORSDOF 1
ENDMDL
MODEL 5
REMARK VINA RESULT:      -4.9     24.792     26.039
REMARK  Name = 71369791_5FluoroDione.pdbqt.pdb
REMARK  1 active torsions:
REMARK  status: ('A' for Active; 'I' for Inactive)
REMARK    1  A    between atoms: N_4  and  C_12
REMARK                            x       y       z     vdW  Elec       q    Type
REMARK                         _______ _______ _______ _____ _____    ______ ____
ROOT
ATOM      1  F   UNL     1      61.155 -46.306  57.721  0.00  0.00    +0.000 F 
ATOM      2  O   UNL     1      59.015 -47.621  62.554  0.00  0.00    +0.000 OA
ATOM      3  O   UNL     1      61.157 -44.530  59.929  0.00  0.00    +0.000 OA
ATOM      4  N   UNL     1      59.240 -48.152  60.262  0.00  0.00    +0.000 N 
ATOM      5  N   UNL     1      59.993 -46.097  61.153  0.00  0.00    +0.000 N 
ATOM      6  C   UNL     1      59.708 -47.664  59.096  0.00  0.00    +0.000 C 
ATOM      7  C   UNL     1      60.324 -46.451  58.767  0.00  0.00    +0.000 C 
ATOM      8  C   UNL     1      59.370 -47.342  61.413  0.00  0.00    +0.000 C 
ATOM      9  C   UNL     1      60.540 -45.587  59.966  0.00  0.00    +0.000 C 
ATOM     10  H   UNL     1      60.133 -45.521  61.971  0.00  0.00    +0.000 HD
ENDROOT
BRANCH   4  12
ATOM     11  O   UNL     1      57.291 -49.596  60.371  0.00  0.00    +0.000 OA
ATOM     12  C   UNL     1      58.674 -49.395  60.273  0.00  0.00    +0.000 C 
ATOM     13  C   UNL     1      59.302 -50.665  60.195  0.00  0.00    +0.000 C 
ATOM     14  C   UNL     1      58.507 -51.972  60.223  0.00  0.00    +0.000 C 
ATOM     15  C   UNL     1      57.396 -50.929  60.331  0.00  0.00    +0.000 C 
ENDBRANCH   4  12
TORSDOF 1
ENDMDL
MODEL 6
REMARK VINA RESULT:      -4.8     17.177     17.610
REMARK  Name = 71369791_5FluoroDione.pdbqt.pdb
REMARK  1 active torsions:
REMARK  status: ('A' for Active; 'I' for Inactive)
REMARK    1  A    between atoms: N_4  and  C_12
REMARK                            x       y       z     vdW  Elec       q    Type
REMARK                         _______ _______ _______ _____ _____    ______ ____
ROOT
ATOM      1  F   UNL     1      45.331 -38.354  77.214  0.00  0.00    +0.000 F 
ATOM      2  O   UNL     1      47.614 -38.261  72.270  0.00  0.00    +0.000 OA
ATOM      3  O   UNL     1      43.952 -39.170  74.877  0.00  0.00    +0.000 OA
ATOM      4  N   UNL     1      47.736 -37.598  74.536  0.00  0.00    +0.000 N 
ATOM      5  N   UNL     1      45.798 -38.596  73.624  0.00  0.00    +0.000 N 
ATOM      6  C   UNL     1      47.022 -37.572  75.678  0.00  0.00    +0.000 C 
ATOM      7  C   UNL     1      45.721 -37.992  75.980  0.00  0.00    +0.000 C 
ATOM      8  C   UNL     1      47.119 -38.145  73.387  0.00  0.00    +0.000 C 
ATOM      9  C   UNL     1      45.052 -38.634  74.811  0.00  0.00    +0.000 C 
ATOM     10  H   UNL     1      45.355 -39.028  72.825  0.00  0.00    +0.000 HD
ENDROOT
BRANCH   4  12
ATOM     11  O   UNL     1      49.315 -35.793  74.160  0.00  0.00    +0.000 OA
ATOM     12  C   UNL     1      49.009 -37.103  74.546  0.00  0.00    +0.000 C 
ATOM     13  C   UNL     1      50.217 -37.750  74.918  0.00  0.00    +0.000 C 
ATOM     14  C   UNL     1      51.572 -37.040  74.867  0.00  0.00    +0.000 C 
ATOM     15  C   UNL     1      50.626 -35.942  74.384  0.00  0.00    +0.000 C 
ENDBRANCH   4  12
TORSDOF 1
ENDMDL
MODEL 7
REMARK VINA RESULT:      -4.8     25.127     26.236
REMARK  Name = 71369791_5FluoroDione.pdbqt.pdb
REMARK  1 active torsions:
REMARK  status: ('A' for Active; 'I' for Inactive)
REMARK    1  A    between atoms: N_4  and  C_12
REMARK                            x       y       z     vdW  Elec       q    Type
REMARK                         _______ _______ _______ _____ _____    ______ ____
ROOT
ATOM      1  F   UNL     1      59.556 -52.063  60.147  0.00  0.00    +0.000 F 
ATOM      2  O   UNL     1      57.263 -47.355  61.643  0.00  0.00    +0.000 OA
ATOM      3  O   UNL     1      57.572 -51.902  62.162  0.00  0.00    +0.000 OA
ATOM      4  N   UNL     1      58.996 -48.442  60.459  0.00  0.00    +0.000 N 
ATOM      5  N   UNL     1      57.546 -49.611  61.912  0.00  0.00    +0.000 N 
ATOM      6  C   UNL     1      59.555 -49.651  60.259  0.00  0.00    +0.000 C 
ATOM      7  C   UNL     1      59.262 -50.917  60.782  0.00  0.00    +0.000 C 
ATOM      8  C   UNL     1      57.899 -48.362  61.348  0.00  0.00    +0.000 C 
ATOM      9  C   UNL     1      58.070 -50.892  61.680  0.00  0.00    +0.000 C 
ATOM     10  H   UNL     1      56.738 -49.582  62.518  0.00  0.00    +0.000 HD
ENDROOT
BRANCH   4  12
ATOM     11  O   UNL     1      59.424 -47.219  58.405  0.00  0.00    +0.000 OA
ATOM     12  C   UNL     1      59.511 -47.364  59.796  0.00  0.00    +0.000 C 
ATOM     13  C   UNL     1      60.197 -46.236  60.318  0.00  0.00    +0.000 C 
ATOM     14  C   UNL     1      60.714 -45.108  59.422  0.00  0.00    +0.000 C 
ATOM     15  C   UNL     1      60.072 -46.047  58.402  0.00  0.00    +0.000 C 
ENDBRANCH   4  12
TORSDOF 1
ENDMDL
MODEL 8
REMARK VINA RESULT:      -4.7     20.642     21.936
REMARK  Name = 71369791_5FluoroDione.pdbqt.pdb
REMARK  1 active torsions:
REMARK  status: ('A' for Active; 'I' for Inactive)
REMARK    1  A    between atoms: N_4  and  C_12
REMARK                            x       y       z     vdW  Elec       q    Type
REMARK                         _______ _______ _______ _____ _____    ______ ____
ROOT
ATOM      1  F   UNL     1      48.400 -43.064  47.102  0.00  0.00    +0.000 F 
ATOM      2  O   UNL     1      47.495 -41.522  52.246  0.00  0.00    +0.000 OA
ATOM      3  O   UNL     1      48.341 -40.345  47.895  0.00  0.00    +0.000 OA
ATOM      4  N   UNL     1      47.453 -43.265  50.650  0.00  0.00    +0.000 N 
ATOM      5  N   UNL     1      47.820 -41.013  50.038  0.00  0.00    +0.000 N 
ATOM      6  C   UNL     1      47.583 -43.505  49.330  0.00  0.00    +0.000 C 
ATOM      7  C   UNL     1      47.820 -42.656  48.242  0.00  0.00    +0.000 C 
ATOM      8  C   UNL     1      47.574 -41.927  51.091  0.00  0.00    +0.000 C 
ATOM      9  C   UNL     1      48.016 -41.239  48.667  0.00  0.00    +0.000 C 
ATOM     10  H   UNL     1      47.951 -40.057  50.337  0.00  0.00    +0.000 HD
ENDROOT
BRANCH   4  12
ATOM     11  O   UNL     1      48.038 -44.611  52.584  0.00  0.00    +0.000 OA
ATOM     12  C   UNL     1      47.217 -44.318  51.488  0.00  0.00    +0.000 C 
ATOM     13  C   UNL     1      46.174 -45.280  51.444  0.00  0.00    +0.000 C 
ATOM     14  C   UNL     1      46.060 -46.407  52.472  0.00  0.00    +0.000 C 
ATOM     15  C   UNL     1      47.311 -45.674  52.951  0.00  0.00    +0.000 C 
ENDBRANCH   4  12
TORSDOF 1
ENDMDL
MODEL 9
REMARK VINA RESULT:      -4.7     12.059     13.648
REMARK  Name = 71369791_5FluoroDione.pdbqt.pdb
REMARK  1 active torsions:
REMARK  status: ('A' for Active; 'I' for Inactive)
REMARK    1  A    between atoms: N_4  and  C_12
REMARK                            x       y       z     vdW  Elec       q    Type
REMARK                         _______ _______ _______ _____ _____    ______ ____
ROOT
ATOM      1  F   UNL     1      62.165 -24.545  62.518  0.00  0.00    +0.000 F 
ATOM      2  O   UNL     1      58.319 -23.981  58.703  0.00  0.00    +0.000 OA
ATOM      3  O   UNL     1      59.537 -23.670  63.114  0.00  0.00    +0.000 OA
ATOM      4  N   UNL     1      60.609 -24.296  59.194  0.00  0.00    +0.000 N 
ATOM      5  N   UNL     1      59.031 -23.757  60.867  0.00  0.00    +0.000 N 
ATOM      6  C   UNL     1      61.491 -24.292  60.213  0.00  0.00    +0.000 C 
ATOM      7  C   UNL     1      61.340 -24.045  61.583  0.00  0.00    +0.000 C 
ATOM      8  C   UNL     1      59.257 -24.012  59.493  0.00  0.00    +0.000 C 
ATOM      9  C   UNL     1      59.915 -23.802  61.956  0.00  0.00    +0.000 C 
ATOM     10  H   UNL     1      58.063 -23.593  61.108  0.00  0.00    +0.000 HD
ENDROOT
BRANCH   4  12
ATOM     11  O   UNL     1      61.488 -23.581  57.046  0.00  0.00    +0.000 OA
ATOM     12  C   UNL     1      61.062 -24.575  57.936  0.00  0.00    +0.000 C 
ATOM     13  C   UNL     1      61.194 -25.834  57.291  0.00  0.00    +0.000 C 
ATOM     14  C   UNL     1      61.722 -25.967  55.862  0.00  0.00    +0.000 C 
ATOM     15  C   UNL     1      61.778 -24.456  56.075  0.00  0.00    +0.000 C 
ENDBRANCH   4  12
TORSDOF 1
ENDMDL
