MODEL 1
REMARK VINA RESULT:      -3.4      0.000      0.000
REMARK  Name = 7288_3Pentanone.pdbqt.pdb
REMARK  2 active torsions:
REMARK  status: ('A' for Active; 'I' for Inactive)
REMARK    1  A    between atoms: C_2  and  C_3
REMARK    2  A    between atoms: C_2  and  C_5
REMARK                            x       y       z     vdW  Elec       q    Type
REMARK                         _______ _______ _______ _____ _____    ______ ____
ROOT
ATOM      1  O   UNL     1      46.133 -36.570  51.243  0.00  0.00    +0.000 OA
ATOM      2  C   UNL     1      47.283 -36.957  51.406  0.00  0.00    +0.000 C 
ENDROOT
BRANCH   2   3
ATOM      3  C   UNL     1      47.688 -38.277  50.985  0.00  0.00    +0.000 C 
ATOM      4  C   UNL     1      48.125 -39.692  50.558  0.00  0.00    +0.000 C 
ENDBRANCH   2   3
BRANCH   2   5
ATOM      5  C   UNL     1      48.271 -36.105  52.026  0.00  0.00    +0.000 C 
ATOM      6  C   UNL     1      49.308 -35.184  52.700  0.00  0.00    +0.000 C 
ENDBRANCH   2   5
TORSDOF 2
ENDMDL
MODEL 2
REMARK VINA RESULT:      -3.4      2.035      2.201
REMARK  Name = 7288_3Pentanone.pdbqt.pdb
REMARK  2 active torsions:
REMARK  status: ('A' for Active; 'I' for Inactive)
REMARK    1  A    between atoms: C_2  and  C_3
REMARK    2  A    between atoms: C_2  and  C_5
REMARK                            x       y       z     vdW  Elec       q    Type
REMARK                         _______ _______ _______ _____ _____    ______ ____
ROOT
ATOM      1  O   UNL     1      47.506 -38.406  51.145  0.00  0.00    +0.000 OA
ATOM      2  C   UNL     1      47.943 -37.274  50.978  0.00  0.00    +0.000 C 
ENDROOT
BRANCH   2   3
ATOM      3  C   UNL     1      48.470 -36.864  49.698  0.00  0.00    +0.000 C 
ATOM      4  C   UNL     1      49.015 -36.411  48.329  0.00  0.00    +0.000 C 
ENDBRANCH   2   3
BRANCH   2   5
ATOM      5  C   UNL     1      47.944 -36.313  52.056  0.00  0.00    +0.000 C 
ATOM      6  C   UNL     1      47.943 -35.305  53.223  0.00  0.00    +0.000 C 
ENDBRANCH   2   5
TORSDOF 2
ENDMDL
MODEL 3
REMARK VINA RESULT:      -3.4      0.129      3.291
REMARK  Name = 7288_3Pentanone.pdbqt.pdb
REMARK  2 active torsions:
REMARK  status: ('A' for Active; 'I' for Inactive)
REMARK    1  A    between atoms: C_2  and  C_3
REMARK    2  A    between atoms: C_2  and  C_5
REMARK                            x       y       z     vdW  Elec       q    Type
REMARK                         _______ _______ _______ _____ _____    ______ ____
ROOT
ATOM      1  O   UNL     1      46.171 -36.425  51.040  0.00  0.00    +0.000 OA
ATOM      2  C   UNL     1      47.279 -36.868  51.319  0.00  0.00    +0.000 C 
ENDROOT
BRANCH   2   3
ATOM      3  C   UNL     1      48.255 -36.049  51.999  0.00  0.00    +0.000 C 
ATOM      4  C   UNL     1      49.305 -35.168  52.703  0.00  0.00    +0.000 C 
ENDBRANCH   2   3
BRANCH   2   5
ATOM      5  C   UNL     1      47.643 -38.222  50.977  0.00  0.00    +0.000 C 
ATOM      6  C   UNL     1      48.029 -39.663  50.588  0.00  0.00    +0.000 C 
ENDBRANCH   2   5
TORSDOF 2
ENDMDL
MODEL 4
REMARK VINA RESULT:      -3.3      1.996      3.290
REMARK  Name = 7288_3Pentanone.pdbqt.pdb
REMARK  2 active torsions:
REMARK  status: ('A' for Active; 'I' for Inactive)
REMARK    1  A    between atoms: C_2  and  C_3
REMARK    2  A    between atoms: C_2  and  C_5
REMARK                            x       y       z     vdW  Elec       q    Type
REMARK                         _______ _______ _______ _____ _____    ______ ____
ROOT
ATOM      1  O   UNL     1      47.552 -38.656  51.218  0.00  0.00    +0.000 OA
ATOM      2  C   UNL     1      48.134 -37.596  51.020  0.00  0.00    +0.000 C 
ENDROOT
BRANCH   2   3
ATOM      3  C   UNL     1      48.037 -36.510  51.967  0.00  0.00    +0.000 C 
ATOM      4  C   UNL     1      47.925 -35.366  52.993  0.00  0.00    +0.000 C 
ENDBRANCH   2   3
BRANCH   2   5
ATOM      5  C   UNL     1      48.934 -37.400  49.835  0.00  0.00    +0.000 C 
ATOM      6  C   UNL     1      49.779 -37.209  48.559  0.00  0.00    +0.000 C 
ENDBRANCH   2   5
TORSDOF 2
ENDMDL
MODEL 5
REMARK VINA RESULT:      -3.0      2.383      4.178
REMARK  Name = 7288_3Pentanone.pdbqt.pdb
REMARK  2 active torsions:
REMARK  status: ('A' for Active; 'I' for Inactive)
REMARK    1  A    between atoms: C_2  and  C_3
REMARK    2  A    between atoms: C_2  and  C_5
REMARK                            x       y       z     vdW  Elec       q    Type
REMARK                         _______ _______ _______ _____ _____    ______ ____
ROOT
ATOM      1  O   UNL     1      50.648 -38.749  50.360  0.00  0.00    +0.000 OA
ATOM      2  C   UNL     1      49.526 -38.464  50.763  0.00  0.00    +0.000 C 
ENDROOT
BRANCH   2   3
ATOM      3  C   UNL     1      49.282 -37.222  51.458  0.00  0.00    +0.000 C 
ATOM      4  C   UNL     1      49.045 -35.891  52.197  0.00  0.00    +0.000 C 
ENDBRANCH   2   3
BRANCH   2   5
ATOM      5  C   UNL     1      48.415 -39.362  50.557  0.00  0.00    +0.000 C 
ATOM      6  C   UNL     1      47.242 -40.335  50.325  0.00  0.00    +0.000 C 
ENDBRANCH   2   5
TORSDOF 2
ENDMDL
MODEL 6
REMARK VINA RESULT:      -3.0      2.905      3.679
REMARK  Name = 7288_3Pentanone.pdbqt.pdb
REMARK  2 active torsions:
REMARK  status: ('A' for Active; 'I' for Inactive)
REMARK    1  A    between atoms: C_2  and  C_3
REMARK    2  A    between atoms: C_2  and  C_5
REMARK                            x       y       z     vdW  Elec       q    Type
REMARK                         _______ _______ _______ _____ _____    ______ ____
ROOT
ATOM      1  O   UNL     1      46.506 -40.191  50.378  0.00  0.00    +0.000 OA
ATOM      2  C   UNL     1      47.614 -40.456  50.827  0.00  0.00    +0.000 C 
ENDROOT
BRANCH   2   3
ATOM      3  C   UNL     1      47.882 -41.743  51.425  0.00  0.00    +0.000 C 
ATOM      4  C   UNL     1      48.154 -43.127  52.047  0.00  0.00    +0.000 C 
ENDBRANCH   2   3
BRANCH   2   5
ATOM      5  C   UNL     1      48.687 -39.492  50.772  0.00  0.00    +0.000 C 
ATOM      6  C   UNL     1      49.848 -38.479  50.719  0.00  0.00    +0.000 C 
ENDBRANCH   2   5
TORSDOF 2
ENDMDL
MODEL 7
REMARK VINA RESULT:      -3.0      2.966      4.669
REMARK  Name = 7288_3Pentanone.pdbqt.pdb
REMARK  2 active torsions:
REMARK  status: ('A' for Active; 'I' for Inactive)
REMARK    1  A    between atoms: C_2  and  C_3
REMARK    2  A    between atoms: C_2  and  C_5
REMARK                            x       y       z     vdW  Elec       q    Type
REMARK                         _______ _______ _______ _____ _____    ______ ____
ROOT
ATOM      1  O   UNL     1      46.515 -40.168  50.387  0.00  0.00    +0.000 OA
ATOM      2  C   UNL     1      47.632 -40.458  50.797  0.00  0.00    +0.000 C 
ENDROOT
BRANCH   2   3
ATOM      3  C   UNL     1      48.729 -39.527  50.678  0.00  0.00    +0.000 C 
ATOM      4  C   UNL     1      49.893 -38.522  50.573  0.00  0.00    +0.000 C 
ENDBRANCH   2   3
BRANCH   2   5
ATOM      5  C   UNL     1      47.887 -41.739  51.412  0.00  0.00    +0.000 C 
ATOM      6  C   UNL     1      48.149 -43.118  52.050  0.00  0.00    +0.000 C 
ENDBRANCH   2   5
TORSDOF 2
ENDMDL
MODEL 8
REMARK VINA RESULT:      -2.8     12.235     13.070
REMARK  Name = 7288_3Pentanone.pdbqt.pdb
REMARK  2 active torsions:
REMARK  status: ('A' for Active; 'I' for Inactive)
REMARK    1  A    between atoms: C_2  and  C_3
REMARK    2  A    between atoms: C_2  and  C_5
REMARK                            x       y       z     vdW  Elec       q    Type
REMARK                         _______ _______ _______ _____ _____    ______ ____
ROOT
ATOM      1  O   UNL     1      40.567 -26.743  54.628  0.00  0.00    +0.000 OA
ATOM      2  C   UNL     1      39.764 -27.662  54.518  0.00  0.00    +0.000 C 
ENDROOT
BRANCH   2   3
ATOM      3  C   UNL     1      38.413 -27.417  54.070  0.00  0.00    +0.000 C 
ATOM      4  C   UNL     1      36.979 -27.160  53.569  0.00  0.00    +0.000 C 
ENDBRANCH   2   3
BRANCH   2   5
ATOM      5  C   UNL     1      40.142 -29.019  54.834  0.00  0.00    +0.000 C 
ATOM      6  C   UNL     1      40.528 -30.476  55.159  0.00  0.00    +0.000 C 
ENDBRANCH   2   5
TORSDOF 2
ENDMDL
MODEL 9
REMARK VINA RESULT:      -2.6     10.399     10.832
REMARK  Name = 7288_3Pentanone.pdbqt.pdb
REMARK  2 active torsions:
REMARK  status: ('A' for Active; 'I' for Inactive)
REMARK    1  A    between atoms: C_2  and  C_3
REMARK    2  A    between atoms: C_2  and  C_5
REMARK                            x       y       z     vdW  Elec       q    Type
REMARK                         _______ _______ _______ _____ _____    ______ ____
ROOT
ATOM      1  O   UNL     1      50.418 -46.056  48.343  0.00  0.00    +0.000 OA
ATOM      2  C   UNL     1      51.326 -46.533  49.013  0.00  0.00    +0.000 C 
ENDROOT
BRANCH   2   3
ATOM      3  C   UNL     1      51.049 -47.246  50.237  0.00  0.00    +0.000 C 
ATOM      4  C   UNL     1      50.754 -47.986  51.556  0.00  0.00    +0.000 C 
ENDBRANCH   2   3
BRANCH   2   5
ATOM      5  C   UNL     1      52.703 -46.397  48.599  0.00  0.00    +0.000 C 
ATOM      6  C   UNL     1      54.178 -46.272  48.168  0.00  0.00    +0.000 C 
ENDBRANCH   2   5
TORSDOF 2
ENDMDL
