MODEL 1
REMARK VINA RESULT:      -8.1      0.000      0.000
REMARK  Name = 73299_Hederagenin.pdbqt.pdb
REMARK  5 active torsions:
REMARK  status: ('A' for Active; 'I' for Inactive)
REMARK    1  A    between atoms: C_9  and  C_35
REMARK    2  A    between atoms: C_14  and  C_32
REMARK    3  A    between atoms: C_17  and  O_29
REMARK    4  A    between atoms: C_32  and  O_33
REMARK    5  A    between atoms: C_35  and  O_36
REMARK                            x       y       z     vdW  Elec       q    Type
REMARK                         _______ _______ _______ _____ _____    ______ ____
ROOT
ATOM      1  C   UNL     1      50.608 -45.115  48.176  0.00  0.00    +0.000 C 
ATOM      2  C   UNL     1      51.894 -46.015  48.405  0.00  0.00    +0.000 C 
ATOM      3  C   UNL     1      53.097 -46.023  47.457  0.00  0.00    +0.000 C 
ATOM      4  C   UNL     1      49.208 -45.921  48.541  0.00  0.00    +0.000 C 
ATOM      5  C   UNL     1      52.808 -45.806  45.943  0.00  0.00    +0.000 C 
ATOM      6  C   UNL     1      50.646 -44.736  46.759  0.00  0.00    +0.000 C 
ATOM      7  C   UNL     1      51.641 -45.033  45.687  0.00  0.00    +0.000 C 
ATOM      8  C   UNL     1      49.285 -46.661  49.985  0.00  0.00    +0.000 C 
ATOM      9  C   UNL     1      53.540 -46.572  44.828  0.00  0.00    +0.000 C 
ATOM     10  C   UNL     1      48.188 -46.693  50.977  0.00  0.00    +0.000 C 
ATOM     11  C   UNL     1      51.760 -46.871  49.543  0.00  0.00    +0.000 C 
ATOM     12  C   UNL     1      53.777 -47.313  47.532  0.00  0.00    +0.000 C 
ATOM     13  C   UNL     1      48.035 -45.036  48.669  0.00  0.00    +0.000 C 
ATOM     14  C   UNL     1      47.076 -45.483  51.129  0.00  0.00    +0.000 C 
ATOM     15  C   UNL     1      50.784 -43.831  49.084  0.00  0.00    +0.000 C 
ATOM     16  C   UNL     1      47.060 -44.856  49.808  0.00  0.00    +0.000 C 
ATOM     17  C   UNL     1      54.563 -47.665  45.240  0.00  0.00    +0.000 C 
ATOM     18  C   UNL     1      50.470 -47.118  50.272  0.00  0.00    +0.000 C 
ATOM     19  C   UNL     1      54.058 -44.893  47.909  0.00  0.00    +0.000 C 
ATOM     20  C   UNL     1      54.512 -48.166  46.552  0.00  0.00    +0.000 C 
ATOM     21  C   UNL     1      48.891 -47.079  47.498  0.00  0.00    +0.000 C 
ATOM     22  C   UNL     1      47.735 -47.998  51.459  0.00  0.00    +0.000 C 
ATOM     23  C   UNL     1      45.827 -46.188  51.527  0.00  0.00    +0.000 C 
ATOM     24  C   UNL     1      46.545 -48.786  51.956  0.00  0.00    +0.000 C 
ATOM     25  C   UNL     1      54.282 -45.541  43.915  0.00  0.00    +0.000 C 
ATOM     26  C   UNL     1      45.555 -47.662  51.924  0.00  0.00    +0.000 C 
ATOM     27  C   UNL     1      46.170 -49.908  50.970  0.00  0.00    +0.000 C 
ATOM     28  C   UNL     1      46.772 -49.311  53.384  0.00  0.00    +0.000 C 
ENDROOT
BRANCH  17  29
ATOM     29  O   UNL     1      55.682 -47.926  44.467  0.00  0.00    +0.000 OA
ATOM     30  H   UNL     1      56.490 -47.572  44.893  0.00  0.00    +0.000 HD
ENDBRANCH  17  29
BRANCH  14  32
ATOM     31  O   UNL     1      47.660 -43.331  52.176  0.00  0.00    +0.000 OA
ATOM     32  C   UNL     1      47.559 -44.549  52.246  0.00  0.00    +0.000 C 
BRANCH  32  33
ATOM     33  O   UNL     1      47.963 -45.185  53.368  0.00  0.00    +0.000 OA
ATOM     34  H   UNL     1      47.900 -46.141  53.157  0.00  0.00    +0.000 HD
ENDBRANCH  32  33
ENDBRANCH  14  32
BRANCH   9  35
ATOM     35  C   UNL     1      52.505 -47.292  44.020  0.00  0.00    +0.000 C 
BRANCH  35  36
ATOM     36  O   UNL     1      51.573 -47.923  43.302  0.00  0.00    +0.000 OA
ATOM     37  H   UNL     1      51.544 -47.585  42.388  0.00  0.00    +0.000 HD
ENDBRANCH  35  36
ENDBRANCH   9  35
TORSDOF 5
ENDMDL
MODEL 2
REMARK VINA RESULT:      -7.9      3.913      7.897
REMARK  Name = 73299_Hederagenin.pdbqt.pdb
REMARK  5 active torsions:
REMARK  status: ('A' for Active; 'I' for Inactive)
REMARK    1  A    between atoms: C_9  and  C_35
REMARK    2  A    between atoms: C_14  and  C_32
REMARK    3  A    between atoms: C_17  and  O_29
REMARK    4  A    between atoms: C_32  and  O_33
REMARK    5  A    between atoms: C_35  and  O_36
REMARK                            x       y       z     vdW  Elec       q    Type
REMARK                         _______ _______ _______ _____ _____    ______ ____
ROOT
ATOM      1  C   UNL     1      46.229 -49.442  51.388  0.00  0.00    +0.000 C 
ATOM      2  C   UNL     1      46.291 -48.125  52.269  0.00  0.00    +0.000 C 
ATOM      3  C   UNL     1      46.410 -46.717  51.676  0.00  0.00    +0.000 C 
ATOM      4  C   UNL     1      47.115 -50.677  52.047  0.00  0.00    +0.000 C 
ATOM      5  C   UNL     1      47.229 -46.570  50.360  0.00  0.00    +0.000 C 
ATOM      6  C   UNL     1      46.755 -49.055  50.074  0.00  0.00    +0.000 C 
ATOM      7  C   UNL     1      47.232 -47.741  49.553  0.00  0.00    +0.000 C 
ATOM      8  C   UNL     1      46.795 -50.887  53.626  0.00  0.00    +0.000 C 
ATOM      9  C   UNL     1      48.169 -45.385  50.083  0.00  0.00    +0.000 C 
ATOM     10  C   UNL     1      46.642 -52.200  54.289  0.00  0.00    +0.000 C 
ATOM     11  C   UNL     1      46.310 -48.411  53.671  0.00  0.00    +0.000 C 
ATOM     12  C   UNL     1      47.066 -45.831  52.632  0.00  0.00    +0.000 C 
ATOM     13  C   UNL     1      46.816 -51.995  51.456  0.00  0.00    +0.000 C 
ATOM     14  C   UNL     1      46.070 -53.540  53.514  0.00  0.00    +0.000 C 
ATOM     15  C   UNL     1      44.701 -49.834  51.265  0.00  0.00    +0.000 C 
ATOM     16  C   UNL     1      46.379 -53.287  52.107  0.00  0.00    +0.000 C 
ATOM     17  C   UNL     1      48.363 -44.326  51.201  0.00  0.00    +0.000 C 
ATOM     18  C   UNL     1      46.536 -49.777  54.255  0.00  0.00    +0.000 C 
ATOM     19  C   UNL     1      44.974 -46.209  51.384  0.00  0.00    +0.000 C 
ATOM     20  C   UNL     1      47.990 -44.665  52.514  0.00  0.00    +0.000 C 
ATOM     21  C   UNL     1      48.679 -50.401  51.973  0.00  0.00    +0.000 C 
ATOM     22  C   UNL     1      47.483 -52.484  55.452  0.00  0.00    +0.000 C 
ATOM     23  C   UNL     1      46.807 -54.666  54.146  0.00  0.00    +0.000 C 
ATOM     24  C   UNL     1      48.204 -53.569  56.219  0.00  0.00    +0.000 C 
ATOM     25  C   UNL     1      47.673 -44.640  48.800  0.00  0.00    +0.000 C 
ATOM     26  C   UNL     1      47.756 -54.721  55.371  0.00  0.00    +0.000 C 
ATOM     27  C   UNL     1      49.730 -53.373  56.159  0.00  0.00    +0.000 C 
ATOM     28  C   UNL     1      47.682 -53.681  57.662  0.00  0.00    +0.000 C 
ENDROOT
BRANCH  17  29
ATOM     29  O   UNL     1      48.596 -42.995  50.895  0.00  0.00    +0.000 OA
ATOM     30  H   UNL     1      48.906 -42.505  51.685  0.00  0.00    +0.000 HD
ENDBRANCH  17  29
BRANCH  14  32
ATOM     31  O   UNL     1      43.710 -52.835  53.451  0.00  0.00    +0.000 OA
ATOM     32  C   UNL     1      44.567 -53.635  53.804  0.00  0.00    +0.000 C 
BRANCH  32  33
ATOM     33  O   UNL     1      44.215 -54.682  54.583  0.00  0.00    +0.000 OA
ATOM     34  H   UNL     1      43.894 -55.368  53.960  0.00  0.00    +0.000 HD
ENDBRANCH  32  33
ENDBRANCH  14  32
BRANCH   9  35
ATOM     35  C   UNL     1      49.536 -45.941  49.833  0.00  0.00    +0.000 C 
BRANCH  35  36
ATOM     36  O   UNL     1      50.757 -46.442  49.625  0.00  0.00    +0.000 OA
ATOM     37  H   UNL     1      51.001 -47.075  50.325  0.00  0.00    +0.000 HD
ENDBRANCH  35  36
ENDBRANCH   9  35
TORSDOF 5
ENDMDL
MODEL 3
REMARK VINA RESULT:      -7.5      1.911      2.866
REMARK  Name = 73299_Hederagenin.pdbqt.pdb
REMARK  5 active torsions:
REMARK  status: ('A' for Active; 'I' for Inactive)
REMARK    1  A    between atoms: C_9  and  C_35
REMARK    2  A    between atoms: C_14  and  C_32
REMARK    3  A    between atoms: C_17  and  O_29
REMARK    4  A    between atoms: C_32  and  O_33
REMARK    5  A    between atoms: C_35  and  O_36
REMARK                            x       y       z     vdW  Elec       q    Type
REMARK                         _______ _______ _______ _____ _____    ______ ____
ROOT
ATOM      1  C   UNL     1      49.038 -46.765  49.149  0.00  0.00    +0.000 C 
ATOM      2  C   UNL     1      50.604 -46.777  49.400  0.00  0.00    +0.000 C 
ATOM      3  C   UNL     1      51.611 -46.079  48.479  0.00  0.00    +0.000 C 
ATOM      4  C   UNL     1      48.342 -48.232  49.476  0.00  0.00    +0.000 C 
ATOM      5  C   UNL     1      51.270 -46.035  46.962  0.00  0.00    +0.000 C 
ATOM      6  C   UNL     1      48.873 -46.403  47.737  0.00  0.00    +0.000 C 
ATOM      7  C   UNL     1      49.874 -46.060  46.686  0.00  0.00    +0.000 C 
ATOM      8  C   UNL     1      48.806 -48.825  50.915  0.00  0.00    +0.000 C 
ATOM      9  C   UNL     1      52.324 -46.226  45.857  0.00  0.00    +0.000 C 
ATOM     10  C   UNL     1      47.909 -49.496  51.882  0.00  0.00    +0.000 C 
ATOM     11  C   UNL     1      50.966 -47.579  50.528  0.00  0.00    +0.000 C 
ATOM     12  C   UNL     1      52.903 -46.753  48.559  0.00  0.00    +0.000 C 
ATOM     13  C   UNL     1      46.872 -48.175  49.584  0.00  0.00    +0.000 C 
ATOM     14  C   UNL     1      46.304 -49.138  52.019  0.00  0.00    +0.000 C 
ATOM     15  C   UNL     1      48.438 -45.628  50.072  0.00  0.00    +0.000 C 
ATOM     16  C   UNL     1      45.952 -48.605  50.703  0.00  0.00    +0.000 C 
ATOM     17  C   UNL     1      53.781 -46.550  46.283  0.00  0.00    +0.000 C 
ATOM     18  C   UNL     1      50.036 -48.531  51.225  0.00  0.00    +0.000 C 
ATOM     19  C   UNL     1      51.750 -44.613  48.963  0.00  0.00    +0.000 C 
ATOM     20  C   UNL     1      54.006 -47.016  47.590  0.00  0.00    +0.000 C 
ATOM     21  C   UNL     1      48.756 -49.343  48.416  0.00  0.00    +0.000 C 
ATOM     22  C   UNL     1      48.275 -50.835  52.343  0.00  0.00    +0.000 C 
ATOM     23  C   UNL     1      45.674 -50.436  52.382  0.00  0.00    +0.000 C 
ATOM     24  C   UNL     1      47.738 -52.171  52.805  0.00  0.00    +0.000 C 
ATOM     25  C   UNL     1      52.359 -44.938  44.970  0.00  0.00    +0.000 C 
ATOM     26  C   UNL     1      46.285 -51.810  52.760  0.00  0.00    +0.000 C 
ATOM     27  C   UNL     1      48.083 -53.286  51.801  0.00  0.00    +0.000 C 
ATOM     28  C   UNL     1      48.205 -52.501  54.234  0.00  0.00    +0.000 C 
ENDROOT
BRANCH  17  29
ATOM     29  O   UNL     1      54.860 -46.112  45.533  0.00  0.00    +0.000 OA
ATOM     30  H   UNL     1      54.559 -45.700  44.697  0.00  0.00    +0.000 HD
ENDBRANCH  17  29
BRANCH  14  32
ATOM     31  O   UNL     1      45.790 -46.954  53.037  0.00  0.00    +0.000 OA
ATOM     32  C   UNL     1      46.153 -48.117  53.154  0.00  0.00    +0.000 C 
BRANCH  32  33
ATOM     33  O   UNL     1      46.534 -48.574  54.368  0.00  0.00    +0.000 OA
ATOM     34  H   UNL     1      47.366 -49.068  54.206  0.00  0.00    +0.000 HD
ENDBRANCH  32  33
ENDBRANCH  14  32
BRANCH   9  35
ATOM     35  C   UNL     1      51.895 -47.390  45.020  0.00  0.00    +0.000 C 
BRANCH  35  36
ATOM     36  O   UNL     1      51.511 -48.438  44.285  0.00  0.00    +0.000 OA
ATOM     37  H   UNL     1      50.540 -48.473  44.203  0.00  0.00    +0.000 HD
ENDBRANCH  35  36
ENDBRANCH   9  35
TORSDOF 5
ENDMDL
MODEL 4
REMARK VINA RESULT:      -7.4      6.082     11.124
REMARK  Name = 73299_Hederagenin.pdbqt.pdb
REMARK  5 active torsions:
REMARK  status: ('A' for Active; 'I' for Inactive)
REMARK    1  A    between atoms: C_9  and  C_35
REMARK    2  A    between atoms: C_14  and  C_32
REMARK    3  A    between atoms: C_17  and  O_29
REMARK    4  A    between atoms: C_32  and  O_33
REMARK    5  A    between atoms: C_35  and  O_36
REMARK                            x       y       z     vdW  Elec       q    Type
REMARK                         _______ _______ _______ _____ _____    ______ ____
ROOT
ATOM      1  C   UNL     1      46.457 -53.789  53.692  0.00  0.00    +0.000 C 
ATOM      2  C   UNL     1      47.959 -53.692  54.190  0.00  0.00    +0.000 C 
ATOM      3  C   UNL     1      48.582 -54.672  55.190  0.00  0.00    +0.000 C 
ATOM      4  C   UNL     1      45.740 -52.301  53.572  0.00  0.00    +0.000 C 
ATOM      5  C   UNL     1      47.646 -55.252  56.290  0.00  0.00    +0.000 C 
ATOM      6  C   UNL     1      45.773 -54.629  54.682  0.00  0.00    +0.000 C 
ATOM      7  C   UNL     1      46.280 -55.325  55.901  0.00  0.00    +0.000 C 
ATOM      8  C   UNL     1      46.667 -51.236  52.768  0.00  0.00    +0.000 C 
ATOM      9  C   UNL     1      48.092 -55.467  57.746  0.00  0.00    +0.000 C 
ATOM     10  C   UNL     1      46.166 -50.265  51.771  0.00  0.00    +0.000 C 
ATOM     11  C   UNL     1      48.630 -52.542  53.667  0.00  0.00    +0.000 C 
ATOM     12  C   UNL     1      49.663 -54.015  55.919  0.00  0.00    +0.000 C 
ATOM     13  C   UNL     1      44.482 -52.314  52.803  0.00  0.00    +0.000 C 
ATOM     14  C   UNL     1      44.847 -50.549  50.821  0.00  0.00    +0.000 C 
ATOM     15  C   UNL     1      46.490 -54.524  52.290  0.00  0.00    +0.000 C 
ATOM     16  C   UNL     1      44.063 -51.514  51.592  0.00  0.00    +0.000 C 
ATOM     17  C   UNL     1      49.522 -55.015  58.149  0.00  0.00    +0.000 C 
ATOM     18  C   UNL     1      47.942 -51.402  52.969  0.00  0.00    +0.000 C 
ATOM     19  C   UNL     1      49.143 -55.871  54.383  0.00  0.00    +0.000 C 
ATOM     20  C   UNL     1      50.199 -54.115  57.308  0.00  0.00    +0.000 C 
ATOM     21  C   UNL     1      45.488 -51.639  54.996  0.00  0.00    +0.000 C 
ATOM     22  C   UNL     1      46.474 -48.849  51.977  0.00  0.00    +0.000 C 
ATOM     23  C   UNL     1      44.231 -49.206  50.647  0.00  0.00    +0.000 C 
ATOM     24  C   UNL     1      45.977 -47.436  51.774  0.00  0.00    +0.000 C 
ATOM     25  C   UNL     1      47.955 -56.986  58.094  0.00  0.00    +0.000 C 
ATOM     26  C   UNL     1      44.717 -47.787  51.043  0.00  0.00    +0.000 C 
ATOM     27  C   UNL     1      45.686 -46.750  53.121  0.00  0.00    +0.000 C 
ATOM     28  C   UNL     1      46.943 -46.620  50.896  0.00  0.00    +0.000 C 
ENDROOT
BRANCH  17  29
ATOM     29  O   UNL     1      50.240 -55.692  59.121  0.00  0.00    +0.000 OA
ATOM     30  H   UNL     1      49.741 -55.722  59.964  0.00  0.00    +0.000 HD
ENDBRANCH  17  29
BRANCH  14  32
ATOM     31  O   UNL     1      45.425 -50.481  48.428  0.00  0.00    +0.000 OA
ATOM     32  C   UNL     1      45.352 -51.099  49.482  0.00  0.00    +0.000 C 
BRANCH  32  33
ATOM     33  O   UNL     1      45.671 -52.412  49.503  0.00  0.00    +0.000 OA
ATOM     34  H   UNL     1      45.849 -52.617  50.447  0.00  0.00    +0.000 HD
ENDBRANCH  32  33
ENDBRANCH  14  32
BRANCH   9  35
ATOM     35  C   UNL     1      47.172 -54.675  58.622  0.00  0.00    +0.000 C 
BRANCH  35  36
ATOM     36  O   UNL     1      46.341 -53.979  59.403  0.00  0.00    +0.000 OA
ATOM     37  H   UNL     1      45.894 -53.275  58.899  0.00  0.00    +0.000 HD
ENDBRANCH  35  36
ENDBRANCH   9  35
TORSDOF 5
ENDMDL
MODEL 5
REMARK VINA RESULT:      -7.4     14.127     16.370
REMARK  Name = 73299_Hederagenin.pdbqt.pdb
REMARK  5 active torsions:
REMARK  status: ('A' for Active; 'I' for Inactive)
REMARK    1  A    between atoms: C_9  and  C_35
REMARK    2  A    between atoms: C_14  and  C_32
REMARK    3  A    between atoms: C_17  and  O_29
REMARK    4  A    between atoms: C_32  and  O_33
REMARK    5  A    between atoms: C_35  and  O_36
REMARK                            x       y       z     vdW  Elec       q    Type
REMARK                         _______ _______ _______ _____ _____    ______ ____
ROOT
ATOM      1  C   UNL     1      58.834 -51.890  60.898  0.00  0.00    +0.000 C 
ATOM      2  C   UNL     1      58.293 -52.397  59.496  0.00  0.00    +0.000 C 
ATOM      3  C   UNL     1      58.129 -53.879  59.141  0.00  0.00    +0.000 C 
ATOM      4  C   UNL     1      59.861 -50.600  60.743  0.00  0.00    +0.000 C 
ATOM      5  C   UNL     1      59.156 -54.873  59.756  0.00  0.00    +0.000 C 
ATOM      6  C   UNL     1      59.519 -53.045  61.491  0.00  0.00    +0.000 C 
ATOM      7  C   UNL     1      59.698 -54.442  61.000  0.00  0.00    +0.000 C 
ATOM      8  C   UNL     1      59.251 -49.444  59.778  0.00  0.00    +0.000 C 
ATOM      9  C   UNL     1      59.742 -56.064  58.980  0.00  0.00    +0.000 C 
ATOM     10  C   UNL     1      59.340 -47.991  60.043  0.00  0.00    +0.000 C 
ATOM     11  C   UNL     1      58.061 -51.320  58.584  0.00  0.00    +0.000 C 
ATOM     12  C   UNL     1      58.247 -54.057  57.697  0.00  0.00    +0.000 C 
ATOM     13  C   UNL     1      60.114 -49.894  62.012  0.00  0.00    +0.000 C 
ATOM     14  C   UNL     1      59.390 -47.354  61.564  0.00  0.00    +0.000 C 
ATOM     15  C   UNL     1      57.565 -51.512  61.765  0.00  0.00    +0.000 C 
ATOM     16  C   UNL     1      59.936 -48.439  62.379  0.00  0.00    +0.000 C 
ATOM     17  C   UNL     1      59.343 -56.236  57.490  0.00  0.00    +0.000 C 
ATOM     18  C   UNL     1      58.534 -49.910  58.797  0.00  0.00    +0.000 C 
ATOM     19  C   UNL     1      56.720 -54.321  59.614  0.00  0.00    +0.000 C 
ATOM     20  C   UNL     1      58.786 -55.134  56.817  0.00  0.00    +0.000 C 
ATOM     21  C   UNL     1      61.245 -51.010  60.075  0.00  0.00    +0.000 C 
ATOM     22  C   UNL     1      59.925 -47.139  59.007  0.00  0.00    +0.000 C 
ATOM     23  C   UNL     1      60.254 -46.151  61.424  0.00  0.00    +0.000 C 
ATOM     24  C   UNL     1      60.729 -45.885  58.750  0.00  0.00    +0.000 C 
ATOM     25  C   UNL     1      59.370 -57.385  59.731  0.00  0.00    +0.000 C 
ATOM     26  C   UNL     1      60.857 -45.452  60.178  0.00  0.00    +0.000 C 
ATOM     27  C   UNL     1      62.098 -46.221  58.128  0.00  0.00    +0.000 C 
ATOM     28  C   UNL     1      59.936 -44.870  57.909  0.00  0.00    +0.000 C 
ENDROOT
BRANCH  17  29
ATOM     29  O   UNL     1      59.240 -57.492  56.916  0.00  0.00    +0.000 OA
ATOM     30  H   UNL     1      58.367 -57.608  56.485  0.00  0.00    +0.000 HD
ENDBRANCH  17  29
BRANCH  14  32
ATOM     31  O   UNL     1      56.948 -47.621  61.746  0.00  0.00    +0.000 OA
ATOM     32  C   UNL     1      57.958 -46.960  61.948  0.00  0.00    +0.000 C 
BRANCH  32  33
ATOM     33  O   UNL     1      57.846 -45.730  62.496  0.00  0.00    +0.000 OA
ATOM     34  H   UNL     1      57.495 -45.160  61.778  0.00  0.00    +0.000 HD
ENDBRANCH  32  33
ENDBRANCH  14  32
BRANCH   9  35
ATOM     35  C   UNL     1      61.232 -55.907  58.968  0.00  0.00    +0.000 C 
BRANCH  35  36
ATOM     36  O   UNL     1      62.560 -55.766  58.972  0.00  0.00    +0.000 OA
ATOM     37  H   UNL     1      62.989 -56.469  58.451  0.00  0.00    +0.000 HD
ENDBRANCH  35  36
ENDBRANCH   9  35
TORSDOF 5
ENDMDL
MODEL 6
REMARK VINA RESULT:      -7.3      3.731      6.183
REMARK  Name = 73299_Hederagenin.pdbqt.pdb
REMARK  5 active torsions:
REMARK  status: ('A' for Active; 'I' for Inactive)
REMARK    1  A    between atoms: C_9  and  C_35
REMARK    2  A    between atoms: C_14  and  C_32
REMARK    3  A    between atoms: C_17  and  O_29
REMARK    4  A    between atoms: C_32  and  O_33
REMARK    5  A    between atoms: C_35  and  O_36
REMARK                            x       y       z     vdW  Elec       q    Type
REMARK                         _______ _______ _______ _____ _____    ______ ____
ROOT
ATOM      1  C   UNL     1      48.679 -45.348  49.914  0.00  0.00    +0.000 C 
ATOM      2  C   UNL     1      48.282 -44.847  48.463  0.00  0.00    +0.000 C 
ATOM      3  C   UNL     1      48.704 -43.488  47.894  0.00  0.00    +0.000 C 
ATOM      4  C   UNL     1      47.431 -46.135  50.667  0.00  0.00    +0.000 C 
ATOM      5  C   UNL     1      48.824 -42.306  48.900  0.00  0.00    +0.000 C 
ATOM      6  C   UNL     1      49.063 -44.138  50.651  0.00  0.00    +0.000 C 
ATOM      7  C   UNL     1      49.143 -42.710  50.226  0.00  0.00    +0.000 C 
ATOM      8  C   UNL     1      46.749 -47.258  49.711  0.00  0.00    +0.000 C 
ATOM      9  C   UNL     1      48.373 -40.873  48.570  0.00  0.00    +0.000 C 
ATOM     10  C   UNL     1      46.326 -48.603  50.159  0.00  0.00    +0.000 C 
ATOM     11  C   UNL     1      47.420 -45.769  47.788  0.00  0.00    +0.000 C 
ATOM     12  C   UNL     1      47.731 -43.044  46.901  0.00  0.00    +0.000 C 
ATOM     13  C   UNL     1      47.850 -46.902  51.855  0.00  0.00    +0.000 C 
ATOM     14  C   UNL     1      47.070 -49.421  51.384  0.00  0.00    +0.000 C 
ATOM     15  C   UNL     1      49.934 -46.296  49.740  0.00  0.00    +0.000 C 
ATOM     16  C   UNL     1      47.667 -48.362  52.197  0.00  0.00    +0.000 C 
ATOM     17  C   UNL     1      47.701 -40.613  47.195  0.00  0.00    +0.000 C 
ATOM     18  C   UNL     1      46.731 -46.927  48.452  0.00  0.00    +0.000 C 
ATOM     19  C   UNL     1      50.093 -43.669  47.229  0.00  0.00    +0.000 C 
ATOM     20  C   UNL     1      47.199 -41.715  46.480  0.00  0.00    +0.000 C 
ATOM     21  C   UNL     1      46.247 -45.149  51.059  0.00  0.00    +0.000 C 
ATOM     22  C   UNL     1      44.939 -49.003  49.915  0.00  0.00    +0.000 C 
ATOM     23  C   UNL     1      45.970 -50.189  52.026  0.00  0.00    +0.000 C 
ATOM     24  C   UNL     1      43.780 -49.820  50.439  0.00  0.00    +0.000 C 
ATOM     25  C   UNL     1      49.608 -39.919  48.687  0.00  0.00    +0.000 C 
ATOM     26  C   UNL     1      44.489 -50.407  51.621  0.00  0.00    +0.000 C 
ATOM     27  C   UNL     1      42.609 -48.915  50.864  0.00  0.00    +0.000 C 
ATOM     28  C   UNL     1      43.352 -50.900  49.430  0.00  0.00    +0.000 C 
ENDROOT
BRANCH  17  29
ATOM     29  O   UNL     1      47.854 -39.403  46.540  0.00  0.00    +0.000 OA
ATOM     30  H   UNL     1      48.722 -39.360  46.087  0.00  0.00    +0.000 HD
ENDBRANCH  17  29
BRANCH  14  32
ATOM     31  O   UNL     1      48.376 -50.438  49.560  0.00  0.00    +0.000 OA
ATOM     32  C   UNL     1      48.101 -50.363  50.750  0.00  0.00    +0.000 C 
BRANCH  32  33
ATOM     33  O   UNL     1      48.686 -51.215  51.621  0.00  0.00    +0.000 OA
ATOM     34  H   UNL     1      48.189 -51.104  52.460  0.00  0.00    +0.000 HD
ENDBRANCH  32  33
ENDBRANCH  14  32
BRANCH   9  35
ATOM     35  C   UNL     1      47.346 -40.477  49.586  0.00  0.00    +0.000 C 
BRANCH  35  36
ATOM     36  O   UNL     1      46.439 -40.112  50.496  0.00  0.00    +0.000 OA
ATOM     37  H   UNL     1      46.802 -39.443  51.105  0.00  0.00    +0.000 HD
ENDBRANCH  35  36
ENDBRANCH   9  35
TORSDOF 5
ENDMDL
MODEL 7
REMARK VINA RESULT:      -7.2     15.492     17.382
REMARK  Name = 73299_Hederagenin.pdbqt.pdb
REMARK  5 active torsions:
REMARK  status: ('A' for Active; 'I' for Inactive)
REMARK    1  A    between atoms: C_9  and  C_35
REMARK    2  A    between atoms: C_14  and  C_32
REMARK    3  A    between atoms: C_17  and  O_29
REMARK    4  A    between atoms: C_32  and  O_33
REMARK    5  A    between atoms: C_35  and  O_36
REMARK                            x       y       z     vdW  Elec       q    Type
REMARK                         _______ _______ _______ _____ _____    ______ ____
ROOT
ATOM      1  C   UNL     1      58.746 -49.566  61.175  0.00  0.00    +0.000 C 
ATOM      2  C   UNL     1      59.562 -48.416  61.901  0.00  0.00    +0.000 C 
ATOM      3  C   UNL     1      59.978 -47.112  61.212  0.00  0.00    +0.000 C 
ATOM      4  C   UNL     1      59.290 -51.075  61.588  0.00  0.00    +0.000 C 
ATOM      5  C   UNL     1      60.318 -47.191  59.695  0.00  0.00    +0.000 C 
ATOM      6  C   UNL     1      58.916 -49.316  59.739  0.00  0.00    +0.000 C 
ATOM      7  C   UNL     1      59.636 -48.233  59.007  0.00  0.00    +0.000 C 
ATOM      8  C   UNL     1      59.451 -51.251  63.195  0.00  0.00    +0.000 C 
ATOM      9  C   UNL     1      61.476 -46.410  59.051  0.00  0.00    +0.000 C 
ATOM     10  C   UNL     1      59.061 -52.458  63.955  0.00  0.00    +0.000 C 
ATOM     11  C   UNL     1      59.932 -48.774  63.236  0.00  0.00    +0.000 C 
ATOM     12  C   UNL     1      61.182 -46.582  61.844  0.00  0.00    +0.000 C 
ATOM     13  C   UNL     1      58.363 -52.158  61.213  0.00  0.00    +0.000 C 
ATOM     14  C   UNL     1      57.825 -53.452  63.496  0.00  0.00    +0.000 C 
ATOM     15  C   UNL     1      57.228 -49.373  61.581  0.00  0.00    +0.000 C 
ATOM     16  C   UNL     1      57.727 -53.242  62.052  0.00  0.00    +0.000 C 
ATOM     17  C   UNL     1      62.391 -45.562  59.975  0.00  0.00    +0.000 C 
ATOM     18  C   UNL     1      59.829 -50.163  63.802  0.00  0.00    +0.000 C 
ATOM     19  C   UNL     1      58.811 -46.104  61.371  0.00  0.00    +0.000 C 
ATOM     20  C   UNL     1      62.371 -45.824  61.356  0.00  0.00    +0.000 C 
ATOM     21  C   UNL     1      60.733 -51.378  60.992  0.00  0.00    +0.000 C 
ATOM     22  C   UNL     1      60.073 -53.097  64.797  0.00  0.00    +0.000 C 
ATOM     23  C   UNL     1      58.271 -54.805  63.926  0.00  0.00    +0.000 C 
ATOM     24  C   UNL     1      60.562 -54.413  65.356  0.00  0.00    +0.000 C 
ATOM     25  C   UNL     1      60.892 -45.460  57.954  0.00  0.00    +0.000 C 
ATOM     26  C   UNL     1      59.480 -55.272  64.776  0.00  0.00    +0.000 C 
ATOM     27  C   UNL     1      61.947 -54.777  64.790  0.00  0.00    +0.000 C 
ATOM     28  C   UNL     1      60.537 -54.417  66.895  0.00  0.00    +0.000 C 
ENDROOT
BRANCH  17  29
ATOM     29  O   UNL     1      62.974 -44.389  59.524  0.00  0.00    +0.000 OA
ATOM     30  H   UNL     1      62.586 -44.113  58.668  0.00  0.00    +0.000 HD
ENDBRANCH  17  29
BRANCH  14  32
ATOM     31  O   UNL     1      56.195 -53.459  65.343  0.00  0.00    +0.000 OA
ATOM     32  C   UNL     1      56.572 -53.016  64.266  0.00  0.00    +0.000 C 
BRANCH  32  33
ATOM     33  O   UNL     1      55.811 -52.104  63.621  0.00  0.00    +0.000 OA
ATOM     34  H   UNL     1      54.886 -52.333  63.854  0.00  0.00    +0.000 HD
ENDBRANCH  32  33
ENDBRANCH  14  32
BRANCH   9  35
ATOM     35  C   UNL     1      62.390 -47.406  58.407  0.00  0.00    +0.000 C 
BRANCH  35  36
ATOM     36  O   UNL     1      63.201 -48.304  57.842  0.00  0.00    +0.000 OA
ATOM     37  H   UNL     1      62.767 -49.174  57.772  0.00  0.00    +0.000 HD
ENDBRANCH  35  36
ENDBRANCH   9  35
TORSDOF 5
ENDMDL
MODEL 8
REMARK VINA RESULT:      -7.1     15.034     18.208
REMARK  Name = 73299_Hederagenin.pdbqt.pdb
REMARK  5 active torsions:
REMARK  status: ('A' for Active; 'I' for Inactive)
REMARK    1  A    between atoms: C_9  and  C_35
REMARK    2  A    between atoms: C_14  and  C_32
REMARK    3  A    between atoms: C_17  and  O_29
REMARK    4  A    between atoms: C_32  and  O_33
REMARK    5  A    between atoms: C_35  and  O_36
REMARK                            x       y       z     vdW  Elec       q    Type
REMARK                         _______ _______ _______ _____ _____    ______ ____
ROOT
ATOM      1  C   UNL     1      62.081 -47.209  60.936  0.00  0.00    +0.000 C 
ATOM      2  C   UNL     1      60.762 -47.526  60.115  0.00  0.00    +0.000 C 
ATOM      3  C   UNL     1      59.552 -48.253  60.712  0.00  0.00    +0.000 C 
ATOM      4  C   UNL     1      63.450 -47.443  60.034  0.00  0.00    +0.000 C 
ATOM      5  C   UNL     1      59.838 -49.340  61.788  0.00  0.00    +0.000 C 
ATOM      6  C   UNL     1      62.047 -48.111  62.092  0.00  0.00    +0.000 C 
ATOM      7  C   UNL     1      61.033 -49.116  62.526  0.00  0.00    +0.000 C 
ATOM      8  C   UNL     1      63.355 -46.731  58.577  0.00  0.00    +0.000 C 
ATOM      9  C   UNL     1      59.067 -50.669  61.866  0.00  0.00    +0.000 C 
ATOM     10  C   UNL     1      64.458 -45.991  57.925  0.00  0.00    +0.000 C 
ATOM     11  C   UNL     1      60.870 -47.135  58.743  0.00  0.00    +0.000 C 
ATOM     12  C   UNL     1      58.822 -48.946  59.655  0.00  0.00    +0.000 C 
ATOM     13  C   UNL     1      64.659 -46.845  60.632  0.00  0.00    +0.000 C 
ATOM     14  C   UNL     1      65.619 -45.177  58.769  0.00  0.00    +0.000 C 
ATOM     15  C   UNL     1      61.964 -45.706  61.420  0.00  0.00    +0.000 C 
ATOM     16  C   UNL     1      65.650 -45.856  60.064  0.00  0.00    +0.000 C 
ATOM     17  C   UNL     1      58.004 -50.965  60.774  0.00  0.00    +0.000 C 
ATOM     18  C   UNL     1      62.155 -46.740  58.072  0.00  0.00    +0.000 C 
ATOM     19  C   UNL     1      58.641 -47.183  61.368  0.00  0.00    +0.000 C 
ATOM     20  C   UNL     1      58.045 -50.219  59.583  0.00  0.00    +0.000 C 
ATOM     21  C   UNL     1      63.712 -48.982  59.728  0.00  0.00    +0.000 C 
ATOM     22  C   UNL     1      64.861 -46.404  56.580  0.00  0.00    +0.000 C 
ATOM     23  C   UNL     1      66.841 -45.321  57.933  0.00  0.00    +0.000 C 
ATOM     24  C   UNL     1      66.023 -46.517  55.620  0.00  0.00    +0.000 C 
ATOM     25  C   UNL     1      58.359 -50.757  63.259  0.00  0.00    +0.000 C 
ATOM     26  C   UNL     1      67.057 -45.897  56.510  0.00  0.00    +0.000 C 
ATOM     27  C   UNL     1      66.345 -47.989  55.307  0.00  0.00    +0.000 C 
ATOM     28  C   UNL     1      65.786 -45.684  54.348  0.00  0.00    +0.000 C 
ENDROOT
BRANCH  17  29
ATOM     29  O   UNL     1      56.870 -51.706  61.061  0.00  0.00    +0.000 OA
ATOM     30  H   UNL     1      56.648 -51.649  62.013  0.00  0.00    +0.000 HD
ENDBRANCH  17  29
BRANCH  14  32
ATOM     31  O   UNL     1      65.752 -42.754  58.346  0.00  0.00    +0.000 OA
ATOM     32  C   UNL     1      65.182 -43.709  58.857  0.00  0.00    +0.000 C 
BRANCH  32  33
ATOM     33  O   UNL     1      64.100 -43.495  59.637  0.00  0.00    +0.000 OA
ATOM     34  H   UNL     1      63.967 -44.336  60.126  0.00  0.00    +0.000 HD
ENDBRANCH  32  33
ENDBRANCH  14  32
BRANCH   9  35
ATOM     35  C   UNL     1      60.065 -51.778  61.749  0.00  0.00    +0.000 C 
BRANCH  35  36
ATOM     36  O   UNL     1      60.962 -52.761  61.633  0.00  0.00    +0.000 OA
ATOM     37  H   UNL     1      61.635 -52.708  62.336  0.00  0.00    +0.000 HD
ENDBRANCH  35  36
ENDBRANCH   9  35
TORSDOF 5
ENDMDL
MODEL 9
REMARK VINA RESULT:      -6.9     15.659     18.572
REMARK  Name = 73299_Hederagenin.pdbqt.pdb
REMARK  5 active torsions:
REMARK  status: ('A' for Active; 'I' for Inactive)
REMARK    1  A    between atoms: C_9  and  C_35
REMARK    2  A    between atoms: C_14  and  C_32
REMARK    3  A    between atoms: C_17  and  O_29
REMARK    4  A    between atoms: C_32  and  O_33
REMARK    5  A    between atoms: C_35  and  O_36
REMARK                            x       y       z     vdW  Elec       q    Type
REMARK                         _______ _______ _______ _____ _____    ______ ____
ROOT
ATOM      1  C   UNL     1      58.445 -50.321  62.103  0.00  0.00    +0.000 C 
ATOM      2  C   UNL     1      59.123 -51.703  61.723  0.00  0.00    +0.000 C 
ATOM      3  C   UNL     1      58.581 -53.062  62.178  0.00  0.00    +0.000 C 
ATOM      4  C   UNL     1      59.563 -49.155  62.467  0.00  0.00    +0.000 C 
ATOM      5  C   UNL     1      57.896 -53.120  63.575  0.00  0.00    +0.000 C 
ATOM      6  C   UNL     1      57.587 -50.612  63.257  0.00  0.00    +0.000 C 
ATOM      7  C   UNL     1      57.304 -51.889  63.975  0.00  0.00    +0.000 C 
ATOM      8  C   UNL     1      60.741 -49.064  61.352  0.00  0.00    +0.000 C 
ATOM      9  C   UNL     1      58.074 -54.295  64.551  0.00  0.00    +0.000 C 
ATOM     10  C   UNL     1      61.316 -47.803  60.834  0.00  0.00    +0.000 C 
ATOM     11  C   UNL     1      60.336 -51.527  60.986  0.00  0.00    +0.000 C 
ATOM     12  C   UNL     1      59.670 -54.031  62.250  0.00  0.00    +0.000 C 
ATOM     13  C   UNL     1      59.004 -47.791  62.492  0.00  0.00    +0.000 C 
ATOM     14  C   UNL     1      60.457 -46.399  60.724  0.00  0.00    +0.000 C 
ATOM     15  C   UNL     1      57.556 -49.895  60.863  0.00  0.00    +0.000 C 
ATOM     16  C   UNL     1      59.416 -46.546  61.740  0.00  0.00    +0.000 C 
ATOM     17  C   UNL     1      59.041 -55.441  64.150  0.00  0.00    +0.000 C 
ATOM     18  C   UNL     1      61.051 -50.215  60.829  0.00  0.00    +0.000 C 
ATOM     19  C   UNL     1      57.533 -53.523  61.132  0.00  0.00    +0.000 C 
ATOM     20  C   UNL     1      59.976 -55.198  63.128  0.00  0.00    +0.000 C 
ATOM     21  C   UNL     1      60.313 -49.449  63.839  0.00  0.00    +0.000 C 
ATOM     22  C   UNL     1      62.766 -47.624  60.919  0.00  0.00    +0.000 C 
ATOM     23  C   UNL     1      61.467 -45.337  60.981  0.00  0.00    +0.000 C 
ATOM     24  C   UNL     1      63.877 -46.614  61.092  0.00  0.00    +0.000 C 
ATOM     25  C   UNL     1      56.672 -54.929  64.834  0.00  0.00    +0.000 C 
ATOM     26  C   UNL     1      63.009 -45.393  61.132  0.00  0.00    +0.000 C 
ATOM     27  C   UNL     1      64.624 -46.829  62.421  0.00  0.00    +0.000 C 
ATOM     28  C   UNL     1      64.825 -46.606  59.880  0.00  0.00    +0.000 C 
ENDROOT
BRANCH  17  29
ATOM     29  O   UNL     1      58.809 -56.747  64.547  0.00  0.00    +0.000 OA
ATOM     30  H   UNL     1      59.621 -57.288  64.459  0.00  0.00    +0.000 HD
ENDBRANCH  17  29
BRANCH  14  32
ATOM     31  O   UNL     1      59.515 -47.235  58.607  0.00  0.00    +0.000 OA
ATOM     32  C   UNL     1      59.910 -46.302  59.294  0.00  0.00    +0.000 C 
BRANCH  32  33
ATOM     33  O   UNL     1      59.951 -45.059  58.765  0.00  0.00    +0.000 OA
ATOM     34  H   UNL     1      60.901 -44.813  58.765  0.00  0.00    +0.000 HD
ENDBRANCH  32  33
ENDBRANCH  14  32
BRANCH   9  35
ATOM     35  C   UNL     1      58.632 -53.743  65.826  0.00  0.00    +0.000 C 
BRANCH  35  36
ATOM     36  O   UNL     1      59.119 -53.256  66.971  0.00  0.00    +0.000 OA
ATOM     37  H   UNL     1      59.795 -53.851  67.346  0.00  0.00    +0.000 HD
ENDBRANCH  35  36
ENDBRANCH   9  35
TORSDOF 5
ENDMDL
