MODEL 1
REMARK VINA RESULT:      -8.7      0.000      0.000
REMARK  Name = 73659_MaslinicAcid.pdbqt.pdb
REMARK  4 active torsions:
REMARK  status: ('A' for Active; 'I' for Inactive)
REMARK    1  A    between atoms: C_14  and  C_35
REMARK    2  A    between atoms: C_17  and  O_30
REMARK    3  A    between atoms: C_19  and  O_32
REMARK    4  A    between atoms: C_35  and  O_36
REMARK                            x       y       z     vdW  Elec       q    Type
REMARK                         _______ _______ _______ _____ _____    ______ ____
ROOT
ATOM      1  C   UNL     1      46.194 -49.684  51.399  0.00  0.00    +0.000 C 
ATOM      2  C   UNL     1      46.268 -48.328  52.223  0.00  0.00    +0.000 C 
ATOM      3  C   UNL     1      46.354 -46.946  51.567  0.00  0.00    +0.000 C 
ATOM      4  C   UNL     1      47.102 -50.885  52.086  0.00  0.00    +0.000 C 
ATOM      5  C   UNL     1      47.096 -46.846  50.230  0.00  0.00    +0.000 C 
ATOM      6  C   UNL     1      46.682 -49.345  50.058  0.00  0.00    +0.000 C 
ATOM      7  C   UNL     1      47.113 -48.044  49.466  0.00  0.00    +0.000 C 
ATOM      8  C   UNL     1      46.818 -51.030  53.679  0.00  0.00    +0.000 C 
ATOM      9  C   UNL     1      47.866 -45.582  49.879  0.00  0.00    +0.000 C 
ATOM     10  C   UNL     1      46.667 -52.315  54.398  0.00  0.00    +0.000 C 
ATOM     11  C   UNL     1      46.325 -48.555  53.634  0.00  0.00    +0.000 C 
ATOM     12  C   UNL     1      47.074 -46.029  52.436  0.00  0.00    +0.000 C 
ATOM     13  C   UNL     1      46.798 -52.226  51.556  0.00  0.00    +0.000 C 
ATOM     14  C   UNL     1      46.073 -53.681  53.686  0.00  0.00    +0.000 C 
ATOM     15  C   UNL     1      44.664 -50.085  51.328  0.00  0.00    +0.000 C 
ATOM     16  C   UNL     1      46.367 -53.490  52.265  0.00  0.00    +0.000 C 
ATOM     17  C   UNL     1      48.240 -44.599  51.018  0.00  0.00    +0.000 C 
ATOM     18  C   UNL     1      44.907 -46.446  51.341  0.00  0.00    +0.000 C 
ATOM     19  C   UNL     1      47.938 -44.942  52.368  0.00  0.00    +0.000 C 
ATOM     20  C   UNL     1      46.571 -49.894  54.268  0.00  0.00    +0.000 C 
ATOM     21  C   UNL     1      48.660 -50.600  51.966  0.00  0.00    +0.000 C 
ATOM     22  C   UNL     1      47.518 -52.557  55.562  0.00  0.00    +0.000 C 
ATOM     23  C   UNL     1      46.808 -54.786  54.358  0.00  0.00    +0.000 C 
ATOM     24  C   UNL     1      48.235 -53.616  56.368  0.00  0.00    +0.000 C 
ATOM     25  C   UNL     1      49.248 -45.996  49.262  0.00  0.00    +0.000 C 
ATOM     26  C   UNL     1      47.073 -44.776  48.811  0.00  0.00    +0.000 C 
ATOM     27  C   UNL     1      47.769 -54.799  55.574  0.00  0.00    +0.000 C 
ATOM     28  C   UNL     1      47.726 -53.661  57.819  0.00  0.00    +0.000 C 
ATOM     29  C   UNL     1      49.763 -53.438  56.285  0.00  0.00    +0.000 C 
ENDROOT
BRANCH  17  30
ATOM     30  O   UNL     1      48.844 -43.363  50.804  0.00  0.00    +0.000 OA
ATOM     31  H   UNL     1      49.140 -42.963  51.648  0.00  0.00    +0.000 HD
ENDBRANCH  17  30
BRANCH  19  32
ATOM     32  O   UNL     1      48.082 -44.029  53.368  0.00  0.00    +0.000 OA
ATOM     33  H   UNL     1      48.372 -43.165  53.016  0.00  0.00    +0.000 HD
ENDBRANCH  19  32
BRANCH  14  35
ATOM     34  O   UNL     1      43.721 -52.948  53.634  0.00  0.00    +0.000 OA
ATOM     35  C   UNL     1      44.573 -53.750  53.993  0.00  0.00    +0.000 C 
BRANCH  35  36
ATOM     36  O   UNL     1      44.217 -54.778  54.796  0.00  0.00    +0.000 OA
ATOM     37  H   UNL     1      43.258 -54.911  54.631  0.00  0.00    +0.000 HD
ENDBRANCH  35  36
ENDBRANCH  14  35
TORSDOF 4
ENDMDL
MODEL 2
REMARK VINA RESULT:      -8.3      4.180      8.238
REMARK  Name = 73659_MaslinicAcid.pdbqt.pdb
REMARK  4 active torsions:
REMARK  status: ('A' for Active; 'I' for Inactive)
REMARK    1  A    between atoms: C_14  and  C_35
REMARK    2  A    between atoms: C_17  and  O_30
REMARK    3  A    between atoms: C_19  and  O_32
REMARK    4  A    between atoms: C_35  and  O_36
REMARK                            x       y       z     vdW  Elec       q    Type
REMARK                         _______ _______ _______ _____ _____    ______ ____
ROOT
ATOM      1  C   UNL     1      50.591 -45.026  48.100  0.00  0.00    +0.000 C 
ATOM      2  C   UNL     1      51.815 -46.032  48.219  0.00  0.00    +0.000 C 
ATOM      3  C   UNL     1      52.973 -46.074  47.218  0.00  0.00    +0.000 C 
ATOM      4  C   UNL     1      49.152 -45.742  48.494  0.00  0.00    +0.000 C 
ATOM      5  C   UNL     1      52.656 -45.727  45.759  0.00  0.00    +0.000 C 
ATOM      6  C   UNL     1      50.600 -44.575  46.704  0.00  0.00    +0.000 C 
ATOM      7  C   UNL     1      51.536 -44.871  45.579  0.00  0.00    +0.000 C 
ATOM      8  C   UNL     1      49.238 -46.558  49.896  0.00  0.00    +0.000 C 
ATOM      9  C   UNL     1      53.420 -46.405  44.632  0.00  0.00    +0.000 C 
ATOM     10  C   UNL     1      48.199 -46.543  50.950  0.00  0.00    +0.000 C 
ATOM     11  C   UNL     1      51.666 -46.937  49.317  0.00  0.00    +0.000 C 
ATOM     12  C   UNL     1      53.519 -47.419  47.147  0.00  0.00    +0.000 C 
ATOM     13  C   UNL     1      48.060 -44.777  48.722  0.00  0.00    +0.000 C 
ATOM     14  C   UNL     1      47.205 -45.252  51.215  0.00  0.00    +0.000 C 
ATOM     15  C   UNL     1      50.913 -43.809  49.060  0.00  0.00    +0.000 C 
ATOM     16  C   UNL     1      47.165 -44.570  49.922  0.00  0.00    +0.000 C 
ATOM     17  C   UNL     1      54.195 -47.711  44.940  0.00  0.00    +0.000 C 
ATOM     18  C   UNL     1      54.054 -45.083  47.713  0.00  0.00    +0.000 C 
ATOM     19  C   UNL     1      54.099 -48.295  46.236  0.00  0.00    +0.000 C 
ATOM     20  C   UNL     1      50.396 -47.122  50.097  0.00  0.00    +0.000 C 
ATOM     21  C   UNL     1      48.703 -46.816  47.414  0.00  0.00    +0.000 C 
ATOM     22  C   UNL     1      47.668 -47.824  51.411  0.00  0.00    +0.000 C 
ATOM     23  C   UNL     1      45.928 -45.868  51.665  0.00  0.00    +0.000 C 
ATOM     24  C   UNL     1      46.447 -48.531  51.956  0.00  0.00    +0.000 C 
ATOM     25  C   UNL     1      52.398 -46.818  43.516  0.00  0.00    +0.000 C 
ATOM     26  C   UNL     1      54.435 -45.396  44.020  0.00  0.00    +0.000 C 
ATOM     27  C   UNL     1      45.555 -47.329  52.026  0.00  0.00    +0.000 C 
ATOM     28  C   UNL     1      46.716 -49.129  53.348  0.00  0.00    +0.000 C 
ATOM     29  C   UNL     1      45.919 -49.577  50.957  0.00  0.00    +0.000 C 
ENDROOT
BRANCH  17  30
ATOM     30  O   UNL     1      55.016 -48.357  44.019  0.00  0.00    +0.000 OA
ATOM     31  H   UNL     1      55.354 -49.203  44.379  0.00  0.00    +0.000 HD
ENDBRANCH  17  30
BRANCH  19  32
ATOM     32  O   UNL     1      54.906 -49.332  46.595  0.00  0.00    +0.000 OA
ATOM     33  H   UNL     1      54.745 -50.113  46.032  0.00  0.00    +0.000 HD
ENDBRANCH  19  32
BRANCH  14  35
ATOM     34  O   UNL     1      48.261 -43.265  52.220  0.00  0.00    +0.000 OA
ATOM     35  C   UNL     1      47.831 -44.406  52.330  0.00  0.00    +0.000 C 
BRANCH  35  36
ATOM     36  O   UNL     1      47.959 -45.050  53.512  0.00  0.00    +0.000 OA
ATOM     37  H   UNL     1      47.089 -45.482  53.662  0.00  0.00    +0.000 HD
ENDBRANCH  35  36
ENDBRANCH  14  35
TORSDOF 4
ENDMDL
MODEL 3
REMARK VINA RESULT:      -7.5     14.367     16.087
REMARK  Name = 73659_MaslinicAcid.pdbqt.pdb
REMARK  4 active torsions:
REMARK  status: ('A' for Active; 'I' for Inactive)
REMARK    1  A    between atoms: C_14  and  C_35
REMARK    2  A    between atoms: C_17  and  O_30
REMARK    3  A    between atoms: C_19  and  O_32
REMARK    4  A    between atoms: C_35  and  O_36
REMARK                            x       y       z     vdW  Elec       q    Type
REMARK                         _______ _______ _______ _____ _____    ______ ____
ROOT
ATOM      1  C   UNL     1      58.788 -49.472  61.252  0.00  0.00    +0.000 C 
ATOM      2  C   UNL     1      59.603 -48.281  61.917  0.00  0.00    +0.000 C 
ATOM      3  C   UNL     1      59.933 -46.975  61.190  0.00  0.00    +0.000 C 
ATOM      4  C   UNL     1      59.399 -50.954  61.660  0.00  0.00    +0.000 C 
ATOM      5  C   UNL     1      60.163 -47.050  59.676  0.00  0.00    +0.000 C 
ATOM      6  C   UNL     1      58.877 -49.236  59.806  0.00  0.00    +0.000 C 
ATOM      7  C   UNL     1      59.504 -48.128  59.026  0.00  0.00    +0.000 C 
ATOM      8  C   UNL     1      59.641 -51.096  63.261  0.00  0.00    +0.000 C 
ATOM      9  C   UNL     1      61.156 -46.111  59.009  0.00  0.00    +0.000 C 
ATOM     10  C   UNL     1      59.308 -52.293  64.064  0.00  0.00    +0.000 C 
ATOM     11  C   UNL     1      60.052 -48.605  63.236  0.00  0.00    +0.000 C 
ATOM     12  C   UNL     1      61.175 -46.422  61.705  0.00  0.00    +0.000 C 
ATOM     13  C   UNL     1      58.489 -52.071  61.347  0.00  0.00    +0.000 C 
ATOM     14  C   UNL     1      58.074 -53.321  63.680  0.00  0.00    +0.000 C 
ATOM     15  C   UNL     1      57.287 -49.314  61.729  0.00  0.00    +0.000 C 
ATOM     16  C   UNL     1      57.915 -53.151  62.236  0.00  0.00    +0.000 C 
ATOM     17  C   UNL     1      62.209 -45.394  59.891  0.00  0.00    +0.000 C 
ATOM     18  C   UNL     1      58.765 -45.992  61.439  0.00  0.00    +0.000 C 
ATOM     19  C   UNL     1      62.285 -45.698  61.280  0.00  0.00    +0.000 C 
ATOM     20  C   UNL     1      60.019 -49.985  63.828  0.00  0.00    +0.000 C 
ATOM     21  C   UNL     1      60.820 -51.218  61.000  0.00  0.00    +0.000 C 
ATOM     22  C   UNL     1      60.363 -52.890  64.881  0.00  0.00    +0.000 C 
ATOM     23  C   UNL     1      58.562 -54.652  64.127  0.00  0.00    +0.000 C 
ATOM     24  C   UNL     1      60.898 -54.181  65.457  0.00  0.00    +0.000 C 
ATOM     25  C   UNL     1      62.011 -46.936  57.985  0.00  0.00    +0.000 C 
ATOM     26  C   UNL     1      60.379 -45.013  58.227  0.00  0.00    +0.000 C 
ATOM     27  C   UNL     1      59.811 -55.076  64.943  0.00  0.00    +0.000 C 
ATOM     28  C   UNL     1      60.929 -54.142  66.996  0.00  0.00    +0.000 C 
ATOM     29  C   UNL     1      62.267 -54.537  64.849  0.00  0.00    +0.000 C 
ENDROOT
BRANCH  17  30
ATOM     30  O   UNL     1      63.094 -44.432  59.409  0.00  0.00    +0.000 OA
ATOM     31  H   UNL     1      64.021 -44.666  59.622  0.00  0.00    +0.000 HD
ENDBRANCH  17  30
BRANCH  19  32
ATOM     32  O   UNL     1      63.066 -44.959  62.115  0.00  0.00    +0.000 OA
ATOM     33  H   UNL     1      62.939 -45.227  63.046  0.00  0.00    +0.000 HD
ENDBRANCH  19  32
BRANCH  14  35
ATOM     34  O   UNL     1      56.619 -53.137  65.660  0.00  0.00    +0.000 OA
ATOM     35  C   UNL     1      56.842 -52.887  64.483  0.00  0.00    +0.000 C 
BRANCH  35  36
ATOM     36  O   UNL     1      55.912 -52.224  63.759  0.00  0.00    +0.000 OA
ATOM     37  H   UNL     1      55.629 -51.477  64.331  0.00  0.00    +0.000 HD
ENDBRANCH  35  36
ENDBRANCH  14  35
TORSDOF 4
ENDMDL
MODEL 4
REMARK VINA RESULT:      -7.4      3.432      4.732
REMARK  Name = 73659_MaslinicAcid.pdbqt.pdb
REMARK  4 active torsions:
REMARK  status: ('A' for Active; 'I' for Inactive)
REMARK    1  A    between atoms: C_14  and  C_35
REMARK    2  A    between atoms: C_17  and  O_30
REMARK    3  A    between atoms: C_19  and  O_32
REMARK    4  A    between atoms: C_35  and  O_36
REMARK                            x       y       z     vdW  Elec       q    Type
REMARK                         _______ _______ _______ _____ _____    ______ ____
ROOT
ATOM      1  C   UNL     1      45.529 -50.156  50.892  0.00  0.00    +0.000 C 
ATOM      2  C   UNL     1      43.972 -50.447  51.014  0.00  0.00    +0.000 C 
ATOM      3  C   UNL     1      42.894 -49.535  50.422  0.00  0.00    +0.000 C 
ATOM      4  C   UNL     1      46.345 -50.514  52.286  0.00  0.00    +0.000 C 
ATOM      5  C   UNL     1      43.194 -48.032  50.369  0.00  0.00    +0.000 C 
ATOM      6  C   UNL     1      45.628 -48.729  50.565  0.00  0.00    +0.000 C 
ATOM      7  C   UNL     1      44.575 -47.701  50.313  0.00  0.00    +0.000 C 
ATOM      8  C   UNL     1      45.963 -51.986  52.858  0.00  0.00    +0.000 C 
ATOM      9  C   UNL     1      42.066 -47.025  50.528  0.00  0.00    +0.000 C 
ATOM     10  C   UNL     1      46.934 -52.961  53.402  0.00  0.00    +0.000 C 
ATOM     11  C   UNL     1      43.700 -51.609  51.804  0.00  0.00    +0.000 C 
ATOM     12  C   UNL     1      41.680 -49.622  51.217  0.00  0.00    +0.000 C 
ATOM     13  C   UNL     1      47.808 -50.580  52.110  0.00  0.00    +0.000 C 
ATOM     14  C   UNL     1      48.505 -53.042  52.901  0.00  0.00    +0.000 C 
ATOM     15  C   UNL     1      46.055 -51.023  49.676  0.00  0.00    +0.000 C 
ATOM     16  C   UNL     1      48.785 -51.693  52.410  0.00  0.00    +0.000 C 
ATOM     17  C   UNL     1      40.727 -47.500  51.148  0.00  0.00    +0.000 C 
ATOM     18  C   UNL     1      42.622 -50.011  48.975  0.00  0.00    +0.000 C 
ATOM     19  C   UNL     1      40.614 -48.833  51.636  0.00  0.00    +0.000 C 
ATOM     20  C   UNL     1      44.719 -52.314  52.653  0.00  0.00    +0.000 C 
ATOM     21  C   UNL     1      45.990 -49.506  53.462  0.00  0.00    +0.000 C 
ATOM     22  C   UNL     1      46.695 -53.498  54.740  0.00  0.00    +0.000 C 
ATOM     23  C   UNL     1      49.251 -53.457  54.119  0.00  0.00    +0.000 C 
ATOM     24  C   UNL     1      47.353 -54.019  55.998  0.00  0.00    +0.000 C 
ATOM     25  C   UNL     1      42.550 -45.883  51.490  0.00  0.00    +0.000 C 
ATOM     26  C   UNL     1      41.740 -46.395  49.144  0.00  0.00    +0.000 C 
ATOM     27  C   UNL     1      48.769 -53.921  55.518  0.00  0.00    +0.000 C 
ATOM     28  C   UNL     1      46.943 -55.474  56.287  0.00  0.00    +0.000 C 
ATOM     29  C   UNL     1      47.088 -53.084  57.192  0.00  0.00    +0.000 C 
ENDROOT
BRANCH  17  30
ATOM     30  O   UNL     1      39.592 -46.698  51.241  0.00  0.00    +0.000 OA
ATOM     31  H   UNL     1      39.294 -46.404  50.355  0.00  0.00    +0.000 HD
ENDBRANCH  17  30
BRANCH  19  32
ATOM     32  O   UNL     1      39.407 -49.338  52.014  0.00  0.00    +0.000 OA
ATOM     33  H   UNL     1      39.289 -50.251  51.686  0.00  0.00    +0.000 HD
ENDBRANCH  19  32
BRANCH  14  35
ATOM     34  O   UNL     1      47.872 -54.205  50.822  0.00  0.00    +0.000 OA
ATOM     35  C   UNL     1      48.590 -54.117  51.810  0.00  0.00    +0.000 C 
BRANCH  35  36
ATOM     36  O   UNL     1      49.517 -55.073  52.043  0.00  0.00    +0.000 OA
ATOM     37  H   UNL     1      49.157 -55.600  52.790  0.00  0.00    +0.000 HD
ENDBRANCH  35  36
ENDBRANCH  14  35
TORSDOF 4
ENDMDL
MODEL 5
REMARK VINA RESULT:      -7.4      1.898      8.509
REMARK  Name = 73659_MaslinicAcid.pdbqt.pdb
REMARK  4 active torsions:
REMARK  status: ('A' for Active; 'I' for Inactive)
REMARK    1  A    between atoms: C_14  and  C_35
REMARK    2  A    between atoms: C_17  and  O_30
REMARK    3  A    between atoms: C_19  and  O_32
REMARK    4  A    between atoms: C_35  and  O_36
REMARK                            x       y       z     vdW  Elec       q    Type
REMARK                         _______ _______ _______ _____ _____    ______ ____
ROOT
ATOM      1  C   UNL     1      46.756 -48.357  52.038  0.00  0.00    +0.000 C 
ATOM      2  C   UNL     1      46.672 -49.792  51.360  0.00  0.00    +0.000 C 
ATOM      3  C   UNL     1      46.097 -51.025  52.063  0.00  0.00    +0.000 C 
ATOM      4  C   UNL     1      48.169 -47.575  51.674  0.00  0.00    +0.000 C 
ATOM      5  C   UNL     1      46.280 -51.118  53.582  0.00  0.00    +0.000 C 
ATOM      6  C   UNL     1      46.638 -48.607  53.479  0.00  0.00    +0.000 C 
ATOM      7  C   UNL     1      46.416 -49.869  54.245  0.00  0.00    +0.000 C 
ATOM      8  C   UNL     1      48.493 -47.605  50.082  0.00  0.00    +0.000 C 
ATOM      9  C   UNL     1      46.453 -52.476  54.246  0.00  0.00    +0.000 C 
ATOM     10  C   UNL     1      48.999 -46.455  49.301  0.00  0.00    +0.000 C 
ATOM     11  C   UNL     1      47.263 -49.810  50.057  0.00  0.00    +0.000 C 
ATOM     12  C   UNL     1      46.739 -52.227  51.558  0.00  0.00    +0.000 C 
ATOM     13  C   UNL     1      48.142 -46.137  51.996  0.00  0.00    +0.000 C 
ATOM     14  C   UNL     1      48.663 -44.885  49.685  0.00  0.00    +0.000 C 
ATOM     15  C   UNL     1      45.498 -47.543  51.529  0.00  0.00    +0.000 C 
ATOM     16  C   UNL     1      48.391 -44.928  51.122  0.00  0.00    +0.000 C 
ATOM     17  C   UNL     1      46.856 -53.687  53.367  0.00  0.00    +0.000 C 
ATOM     18  C   UNL     1      44.578 -51.064  51.770  0.00  0.00    +0.000 C 
ATOM     19  C   UNL     1      47.144 -53.487  51.986  0.00  0.00    +0.000 C 
ATOM     20  C   UNL     1      48.113 -48.705  49.497  0.00  0.00    +0.000 C 
ATOM     21  C   UNL     1      49.425 -48.258  52.367  0.00  0.00    +0.000 C 
ATOM     22  C   UNL     1      50.220 -46.640  48.517  0.00  0.00    +0.000 C 
ATOM     23  C   UNL     1      49.886 -44.144  49.278  0.00  0.00    +0.000 C 
ATOM     24  C   UNL     1      51.458 -45.959  47.981  0.00  0.00    +0.000 C 
ATOM     25  C   UNL     1      47.606 -52.370  55.304  0.00  0.00    +0.000 C 
ATOM     26  C   UNL     1      45.139 -52.856  54.987  0.00  0.00    +0.000 C 
ATOM     27  C   UNL     1      51.150 -44.586  48.496  0.00  0.00    +0.000 C 
ATOM     28  C   UNL     1      51.503 -45.999  46.443  0.00  0.00    +0.000 C 
ATOM     29  C   UNL     1      52.733 -46.537  48.622  0.00  0.00    +0.000 C 
ENDROOT
BRANCH  17  30
ATOM     30  O   UNL     1      46.935 -54.994  53.842  0.00  0.00    +0.000 OA
ATOM     31  H   UNL     1      46.445 -55.612  53.261  0.00  0.00    +0.000 HD
ENDBRANCH  17  30
BRANCH  19  32
ATOM     32  O   UNL     1      47.319 -54.547  51.149  0.00  0.00    +0.000 OA
ATOM     33  H   UNL     1      48.257 -54.641  50.894  0.00  0.00    +0.000 HD
ENDBRANCH  19  32
BRANCH  14  35
ATOM     34  O   UNL     1      47.187 -43.311  48.495  0.00  0.00    +0.000 OA
ATOM     35  C   UNL     1      47.452 -44.452  48.850  0.00  0.00    +0.000 C 
BRANCH  35  36
ATOM     36  O   UNL     1      46.591 -45.453  48.560  0.00  0.00    +0.000 OA
ATOM     37  H   UNL     1      46.449 -45.922  49.411  0.00  0.00    +0.000 HD
ENDBRANCH  35  36
ENDBRANCH  14  35
TORSDOF 4
ENDMDL
MODEL 6
REMARK VINA RESULT:      -7.3      2.675      9.832
REMARK  Name = 73659_MaslinicAcid.pdbqt.pdb
REMARK  4 active torsions:
REMARK  status: ('A' for Active; 'I' for Inactive)
REMARK    1  A    between atoms: C_14  and  C_35
REMARK    2  A    between atoms: C_17  and  O_30
REMARK    3  A    between atoms: C_19  and  O_32
REMARK    4  A    between atoms: C_35  and  O_36
REMARK                            x       y       z     vdW  Elec       q    Type
REMARK                         _______ _______ _______ _____ _____    ______ ____
ROOT
ATOM      1  C   UNL     1      48.102 -45.709  50.897  0.00  0.00    +0.000 C 
ATOM      2  C   UNL     1      46.662 -46.378  50.945  0.00  0.00    +0.000 C 
ATOM      3  C   UNL     1      46.290 -47.514  51.903  0.00  0.00    +0.000 C 
ATOM      4  C   UNL     1      48.592 -45.386  49.350  0.00  0.00    +0.000 C 
ATOM      5  C   UNL     1      47.396 -48.506  52.282  0.00  0.00    +0.000 C 
ATOM      6  C   UNL     1      48.994 -46.674  51.551  0.00  0.00    +0.000 C 
ATOM      7  C   UNL     1      48.716 -47.985  52.209  0.00  0.00    +0.000 C 
ATOM      8  C   UNL     1      47.446 -44.615  48.494  0.00  0.00    +0.000 C 
ATOM      9  C   UNL     1      47.052 -49.962  52.554  0.00  0.00    +0.000 C 
ATOM     10  C   UNL     1      47.693 -43.476  47.583  0.00  0.00    +0.000 C 
ATOM     11  C   UNL     1      45.788 -45.852  49.942  0.00  0.00    +0.000 C 
ATOM     12  C   UNL     1      45.261 -48.349  51.306  0.00  0.00    +0.000 C 
ATOM     13  C   UNL     1      49.749 -44.475  49.279  0.00  0.00    +0.000 C 
ATOM     14  C   UNL     1      48.925 -42.398  47.802  0.00  0.00    +0.000 C 
ATOM     15  C   UNL     1      48.014 -44.388  51.764  0.00  0.00    +0.000 C 
ATOM     16  C   UNL     1      49.918 -43.153  48.566  0.00  0.00    +0.000 C 
ATOM     17  C   UNL     1      45.694 -50.512  52.047  0.00  0.00    +0.000 C 
ATOM     18  C   UNL     1      45.768 -46.870  53.209  0.00  0.00    +0.000 C 
ATOM     19  C   UNL     1      44.846 -49.676  51.265  0.00  0.00    +0.000 C 
ATOM     20  C   UNL     1      46.234 -44.986  48.799  0.00  0.00    +0.000 C 
ATOM     21  C   UNL     1      48.901 -46.712  48.531  0.00  0.00    +0.000 C 
ATOM     22  C   UNL     1      47.214 -43.579  46.206  0.00  0.00    +0.000 C 
ATOM     23  C   UNL     1      49.320 -42.017  46.420  0.00  0.00    +0.000 C 
ATOM     24  C   UNL     1      47.479 -43.175  44.773  0.00  0.00    +0.000 C 
ATOM     25  C   UNL     1      48.120 -50.866  51.845  0.00  0.00    +0.000 C 
ATOM     26  C   UNL     1      47.119 -50.230  54.084  0.00  0.00    +0.000 C 
ATOM     27  C   UNL     1      48.686 -42.329  45.040  0.00  0.00    +0.000 C 
ATOM     28  C   UNL     1      46.315 -42.350  44.196  0.00  0.00    +0.000 C 
ATOM     29  C   UNL     1      47.819 -44.400  43.904  0.00  0.00    +0.000 C 
ENDROOT
BRANCH  17  30
ATOM     30  O   UNL     1      45.225 -51.792  52.331  0.00  0.00    +0.000 OA
ATOM     31  H   UNL     1      44.419 -51.997  51.812  0.00  0.00    +0.000 HD
ENDBRANCH  17  30
BRANCH  19  32
ATOM     32  O   UNL     1      43.575 -50.059  50.962  0.00  0.00    +0.000 OA
ATOM     33  H   UNL     1      43.552 -50.576  50.133  0.00  0.00    +0.000 HD
ENDBRANCH  19  32
BRANCH  14  35
ATOM     34  O   UNL     1      48.484 -40.969  49.761  0.00  0.00    +0.000 OA
ATOM     35  C   UNL     1      48.358 -41.194  48.564  0.00  0.00    +0.000 C 
BRANCH  35  36
ATOM     36  O   UNL     1      47.598 -40.368  47.811  0.00  0.00    +0.000 OA
ATOM     37  H   UNL     1      47.387 -40.882  47.001  0.00  0.00    +0.000 HD
ENDBRANCH  35  36
ENDBRANCH  14  35
TORSDOF 4
ENDMDL
MODEL 7
REMARK VINA RESULT:      -7.2      3.374      5.752
REMARK  Name = 73659_MaslinicAcid.pdbqt.pdb
REMARK  4 active torsions:
REMARK  status: ('A' for Active; 'I' for Inactive)
REMARK    1  A    between atoms: C_14  and  C_35
REMARK    2  A    between atoms: C_17  and  O_30
REMARK    3  A    between atoms: C_19  and  O_32
REMARK    4  A    between atoms: C_35  and  O_36
REMARK                            x       y       z     vdW  Elec       q    Type
REMARK                         _______ _______ _______ _____ _____    ______ ____
ROOT
ATOM      1  C   UNL     1      48.535 -46.869  48.229  0.00  0.00    +0.000 C 
ATOM      2  C   UNL     1      49.927 -46.403  48.835  0.00  0.00    +0.000 C 
ATOM      3  C   UNL     1      51.029 -45.738  48.004  0.00  0.00    +0.000 C 
ATOM      4  C   UNL     1      48.035 -48.319  48.852  0.00  0.00    +0.000 C 
ATOM      5  C   UNL     1      51.155 -46.160  46.536  0.00  0.00    +0.000 C 
ATOM      6  C   UNL     1      48.757 -46.957  46.781  0.00  0.00    +0.000 C 
ATOM      7  C   UNL     1      49.954 -46.639  45.947  0.00  0.00    +0.000 C 
ATOM      8  C   UNL     1      48.125 -48.352  50.473  0.00  0.00    +0.000 C 
ATOM      9  C   UNL     1      52.521 -46.188  45.867  0.00  0.00    +0.000 C 
ATOM     10  C   UNL     1      47.093 -48.922  51.367  0.00  0.00    +0.000 C 
ATOM     11  C   UNL     1      50.057 -46.747  50.218  0.00  0.00    +0.000 C 
ATOM     12  C   UNL     1      52.331 -46.047  48.571  0.00  0.00    +0.000 C 
ATOM     13  C   UNL     1      46.617 -48.617  48.577  0.00  0.00    +0.000 C 
ATOM     14  C   UNL     1      45.488 -48.956  50.982  0.00  0.00    +0.000 C 
ATOM     15  C   UNL     1      47.497 -45.717  48.543  0.00  0.00    +0.000 C 
ATOM     16  C   UNL     1      45.478 -48.933  49.520  0.00  0.00    +0.000 C 
ATOM     17  C   UNL     1      53.787 -46.200  46.762  0.00  0.00    +0.000 C 
ATOM     18  C   UNL     1      50.780 -44.211  48.035  0.00  0.00    +0.000 C 
ATOM     19  C   UNL     1      53.645 -46.278  48.177  0.00  0.00    +0.000 C 
ATOM     20  C   UNL     1      49.134 -47.678  50.950  0.00  0.00    +0.000 C 
ATOM     21  C   UNL     1      48.943 -49.526  48.360  0.00  0.00    +0.000 C 
ATOM     22  C   UNL     1      47.506 -49.932  52.339  0.00  0.00    +0.000 C 
ATOM     23  C   UNL     1      44.992 -50.207  51.615  0.00  0.00    +0.000 C 
ATOM     24  C   UNL     1      47.071 -51.165  53.100  0.00  0.00    +0.000 C 
ATOM     25  C   UNL     1      52.635 -47.505  45.023  0.00  0.00    +0.000 C 
ATOM     26  C   UNL     1      52.645 -44.974  44.902  0.00  0.00    +0.000 C 
ATOM     27  C   UNL     1      45.665 -51.212  52.585  0.00  0.00    +0.000 C 
ATOM     28  C   UNL     1      47.120 -50.935  54.621  0.00  0.00    +0.000 C 
ATOM     29  C   UNL     1      47.881 -52.400  52.666  0.00  0.00    +0.000 C 
ENDROOT
BRANCH  17  30
ATOM     30  O   UNL     1      55.085 -46.114  46.264  0.00  0.00    +0.000 OA
ATOM     31  H   UNL     1      55.361 -46.959  45.851  0.00  0.00    +0.000 HD
ENDBRANCH  17  30
BRANCH  19  32
ATOM     32  O   UNL     1      54.719 -46.104  48.996  0.00  0.00    +0.000 OA
ATOM     33  H   UNL     1      55.115 -45.220  48.873  0.00  0.00    +0.000 HD
ENDBRANCH  19  32
BRANCH  14  35
ATOM     34  O   UNL     1      45.343 -46.972  52.436  0.00  0.00    +0.000 OA
ATOM     35  C   UNL     1      44.833 -47.722  51.614  0.00  0.00    +0.000 C 
BRANCH  35  36
ATOM     36  O   UNL     1      43.547 -47.526  51.246  0.00  0.00    +0.000 OA
ATOM     37  H   UNL     1      43.129 -48.413  51.296  0.00  0.00    +0.000 HD
ENDBRANCH  35  36
ENDBRANCH  14  35
TORSDOF 4
ENDMDL
MODEL 8
REMARK VINA RESULT:      -7.2      2.673      3.995
REMARK  Name = 73659_MaslinicAcid.pdbqt.pdb
REMARK  4 active torsions:
REMARK  status: ('A' for Active; 'I' for Inactive)
REMARK    1  A    between atoms: C_14  and  C_35
REMARK    2  A    between atoms: C_17  and  O_30
REMARK    3  A    between atoms: C_19  and  O_32
REMARK    4  A    between atoms: C_35  and  O_36
REMARK                            x       y       z     vdW  Elec       q    Type
REMARK                         _______ _______ _______ _____ _____    ______ ____
ROOT
ATOM      1  C   UNL     1      47.957 -48.147  50.147  0.00  0.00    +0.000 C 
ATOM      2  C   UNL     1      49.448 -47.610  50.260  0.00  0.00    +0.000 C 
ATOM      3  C   UNL     1      50.029 -46.531  49.341  0.00  0.00    +0.000 C 
ATOM      4  C   UNL     1      47.861 -49.783  50.376  0.00  0.00    +0.000 C 
ATOM      5  C   UNL     1      49.508 -46.478  47.900  0.00  0.00    +0.000 C 
ATOM      6  C   UNL     1      47.515 -47.768  48.800  0.00  0.00    +0.000 C 
ATOM      7  C   UNL     1      48.196 -46.994  47.720  0.00  0.00    +0.000 C 
ATOM      8  C   UNL     1      48.667 -50.263  51.702  0.00  0.00    +0.000 C 
ATOM      9  C   UNL     1      50.432 -46.043  46.772  0.00  0.00    +0.000 C 
ATOM     10  C   UNL     1      48.171 -51.258  52.679  0.00  0.00    +0.000 C 
ATOM     11  C   UNL     1      50.198 -48.306  51.260  0.00  0.00    +0.000 C 
ATOM     12  C   UNL     1      51.461 -46.728  49.189  0.00  0.00    +0.000 C 
ATOM     13  C   UNL     1      46.487 -50.262  50.612  0.00  0.00    +0.000 C 
ATOM     14  C   UNL     1      46.567 -51.495  52.989  0.00  0.00    +0.000 C 
ATOM     15  C   UNL     1      47.112 -47.361  51.230  0.00  0.00    +0.000 C 
ATOM     16  C   UNL     1      45.906 -51.054  51.762  0.00  0.00    +0.000 C 
ATOM     17  C   UNL     1      51.962 -46.064  47.015  0.00  0.00    +0.000 C 
ATOM     18  C   UNL     1      49.743 -45.158  49.994  0.00  0.00    +0.000 C 
ATOM     19  C   UNL     1      52.470 -46.572  48.245  0.00  0.00    +0.000 C 
ATOM     20  C   UNL     1      49.747 -49.571  51.932  0.00  0.00    +0.000 C 
ATOM     21  C   UNL     1      48.514 -50.594  49.176  0.00  0.00    +0.000 C 
ATOM     22  C   UNL     1      49.025 -52.404  52.988  0.00  0.00    +0.000 C 
ATOM     23  C   UNL     1      46.470 -52.947  53.294  0.00  0.00    +0.000 C 
ATOM     24  C   UNL     1      49.038 -53.864  53.382  0.00  0.00    +0.000 C 
ATOM     25  C   UNL     1      50.224 -47.013  45.557  0.00  0.00    +0.000 C 
ATOM     26  C   UNL     1      50.051 -44.603  46.323  0.00  0.00    +0.000 C 
ATOM     27  C   UNL     1      47.554 -54.036  53.497  0.00  0.00    +0.000 C 
ATOM     28  C   UNL     1      49.748 -54.077  54.731  0.00  0.00    +0.000 C 
ATOM     29  C   UNL     1      49.631 -54.737  52.260  0.00  0.00    +0.000 C 
ENDROOT
BRANCH  17  30
ATOM     30  O   UNL     1      52.896 -45.585  46.099  0.00  0.00    +0.000 OA
ATOM     31  H   UNL     1      53.545 -44.993  46.533  0.00  0.00    +0.000 HD
ENDBRANCH  17  30
BRANCH  19  32
ATOM     32  O   UNL     1      53.787 -46.435  48.565  0.00  0.00    +0.000 OA
ATOM     33  H   UNL     1      54.072 -47.135  49.185  0.00  0.00    +0.000 HD
ENDBRANCH  19  32
BRANCH  14  35
ATOM     34  O   UNL     1      46.419 -49.454  54.362  0.00  0.00    +0.000 OA
ATOM     35  C   UNL     1      46.202 -50.649  54.215  0.00  0.00    +0.000 C 
BRANCH  35  36
ATOM     36  O   UNL     1      45.650 -51.352  55.230  0.00  0.00    +0.000 OA
ATOM     37  H   UNL     1      46.111 -52.219  55.220  0.00  0.00    +0.000 HD
ENDBRANCH  35  36
ENDBRANCH  14  35
TORSDOF 4
ENDMDL
MODEL 9
REMARK VINA RESULT:      -7.0     15.314     18.991
REMARK  Name = 73659_MaslinicAcid.pdbqt.pdb
REMARK  4 active torsions:
REMARK  status: ('A' for Active; 'I' for Inactive)
REMARK    1  A    between atoms: C_14  and  C_35
REMARK    2  A    between atoms: C_17  and  O_30
REMARK    3  A    between atoms: C_19  and  O_32
REMARK    4  A    between atoms: C_35  and  O_36
REMARK                            x       y       z     vdW  Elec       q    Type
REMARK                         _______ _______ _______ _____ _____    ______ ____
ROOT
ATOM      1  C   UNL     1      62.352 -46.880  60.869  0.00  0.00    +0.000 C 
ATOM      2  C   UNL     1      61.051 -47.300  60.061  0.00  0.00    +0.000 C 
ATOM      3  C   UNL     1      59.885 -48.075  60.682  0.00  0.00    +0.000 C 
ATOM      4  C   UNL     1      63.731 -47.052  59.969  0.00  0.00    +0.000 C 
ATOM      5  C   UNL     1      60.219 -49.079  61.792  0.00  0.00    +0.000 C 
ATOM      6  C   UNL     1      62.370 -47.754  62.047  0.00  0.00    +0.000 C 
ATOM      7  C   UNL     1      61.405 -48.790  62.521  0.00  0.00    +0.000 C 
ATOM      8  C   UNL     1      63.588 -46.380  58.497  0.00  0.00    +0.000 C 
ATOM      9  C   UNL     1      59.393 -50.347  61.946  0.00  0.00    +0.000 C 
ATOM     10  C   UNL     1      64.632 -45.570  57.832  0.00  0.00    +0.000 C 
ATOM     11  C   UNL     1      61.133 -46.939  58.679  0.00  0.00    +0.000 C 
ATOM     12  C   UNL     1      59.230 -48.883  59.666  0.00  0.00    +0.000 C 
ATOM     13  C   UNL     1      64.900 -46.367  60.551  0.00  0.00    +0.000 C 
ATOM     14  C   UNL     1      65.732 -44.660  58.662  0.00  0.00    +0.000 C 
ATOM     15  C   UNL     1      62.139 -45.378  61.319  0.00  0.00    +0.000 C 
ATOM     16  C   UNL     1      65.819 -45.320  59.964  0.00  0.00    +0.000 C 
ATOM     17  C   UNL     1      58.516 -50.811  60.756  0.00  0.00    +0.000 C 
ATOM     18  C   UNL     1      58.894 -47.041  61.266  0.00  0.00    +0.000 C 
ATOM     19  C   UNL     1      58.573 -50.100  59.523  0.00  0.00    +0.000 C 
ATOM     20  C   UNL     1      62.389 -46.480  57.996  0.00  0.00    +0.000 C 
ATOM     21  C   UNL     1      64.081 -48.578  59.698  0.00  0.00    +0.000 C 
ATOM     22  C   UNL     1      65.059 -45.965  56.491  0.00  0.00    +0.000 C 
ATOM     23  C   UNL     1      66.957 -44.720  57.821  0.00  0.00    +0.000 C 
ATOM     24  C   UNL     1      66.222 -45.997  55.524  0.00  0.00    +0.000 C 
ATOM     25  C   UNL     1      60.369 -51.549  62.195  0.00  0.00    +0.000 C 
ATOM     26  C   UNL     1      58.461 -50.206  63.184  0.00  0.00    +0.000 C 
ATOM     27  C   UNL     1      67.211 -45.292  56.402  0.00  0.00    +0.000 C 
ATOM     28  C   UNL     1      65.915 -45.197  54.246  0.00  0.00    +0.000 C 
ATOM     29  C   UNL     1      66.654 -47.444  55.223  0.00  0.00    +0.000 C 
ENDROOT
BRANCH  17  30
ATOM     30  O   UNL     1      57.637 -51.890  60.819  0.00  0.00    +0.000 OA
ATOM     31  H   UNL     1      57.821 -52.538  60.107  0.00  0.00    +0.000 HD
ENDBRANCH  17  30
BRANCH  19  32
ATOM     32  O   UNL     1      57.686 -50.364  58.524  0.00  0.00    +0.000 OA
ATOM     33  H   UNL     1      58.125 -50.809  57.773  0.00  0.00    +0.000 HD
ENDBRANCH  19  32
BRANCH  14  35
ATOM     34  O   UNL     1      65.015 -42.573  59.758  0.00  0.00    +0.000 OA
ATOM     35  C   UNL     1      65.186 -43.229  58.739  0.00  0.00    +0.000 C 
BRANCH  35  36
ATOM     36  O   UNL     1      64.811 -42.713  57.547  0.00  0.00    +0.000 OA
ATOM     37  H   UNL     1      63.848 -42.895  57.482  0.00  0.00    +0.000 HD
ENDBRANCH  35  36
ENDBRANCH  14  35
TORSDOF 4
ENDMDL
