MODEL 1
REMARK VINA RESULT:      -5.5      0.000      0.000
REMARK  Name = 76617_Cardol.pdbqt.pdb
REMARK  10 active torsions:
REMARK  status: ('A' for Active; 'I' for Inactive)
REMARK    1  A    between atoms: C_1  and  C_2
REMARK    2  A    between atoms: C_3  and  C_4
REMARK    3  A    between atoms: C_5  and  C_6
REMARK    4  A    between atoms: C_7  and  C_8
REMARK    5  A    between atoms: C_8  and  C_9
REMARK    6  A    between atoms: C_10  and  C_11
REMARK    7  A    between atoms: C_14  and  C_15
REMARK    8  A    between atoms: C_15  and  C_16
REMARK    9  A    between atoms: C_19  and  O_24
REMARK   10  A    between atoms: C_20  and  O_22
REMARK                            x       y       z     vdW  Elec       q    Type
REMARK                         _______ _______ _______ _____ _____    ______ ____
ROOT
ATOM      1  C   UNL     1      47.647 -43.189  51.547  0.00  0.00    +0.000 C 
ATOM      2  C   UNL     1      47.876 -42.066  51.193  0.00  0.00    +0.000 C 
ENDROOT
BRANCH   1   3
ATOM      3  C   UNL     1      47.353 -44.623  51.999  0.00  0.00    +0.000 C 
ATOM      4  C   UNL     1      47.061 -46.057  52.452  0.00  0.00    +0.000 C 
BRANCH   4   5
ATOM      5  C   UNL     1      46.767 -47.490  52.906  0.00  0.00    +0.000 C 
ATOM      6  C   UNL     1      46.473 -48.922  53.361  0.00  0.00    +0.000 C 
BRANCH   6   7
ATOM      7  C   UNL     1      46.178 -50.356  53.815  0.00  0.00    +0.000 C 
ATOM      8  C   UNL     1      45.884 -51.788  54.270  0.00  0.00    +0.000 C 
BRANCH   8   9
ATOM      9  C   UNL     1      45.590 -53.220  54.726  0.00  0.00    +0.000 C 
BRANCH   9  10
ATOM     10  C   UNL     1      45.297 -54.653  55.182  0.00  0.00    +0.000 C 
ATOM     11  C   UNL     1      45.002 -56.084  55.638  0.00  0.00    +0.000 C 
BRANCH  11  12
ATOM     12  C   UNL     1      44.707 -57.517  56.095  0.00  0.00    +0.000 C 
ATOM     13  C   UNL     1      44.414 -58.948  56.552  0.00  0.00    +0.000 C 
ATOM     14  C   UNL     1      44.119 -60.381  57.009  0.00  0.00    +0.000 C 
ENDBRANCH  11  12
ENDBRANCH   9  10
ENDBRANCH   8   9
ENDBRANCH   6   7
ENDBRANCH   4   5
ENDBRANCH   1   3
BRANCH   2  15
ATOM     15  C   UNL     1      48.171 -40.632  50.741  0.00  0.00    +0.000 C 
BRANCH  15  16
ATOM     16  C   UNL     1      48.445 -39.299  50.321  0.00  0.00    +0.000 A 
ATOM     17  C   UNL     1      47.655 -38.249  50.784  0.00  0.00    +0.000 A 
ATOM     18  C   UNL     1      49.503 -39.051  49.449  0.00  0.00    +0.000 A 
ATOM     19  C   UNL     1      49.764 -37.745  49.044  0.00  0.00    +0.000 A 
ATOM     20  C   UNL     1      47.932 -36.949  50.367  0.00  0.00    +0.000 A 
ATOM     21  C   UNL     1      48.984 -36.685  49.497  0.00  0.00    +0.000 A 
BRANCH  20  22
ATOM     22  O   UNL     1      47.172 -35.903  50.806  0.00  0.00    +0.000 OA
ATOM     23  H   UNL     1      46.513 -35.694  50.123  0.00  0.00    +0.000 HD
ENDBRANCH  20  22
BRANCH  19  24
ATOM     24  O   UNL     1      50.794 -37.474  48.189  0.00  0.00    +0.000 OA
ATOM     25  H   UNL     1      51.511 -38.109  48.364  0.00  0.00    +0.000 HD
ENDBRANCH  19  24
ENDBRANCH  15  16
ENDBRANCH   2  15
TORSDOF 10
ENDMDL
MODEL 2
REMARK VINA RESULT:      -5.3      5.962     17.251
REMARK  Name = 76617_Cardol.pdbqt.pdb
REMARK  10 active torsions:
REMARK  status: ('A' for Active; 'I' for Inactive)
REMARK    1  A    between atoms: C_1  and  C_2
REMARK    2  A    between atoms: C_3  and  C_4
REMARK    3  A    between atoms: C_5  and  C_6
REMARK    4  A    between atoms: C_7  and  C_8
REMARK    5  A    between atoms: C_8  and  C_9
REMARK    6  A    between atoms: C_10  and  C_11
REMARK    7  A    between atoms: C_14  and  C_15
REMARK    8  A    between atoms: C_15  and  C_16
REMARK    9  A    between atoms: C_19  and  O_24
REMARK   10  A    between atoms: C_20  and  O_22
REMARK                            x       y       z     vdW  Elec       q    Type
REMARK                         _______ _______ _______ _____ _____    ______ ____
ROOT
ATOM      1  C   UNL     1      48.422 -46.182  51.311  0.00  0.00    +0.000 C 
ATOM      2  C   UNL     1      48.283 -47.291  51.748  0.00  0.00    +0.000 C 
ENDROOT
BRANCH   1   3
ATOM      3  C   UNL     1      48.599 -44.767  50.753  0.00  0.00    +0.000 C 
ATOM      4  C   UNL     1      48.775 -43.351  50.194  0.00  0.00    +0.000 C 
BRANCH   4   5
ATOM      5  C   UNL     1      48.951 -41.935  49.638  0.00  0.00    +0.000 C 
ATOM      6  C   UNL     1      49.127 -40.520  49.081  0.00  0.00    +0.000 C 
BRANCH   6   7
ATOM      7  C   UNL     1      49.304 -39.103  48.524  0.00  0.00    +0.000 C 
ATOM      8  C   UNL     1      49.482 -37.688  47.968  0.00  0.00    +0.000 C 
BRANCH   8   9
ATOM      9  C   UNL     1      49.660 -36.272  47.412  0.00  0.00    +0.000 C 
BRANCH   9  10
ATOM     10  C   UNL     1      49.836 -34.856  46.856  0.00  0.00    +0.000 C 
ATOM     11  C   UNL     1      50.014 -33.440  46.301  0.00  0.00    +0.000 C 
BRANCH  11  12
ATOM     12  C   UNL     1      50.190 -32.023  45.746  0.00  0.00    +0.000 C 
ATOM     13  C   UNL     1      50.367 -30.607  45.191  0.00  0.00    +0.000 C 
ATOM     14  C   UNL     1      50.544 -29.190  44.635  0.00  0.00    +0.000 C 
ENDBRANCH  11  12
ENDBRANCH   9  10
ENDBRANCH   8   9
ENDBRANCH   6   7
ENDBRANCH   4   5
ENDBRANCH   1   3
BRANCH   2  15
ATOM     15  C   UNL     1      48.107 -48.707  52.307  0.00  0.00    +0.000 C 
BRANCH  15  16
ATOM     16  C   UNL     1      47.944 -50.023  52.826  0.00  0.00    +0.000 A 
ATOM     17  C   UNL     1      48.527 -51.105  52.169  0.00  0.00    +0.000 A 
ATOM     18  C   UNL     1      47.203 -50.222  53.989  0.00  0.00    +0.000 A 
ATOM     19  C   UNL     1      47.049 -51.513  54.489  0.00  0.00    +0.000 A 
ATOM     20  C   UNL     1      48.361 -52.388  52.686  0.00  0.00    +0.000 A 
ATOM     21  C   UNL     1      47.624 -52.604  53.845  0.00  0.00    +0.000 A 
BRANCH  20  22
ATOM     22  O   UNL     1      48.922 -53.465  52.061  0.00  0.00    +0.000 OA
ATOM     23  H   UNL     1      49.223 -54.092  52.741  0.00  0.00    +0.000 HD
ENDBRANCH  20  22
BRANCH  19  24
ATOM     24  O   UNL     1      46.327 -51.736  55.626  0.00  0.00    +0.000 OA
ATOM     25  H   UNL     1      45.776 -52.526  55.489  0.00  0.00    +0.000 HD
ENDBRANCH  19  24
ENDBRANCH  15  16
ENDBRANCH   2  15
TORSDOF 10
ENDMDL
MODEL 3
REMARK VINA RESULT:      -5.2      6.075     16.789
REMARK  Name = 76617_Cardol.pdbqt.pdb
REMARK  10 active torsions:
REMARK  status: ('A' for Active; 'I' for Inactive)
REMARK    1  A    between atoms: C_1  and  C_2
REMARK    2  A    between atoms: C_3  and  C_4
REMARK    3  A    between atoms: C_5  and  C_6
REMARK    4  A    between atoms: C_7  and  C_8
REMARK    5  A    between atoms: C_8  and  C_9
REMARK    6  A    between atoms: C_10  and  C_11
REMARK    7  A    between atoms: C_14  and  C_15
REMARK    8  A    between atoms: C_15  and  C_16
REMARK    9  A    between atoms: C_19  and  O_24
REMARK   10  A    between atoms: C_20  and  O_22
REMARK                            x       y       z     vdW  Elec       q    Type
REMARK                         _______ _______ _______ _____ _____    ______ ____
ROOT
ATOM      1  C   UNL     1      46.811 -48.174  52.996  0.00  0.00    +0.000 C 
ATOM      2  C   UNL     1      46.556 -49.239  53.485  0.00  0.00    +0.000 C 
ENDROOT
BRANCH   1   3
ATOM      3  C   UNL     1      47.137 -46.814  52.371  0.00  0.00    +0.000 C 
ATOM      4  C   UNL     1      47.464 -45.453  51.747  0.00  0.00    +0.000 C 
BRANCH   4   5
ATOM      5  C   UNL     1      47.791 -44.094  51.123  0.00  0.00    +0.000 C 
ATOM      6  C   UNL     1      48.120 -42.735  50.498  0.00  0.00    +0.000 C 
BRANCH   6   7
ATOM      7  C   UNL     1      48.449 -41.376  49.872  0.00  0.00    +0.000 C 
ATOM      8  C   UNL     1      48.778 -40.017  49.248  0.00  0.00    +0.000 C 
BRANCH   8   9
ATOM      9  C   UNL     1      49.108 -38.658  48.623  0.00  0.00    +0.000 C 
BRANCH   9  10
ATOM     10  C   UNL     1      49.436 -37.299  47.997  0.00  0.00    +0.000 C 
ATOM     11  C   UNL     1      49.766 -35.941  47.371  0.00  0.00    +0.000 C 
BRANCH  11  12
ATOM     12  C   UNL     1      50.095 -34.582  46.746  0.00  0.00    +0.000 C 
ATOM     13  C   UNL     1      50.425 -33.223  46.121  0.00  0.00    +0.000 C 
ATOM     14  C   UNL     1      50.754 -31.864  45.496  0.00  0.00    +0.000 C 
ENDBRANCH  11  12
ENDBRANCH   9  10
ENDBRANCH   8   9
ENDBRANCH   6   7
ENDBRANCH   4   5
ENDBRANCH   1   3
BRANCH   2  15
ATOM     15  C   UNL     1      46.229 -50.600  54.110  0.00  0.00    +0.000 C 
BRANCH  15  16
ATOM     16  C   UNL     1      45.925 -51.864  54.691  0.00  0.00    +0.000 A 
ATOM     17  C   UNL     1      44.705 -52.480  54.415  0.00  0.00    +0.000 A 
ATOM     18  C   UNL     1      46.848 -52.480  55.534  0.00  0.00    +0.000 A 
ATOM     19  C   UNL     1      46.541 -53.716  56.098  0.00  0.00    +0.000 A 
ATOM     20  C   UNL     1      44.418 -53.716  54.988  0.00  0.00    +0.000 A 
ATOM     21  C   UNL     1      45.328 -54.343  55.831  0.00  0.00    +0.000 A 
BRANCH  20  22
ATOM     22  O   UNL     1      43.231 -54.339  54.732  0.00  0.00    +0.000 OA
ATOM     23  H   UNL     1      42.778 -53.858  54.017  0.00  0.00    +0.000 HD
ENDBRANCH  20  22
BRANCH  19  24
ATOM     24  O   UNL     1      47.428 -54.340  56.927  0.00  0.00    +0.000 OA
ATOM     25  H   UNL     1      47.265 -54.033  57.836  0.00  0.00    +0.000 HD
ENDBRANCH  19  24
ENDBRANCH  15  16
ENDBRANCH   2  15
TORSDOF 10
ENDMDL
MODEL 4
REMARK VINA RESULT:      -5.1      3.927      7.065
REMARK  Name = 76617_Cardol.pdbqt.pdb
REMARK  10 active torsions:
REMARK  status: ('A' for Active; 'I' for Inactive)
REMARK    1  A    between atoms: C_1  and  C_2
REMARK    2  A    between atoms: C_3  and  C_4
REMARK    3  A    between atoms: C_5  and  C_6
REMARK    4  A    between atoms: C_7  and  C_8
REMARK    5  A    between atoms: C_8  and  C_9
REMARK    6  A    between atoms: C_10  and  C_11
REMARK    7  A    between atoms: C_14  and  C_15
REMARK    8  A    between atoms: C_15  and  C_16
REMARK    9  A    between atoms: C_19  and  O_24
REMARK   10  A    between atoms: C_20  and  O_22
REMARK                            x       y       z     vdW  Elec       q    Type
REMARK                         _______ _______ _______ _____ _____    ______ ____
ROOT
ATOM      1  C   UNL     1      49.490 -37.415  47.982  0.00  0.00    +0.000 C 
ATOM      2  C   UNL     1      49.760 -36.349  47.501  0.00  0.00    +0.000 C 
ENDROOT
BRANCH   1   3
ATOM      3  C   UNL     1      49.146 -38.775  48.597  0.00  0.00    +0.000 C 
ATOM      4  C   UNL     1      48.801 -40.135  49.213  0.00  0.00    +0.000 C 
BRANCH   4   5
ATOM      5  C   UNL     1      48.455 -41.494  49.828  0.00  0.00    +0.000 C 
ATOM      6  C   UNL     1      48.110 -42.853  50.444  0.00  0.00    +0.000 C 
BRANCH   6   7
ATOM      7  C   UNL     1      47.765 -44.213  51.060  0.00  0.00    +0.000 C 
ATOM      8  C   UNL     1      47.419 -45.571  51.675  0.00  0.00    +0.000 C 
BRANCH   8   9
ATOM      9  C   UNL     1      47.073 -46.930  52.291  0.00  0.00    +0.000 C 
BRANCH   9  10
ATOM     10  C   UNL     1      46.727 -48.289  52.908  0.00  0.00    +0.000 C 
ATOM     11  C   UNL     1      46.383 -49.647  53.526  0.00  0.00    +0.000 C 
BRANCH  11  12
ATOM     12  C   UNL     1      46.038 -51.006  54.143  0.00  0.00    +0.000 C 
ATOM     13  C   UNL     1      45.693 -52.364  54.760  0.00  0.00    +0.000 C 
ATOM     14  C   UNL     1      45.348 -53.724  55.378  0.00  0.00    +0.000 C 
ENDBRANCH  11  12
ENDBRANCH   9  10
ENDBRANCH   8   9
ENDBRANCH   6   7
ENDBRANCH   4   5
ENDBRANCH   1   3
BRANCH   2  15
ATOM     15  C   UNL     1      50.104 -34.989  46.886  0.00  0.00    +0.000 C 
BRANCH  15  16
ATOM     16  C   UNL     1      50.424 -33.724  46.314  0.00  0.00    +0.000 A 
ATOM     17  C   UNL     1      49.409 -32.811  46.037  0.00  0.00    +0.000 A 
ATOM     18  C   UNL     1      51.752 -33.406  46.035  0.00  0.00    +0.000 A 
ATOM     19  C   UNL     1      52.055 -32.167  45.477  0.00  0.00    +0.000 A 
ATOM     20  C   UNL     1      49.733 -31.577  45.479  0.00  0.00    +0.000 A 
ATOM     21  C   UNL     1      51.053 -31.244  45.194  0.00  0.00    +0.000 A 
BRANCH  20  22
ATOM     22  O   UNL     1      48.757 -30.665  45.199  0.00  0.00    +0.000 OA
ATOM     23  H   UNL     1      49.081 -30.072  44.498  0.00  0.00    +0.000 HD
ENDBRANCH  20  22
BRANCH  19  24
ATOM     24  O   UNL     1      53.348 -31.830  45.193  0.00  0.00    +0.000 OA
ATOM     25  H   UNL     1      53.360 -30.915  44.861  0.00  0.00    +0.000 HD
ENDBRANCH  19  24
ENDBRANCH  15  16
ENDBRANCH   2  15
TORSDOF 10
ENDMDL
MODEL 5
REMARK VINA RESULT:      -4.6      1.571      2.402
REMARK  Name = 76617_Cardol.pdbqt.pdb
REMARK  10 active torsions:
REMARK  status: ('A' for Active; 'I' for Inactive)
REMARK    1  A    between atoms: C_1  and  C_2
REMARK    2  A    between atoms: C_3  and  C_4
REMARK    3  A    between atoms: C_5  and  C_6
REMARK    4  A    between atoms: C_7  and  C_8
REMARK    5  A    between atoms: C_8  and  C_9
REMARK    6  A    between atoms: C_10  and  C_11
REMARK    7  A    between atoms: C_14  and  C_15
REMARK    8  A    between atoms: C_15  and  C_16
REMARK    9  A    between atoms: C_19  and  O_24
REMARK   10  A    between atoms: C_20  and  O_22
REMARK                            x       y       z     vdW  Elec       q    Type
REMARK                         _______ _______ _______ _____ _____    ______ ____
ROOT
ATOM      1  C   UNL     1      48.175 -44.201  50.680  0.00  0.00    +0.000 C 
ATOM      2  C   UNL     1      48.479 -43.169  50.149  0.00  0.00    +0.000 C 
ENDROOT
BRANCH   1   3
ATOM      3  C   UNL     1      47.788 -45.519  51.357  0.00  0.00    +0.000 C 
ATOM      4  C   UNL     1      47.400 -46.837  52.035  0.00  0.00    +0.000 C 
BRANCH   4   5
ATOM      5  C   UNL     1      47.011 -48.154  52.712  0.00  0.00    +0.000 C 
ATOM      6  C   UNL     1      46.623 -49.472  53.388  0.00  0.00    +0.000 C 
BRANCH   6   7
ATOM      7  C   UNL     1      46.235 -50.790  54.065  0.00  0.00    +0.000 C 
ATOM      8  C   UNL     1      45.846 -52.108  54.742  0.00  0.00    +0.000 C 
BRANCH   8   9
ATOM      9  C   UNL     1      45.457 -53.426  55.418  0.00  0.00    +0.000 C 
BRANCH   9  10
ATOM     10  C   UNL     1      45.067 -54.743  56.095  0.00  0.00    +0.000 C 
ATOM     11  C   UNL     1      44.676 -56.061  56.770  0.00  0.00    +0.000 C 
BRANCH  11  12
ATOM     12  C   UNL     1      44.285 -57.379  57.447  0.00  0.00    +0.000 C 
ATOM     13  C   UNL     1      43.893 -58.696  58.122  0.00  0.00    +0.000 C 
ATOM     14  C   UNL     1      43.502 -60.014  58.798  0.00  0.00    +0.000 C 
ENDBRANCH  11  12
ENDBRANCH   9  10
ENDBRANCH   8   9
ENDBRANCH   6   7
ENDBRANCH   4   5
ENDBRANCH   1   3
BRANCH   2  15
ATOM     15  C   UNL     1      48.866 -41.849  49.472  0.00  0.00    +0.000 C 
BRANCH  15  16
ATOM     16  C   UNL     1      49.225 -40.623  48.843  0.00  0.00    +0.000 A 
ATOM     17  C   UNL     1      49.712 -40.629  47.537  0.00  0.00    +0.000 A 
ATOM     18  C   UNL     1      49.088 -39.422  49.537  0.00  0.00    +0.000 A 
ATOM     19  C   UNL     1      49.441 -38.228  48.914  0.00  0.00    +0.000 A 
ATOM     20  C   UNL     1      50.059 -39.423  46.932  0.00  0.00    +0.000 A 
ATOM     21  C   UNL     1      49.929 -38.217  47.611  0.00  0.00    +0.000 A 
BRANCH  20  22
ATOM     22  O   UNL     1      50.538 -39.403  45.654  0.00  0.00    +0.000 OA
ATOM     23  H   UNL     1      51.320 -39.979  45.609  0.00  0.00    +0.000 HD
ENDBRANCH  20  22
BRANCH  19  24
ATOM     24  O   UNL     1      49.317 -37.038  49.571  0.00  0.00    +0.000 OA
ATOM     25  H   UNL     1      50.143 -36.537  49.456  0.00  0.00    +0.000 HD
ENDBRANCH  19  24
ENDBRANCH  15  16
ENDBRANCH   2  15
TORSDOF 10
ENDMDL
MODEL 6
REMARK VINA RESULT:      -4.6      3.245      5.314
REMARK  Name = 76617_Cardol.pdbqt.pdb
REMARK  10 active torsions:
REMARK  status: ('A' for Active; 'I' for Inactive)
REMARK    1  A    between atoms: C_1  and  C_2
REMARK    2  A    between atoms: C_3  and  C_4
REMARK    3  A    between atoms: C_5  and  C_6
REMARK    4  A    between atoms: C_7  and  C_8
REMARK    5  A    between atoms: C_8  and  C_9
REMARK    6  A    between atoms: C_10  and  C_11
REMARK    7  A    between atoms: C_14  and  C_15
REMARK    8  A    between atoms: C_15  and  C_16
REMARK    9  A    between atoms: C_19  and  O_24
REMARK   10  A    between atoms: C_20  and  O_22
REMARK                            x       y       z     vdW  Elec       q    Type
REMARK                         _______ _______ _______ _____ _____    ______ ____
ROOT
ATOM      1  C   UNL     1      48.544 -40.187  47.811  0.00  0.00    +0.000 C 
ATOM      2  C   UNL     1      48.732 -39.176  47.193  0.00  0.00    +0.000 C 
ENDROOT
BRANCH   1   3
ATOM      3  C   UNL     1      48.303 -41.476  48.601  0.00  0.00    +0.000 C 
ATOM      4  C   UNL     1      48.061 -42.767  49.391  0.00  0.00    +0.000 C 
BRANCH   4   5
ATOM      5  C   UNL     1      47.820 -44.057  50.179  0.00  0.00    +0.000 C 
ATOM      6  C   UNL     1      47.580 -45.347  50.968  0.00  0.00    +0.000 C 
BRANCH   6   7
ATOM      7  C   UNL     1      47.339 -46.638  51.758  0.00  0.00    +0.000 C 
ATOM      8  C   UNL     1      47.100 -47.929  52.547  0.00  0.00    +0.000 C 
BRANCH   8   9
ATOM      9  C   UNL     1      46.860 -49.219  53.335  0.00  0.00    +0.000 C 
BRANCH   9  10
ATOM     10  C   UNL     1      46.621 -50.511  54.124  0.00  0.00    +0.000 C 
ATOM     11  C   UNL     1      46.383 -51.803  54.910  0.00  0.00    +0.000 C 
BRANCH  11  12
ATOM     12  C   UNL     1      46.144 -53.095  55.698  0.00  0.00    +0.000 C 
ATOM     13  C   UNL     1      45.904 -54.386  56.486  0.00  0.00    +0.000 C 
ATOM     14  C   UNL     1      45.664 -55.678  57.274  0.00  0.00    +0.000 C 
ENDBRANCH  11  12
ENDBRANCH   9  10
ENDBRANCH   8   9
ENDBRANCH   6   7
ENDBRANCH   4   5
ENDBRANCH   1   3
BRANCH   2  15
ATOM     15  C   UNL     1      48.974 -37.886  46.402  0.00  0.00    +0.000 C 
BRANCH  15  16
ATOM     16  C   UNL     1      49.198 -36.687  45.667  0.00  0.00    +0.000 A 
ATOM     17  C   UNL     1      49.941 -36.723  44.488  0.00  0.00    +0.000 A 
ATOM     18  C   UNL     1      48.673 -35.482  46.130  0.00  0.00    +0.000 A 
ATOM     19  C   UNL     1      48.897 -34.314  45.405  0.00  0.00    +0.000 A 
ATOM     20  C   UNL     1      50.154 -35.544  43.778  0.00  0.00    +0.000 A 
ATOM     21  C   UNL     1      49.637 -34.334  44.226  0.00  0.00    +0.000 A 
BRANCH  20  22
ATOM     22  O   UNL     1      50.878 -35.554  42.620  0.00  0.00    +0.000 OA
ATOM     23  H   UNL     1      51.746 -35.151  42.797  0.00  0.00    +0.000 HD
ENDBRANCH  20  22
BRANCH  19  24
ATOM     24  O   UNL     1      48.394 -33.120  45.837  0.00  0.00    +0.000 OA
ATOM     25  H   UNL     1      49.122 -32.604  46.224  0.00  0.00    +0.000 HD
ENDBRANCH  19  24
ENDBRANCH  15  16
ENDBRANCH   2  15
TORSDOF 10
ENDMDL
MODEL 7
REMARK VINA RESULT:      -4.5      7.419     19.800
REMARK  Name = 76617_Cardol.pdbqt.pdb
REMARK  10 active torsions:
REMARK  status: ('A' for Active; 'I' for Inactive)
REMARK    1  A    between atoms: C_1  and  C_2
REMARK    2  A    between atoms: C_3  and  C_4
REMARK    3  A    between atoms: C_5  and  C_6
REMARK    4  A    between atoms: C_7  and  C_8
REMARK    5  A    between atoms: C_8  and  C_9
REMARK    6  A    between atoms: C_10  and  C_11
REMARK    7  A    between atoms: C_14  and  C_15
REMARK    8  A    between atoms: C_15  and  C_16
REMARK    9  A    between atoms: C_19  and  O_24
REMARK   10  A    between atoms: C_20  and  O_22
REMARK                            x       y       z     vdW  Elec       q    Type
REMARK                         _______ _______ _______ _____ _____    ______ ____
ROOT
ATOM      1  C   UNL     1      49.264 -39.582  48.869  0.00  0.00    +0.000 C 
ATOM      2  C   UNL     1      49.125 -40.684  49.322  0.00  0.00    +0.000 C 
ENDROOT
BRANCH   1   3
ATOM      3  C   UNL     1      49.442 -38.175  48.291  0.00  0.00    +0.000 C 
ATOM      4  C   UNL     1      49.619 -36.767  47.711  0.00  0.00    +0.000 C 
BRANCH   4   5
ATOM      5  C   UNL     1      49.794 -35.360  47.132  0.00  0.00    +0.000 C 
ATOM      6  C   UNL     1      49.969 -33.953  46.554  0.00  0.00    +0.000 C 
BRANCH   6   7
ATOM      7  C   UNL     1      50.144 -32.545  45.976  0.00  0.00    +0.000 C 
ATOM      8  C   UNL     1      50.320 -31.138  45.398  0.00  0.00    +0.000 C 
BRANCH   8   9
ATOM      9  C   UNL     1      50.496 -29.731  44.820  0.00  0.00    +0.000 C 
BRANCH   9  10
ATOM     10  C   UNL     1      50.672 -28.323  44.243  0.00  0.00    +0.000 C 
ATOM     11  C   UNL     1      50.849 -26.915  43.667  0.00  0.00    +0.000 C 
BRANCH  11  12
ATOM     12  C   UNL     1      51.025 -25.506  43.091  0.00  0.00    +0.000 C 
ATOM     13  C   UNL     1      51.201 -24.099  42.515  0.00  0.00    +0.000 C 
ATOM     14  C   UNL     1      51.377 -22.690  41.939  0.00  0.00    +0.000 C 
ENDBRANCH  11  12
ENDBRANCH   9  10
ENDBRANCH   8   9
ENDBRANCH   6   7
ENDBRANCH   4   5
ENDBRANCH   1   3
BRANCH   2  15
ATOM     15  C   UNL     1      48.948 -42.092  49.900  0.00  0.00    +0.000 C 
BRANCH  15  16
ATOM     16  C   UNL     1      48.784 -43.400  50.439  0.00  0.00    +0.000 A 
ATOM     17  C   UNL     1      48.197 -43.566  51.692  0.00  0.00    +0.000 A 
ATOM     18  C   UNL     1      49.210 -44.508  49.710  0.00  0.00    +0.000 A 
ATOM     19  C   UNL     1      49.045 -45.783  50.244  0.00  0.00    +0.000 A 
ATOM     20  C   UNL     1      48.040 -44.850  52.209  0.00  0.00    +0.000 A 
ATOM     21  C   UNL     1      48.461 -45.966  51.494  0.00  0.00    +0.000 A 
BRANCH  20  22
ATOM     22  O   UNL     1      47.468 -45.039  53.434  0.00  0.00    +0.000 OA
ATOM     23  H   UNL     1      47.406 -44.177  53.881  0.00  0.00    +0.000 HD
ENDBRANCH  20  22
BRANCH  19  24
ATOM     24  O   UNL     1      49.455 -46.886  49.551  0.00  0.00    +0.000 OA
ATOM     25  H   UNL     1      48.866 -47.627  49.778  0.00  0.00    +0.000 HD
ENDBRANCH  19  24
ENDBRANCH  15  16
ENDBRANCH   2  15
TORSDOF 10
ENDMDL
MODEL 8
REMARK VINA RESULT:      -4.4      6.756     19.066
REMARK  Name = 76617_Cardol.pdbqt.pdb
REMARK  10 active torsions:
REMARK  status: ('A' for Active; 'I' for Inactive)
REMARK    1  A    between atoms: C_1  and  C_2
REMARK    2  A    between atoms: C_3  and  C_4
REMARK    3  A    between atoms: C_5  and  C_6
REMARK    4  A    between atoms: C_7  and  C_8
REMARK    5  A    between atoms: C_8  and  C_9
REMARK    6  A    between atoms: C_10  and  C_11
REMARK    7  A    between atoms: C_14  and  C_15
REMARK    8  A    between atoms: C_15  and  C_16
REMARK    9  A    between atoms: C_19  and  O_24
REMARK   10  A    between atoms: C_20  and  O_22
REMARK                            x       y       z     vdW  Elec       q    Type
REMARK                         _______ _______ _______ _____ _____    ______ ____
ROOT
ATOM      1  C   UNL     1      48.725 -41.048  49.449  0.00  0.00    +0.000 C 
ATOM      2  C   UNL     1      48.503 -42.142  49.889  0.00  0.00    +0.000 C 
ENDROOT
BRANCH   1   3
ATOM      3  C   UNL     1      49.006 -39.651  48.888  0.00  0.00    +0.000 C 
ATOM      4  C   UNL     1      49.286 -38.253  48.327  0.00  0.00    +0.000 C 
BRANCH   4   5
ATOM      5  C   UNL     1      49.567 -36.855  47.767  0.00  0.00    +0.000 C 
ATOM      6  C   UNL     1      49.847 -35.458  47.209  0.00  0.00    +0.000 C 
BRANCH   6   7
ATOM      7  C   UNL     1      50.127 -34.059  46.650  0.00  0.00    +0.000 C 
ATOM      8  C   UNL     1      50.406 -32.660  46.091  0.00  0.00    +0.000 C 
BRANCH   8   9
ATOM      9  C   UNL     1      50.685 -31.262  45.533  0.00  0.00    +0.000 C 
BRANCH   9  10
ATOM     10  C   UNL     1      50.965 -29.863  44.975  0.00  0.00    +0.000 C 
ATOM     11  C   UNL     1      51.246 -28.464  44.419  0.00  0.00    +0.000 C 
BRANCH  11  12
ATOM     12  C   UNL     1      51.526 -27.065  43.862  0.00  0.00    +0.000 C 
ATOM     13  C   UNL     1      51.805 -25.666  43.306  0.00  0.00    +0.000 C 
ATOM     14  C   UNL     1      52.086 -24.266  42.749  0.00  0.00    +0.000 C 
ENDBRANCH  11  12
ENDBRANCH   9  10
ENDBRANCH   8   9
ENDBRANCH   6   7
ENDBRANCH   4   5
ENDBRANCH   1   3
BRANCH   2  15
ATOM     15  C   UNL     1      48.223 -43.540  50.450  0.00  0.00    +0.000 C 
BRANCH  15  16
ATOM     16  C   UNL     1      47.961 -44.840  50.971  0.00  0.00    +0.000 A 
ATOM     17  C   UNL     1      48.582 -45.952  50.406  0.00  0.00    +0.000 A 
ATOM     18  C   UNL     1      47.085 -44.992  52.044  0.00  0.00    +0.000 A 
ATOM     19  C   UNL     1      46.836 -46.267  52.547  0.00  0.00    +0.000 A 
ATOM     20  C   UNL     1      48.320 -47.218  50.924  0.00  0.00    +0.000 A 
ATOM     21  C   UNL     1      47.448 -47.388  51.994  0.00  0.00    +0.000 A 
BRANCH  20  22
ATOM     22  O   UNL     1      48.916 -48.323  50.388  0.00  0.00    +0.000 OA
ATOM     23  H   UNL     1      48.241 -49.015  50.281  0.00  0.00    +0.000 HD
ENDBRANCH  20  22
BRANCH  19  24
ATOM     24  O   UNL     1      45.981 -46.445  53.597  0.00  0.00    +0.000 OA
ATOM     25  H   UNL     1      45.069 -46.373  53.265  0.00  0.00    +0.000 HD
ENDBRANCH  19  24
ENDBRANCH  15  16
ENDBRANCH   2  15
TORSDOF 10
ENDMDL
MODEL 9
REMARK VINA RESULT:      -4.4      6.396     10.914
REMARK  Name = 76617_Cardol.pdbqt.pdb
REMARK  10 active torsions:
REMARK  status: ('A' for Active; 'I' for Inactive)
REMARK    1  A    between atoms: C_1  and  C_2
REMARK    2  A    between atoms: C_3  and  C_4
REMARK    3  A    between atoms: C_5  and  C_6
REMARK    4  A    between atoms: C_7  and  C_8
REMARK    5  A    between atoms: C_8  and  C_9
REMARK    6  A    between atoms: C_10  and  C_11
REMARK    7  A    between atoms: C_14  and  C_15
REMARK    8  A    between atoms: C_15  and  C_16
REMARK    9  A    between atoms: C_19  and  O_24
REMARK   10  A    between atoms: C_20  and  O_22
REMARK                            x       y       z     vdW  Elec       q    Type
REMARK                         _______ _______ _______ _____ _____    ______ ____
ROOT
ATOM      1  C   UNL     1      49.983 -33.877  46.676  0.00  0.00    +0.000 C 
ATOM      2  C   UNL     1      50.067 -32.735  46.317  0.00  0.00    +0.000 C 
ENDROOT
BRANCH   1   3
ATOM      3  C   UNL     1      49.875 -35.334  47.135  0.00  0.00    +0.000 C 
ATOM      4  C   UNL     1      49.769 -36.792  47.595  0.00  0.00    +0.000 C 
BRANCH   4   5
ATOM      5  C   UNL     1      49.662 -38.248  48.056  0.00  0.00    +0.000 C 
ATOM      6  C   UNL     1      49.554 -39.704  48.517  0.00  0.00    +0.000 C 
BRANCH   6   7
ATOM      7  C   UNL     1      49.447 -41.162  48.977  0.00  0.00    +0.000 C 
ATOM      8  C   UNL     1      49.340 -42.618  49.437  0.00  0.00    +0.000 C 
BRANCH   8   9
ATOM      9  C   UNL     1      49.232 -44.075  49.898  0.00  0.00    +0.000 C 
BRANCH   9  10
ATOM     10  C   UNL     1      49.127 -45.532  50.358  0.00  0.00    +0.000 C 
ATOM     11  C   UNL     1      49.022 -46.988  50.820  0.00  0.00    +0.000 C 
BRANCH  11  12
ATOM     12  C   UNL     1      48.917 -48.446  51.281  0.00  0.00    +0.000 C 
ATOM     13  C   UNL     1      48.813 -49.902  51.741  0.00  0.00    +0.000 C 
ATOM     14  C   UNL     1      48.709 -51.360  52.202  0.00  0.00    +0.000 C 
ENDBRANCH  11  12
ENDBRANCH   9  10
ENDBRANCH   8   9
ENDBRANCH   6   7
ENDBRANCH   4   5
ENDBRANCH   1   3
BRANCH   2  15
ATOM     15  C   UNL     1      50.176 -31.278  45.856  0.00  0.00    +0.000 C 
BRANCH  15  16
ATOM     16  C   UNL     1      50.277 -29.923  45.428  0.00  0.00    +0.000 A 
ATOM     17  C   UNL     1      50.936 -28.990  46.226  0.00  0.00    +0.000 A 
ATOM     18  C   UNL     1      49.717 -29.537  44.211  0.00  0.00    +0.000 A 
ATOM     19  C   UNL     1      49.821 -28.211  43.801  0.00  0.00    +0.000 A 
ATOM     20  C   UNL     1      51.030 -27.668  45.797  0.00  0.00    +0.000 A 
ATOM     21  C   UNL     1      50.476 -27.267  44.586  0.00  0.00    +0.000 A 
BRANCH  20  22
ATOM     22  O   UNL     1      51.671 -26.736  46.560  0.00  0.00    +0.000 OA
ATOM     23  H   UNL     1      51.046 -26.017  46.756  0.00  0.00    +0.000 HD
ENDBRANCH  20  22
BRANCH  19  24
ATOM     24  O   UNL     1      49.280 -27.806  42.614  0.00  0.00    +0.000 OA
ATOM     25  H   UNL     1      48.317 -27.935  42.657  0.00  0.00    +0.000 HD
ENDBRANCH  19  24
ENDBRANCH  15  16
ENDBRANCH   2  15
TORSDOF 10
ENDMDL
