MODEL 1
REMARK VINA RESULT:      -6.5      0.000      0.000
REMARK  Name = 85668777_Hyaluronidase.pdbqt.pdb
REMARK  5 active torsions:
REMARK  status: ('A' for Active; 'I' for Inactive)
REMARK    1  A    between atoms: N_1  and  C_13
REMARK    2  A    between atoms: C_14  and  C_15
REMARK    3  A    between atoms: C_15  and  C_16
REMARK    4  A    between atoms: C_17  and  C_19
REMARK    5  A    between atoms: C_19  and  O_20
REMARK                            x       y       z     vdW  Elec       q    Type
REMARK                         _______ _______ _______ _____ _____    ______ ____
ROOT
ATOM      1  N   UNL     1      48.551 -45.361  50.931  0.00  0.00    +0.000 N 
ATOM      2  C   UNL     1      49.323 -47.616  50.514  0.00  0.00    +0.000 C 
ATOM      3  C   UNL     1      48.112 -47.575  51.446  0.00  0.00    +0.000 A 
ATOM      4  C   UNL     1      49.525 -46.076  50.233  0.00  0.00    +0.000 C 
ATOM      5  C   UNL     1      47.717 -46.237  51.646  0.00  0.00    +0.000 A 
ATOM      6  C   UNL     1      50.533 -48.247  51.273  0.00  0.00    +0.000 C 
ATOM      7  C   UNL     1      48.946 -48.410  49.222  0.00  0.00    +0.000 C 
ATOM      8  C   UNL     1      47.433 -48.620  52.056  0.00  0.00    +0.000 A 
ATOM      9  C   UNL     1      46.638 -45.928  52.456  0.00  0.00    +0.000 A 
ATOM     10  C   UNL     1      50.445 -45.449  49.472  0.00  0.00    +0.000 C 
ATOM     11  C   UNL     1      46.346 -48.307  52.872  0.00  0.00    +0.000 A 
ATOM     12  C   UNL     1      45.953 -46.977  53.069  0.00  0.00    +0.000 A 
ENDROOT
BRANCH   1  13
ATOM     13  C   UNL     1      48.394 -43.926  50.937  0.00  0.00    +0.000 C 
ATOM     14  C   UNL     1      48.232 -42.403  50.941  0.00  0.00    +0.000 C 
BRANCH  14  15
ATOM     15  C   UNL     1      48.071 -40.880  50.944  0.00  0.00    +0.000 C 
BRANCH  15  16
ATOM     16  C   UNL     1      47.910 -39.357  50.947  0.00  0.00    +0.000 C 
ATOM     17  C   UNL     1      47.749 -37.834  50.950  0.00  0.00    +0.000 C 
BRANCH  17  19
ATOM     18  O   UNL     1      48.480 -35.644  51.309  0.00  0.00    +0.000 OA
ATOM     19  C   UNL     1      47.600 -36.410  50.955  0.00  0.00    +0.000 C 
BRANCH  19  20
ATOM     20  O   UNL     1      46.397 -35.984  50.533  0.00  0.00    +0.000 OA
ATOM     21  H   UNL     1      46.571 -35.661  49.626  0.00  0.00    +0.000 HD
ENDBRANCH  19  20
ENDBRANCH  17  19
ENDBRANCH  15  16
ENDBRANCH  14  15
ENDBRANCH   1  13
TORSDOF 5
ENDMDL
MODEL 2
REMARK VINA RESULT:      -5.5      4.679      6.985
REMARK  Name = 85668777_Hyaluronidase.pdbqt.pdb
REMARK  5 active torsions:
REMARK  status: ('A' for Active; 'I' for Inactive)
REMARK    1  A    between atoms: N_1  and  C_13
REMARK    2  A    between atoms: C_14  and  C_15
REMARK    3  A    between atoms: C_15  and  C_16
REMARK    4  A    between atoms: C_17  and  C_19
REMARK    5  A    between atoms: C_19  and  O_20
REMARK                            x       y       z     vdW  Elec       q    Type
REMARK                         _______ _______ _______ _____ _____    ______ ____
ROOT
ATOM      1  N   UNL     1      45.445 -51.115  53.013  0.00  0.00    +0.000 N 
ATOM      2  C   UNL     1      44.391 -53.290  52.879  0.00  0.00    +0.000 C 
ATOM      3  C   UNL     1      45.428 -53.210  53.999  0.00  0.00    +0.000 A 
ATOM      4  C   UNL     1      44.488 -51.829  52.290  0.00  0.00    +0.000 C 
ATOM      5  C   UNL     1      46.001 -51.922  54.020  0.00  0.00    +0.000 A 
ATOM      6  C   UNL     1      44.830 -54.378  51.850  0.00  0.00    +0.000 C 
ATOM      7  C   UNL     1      42.988 -53.586  53.503  0.00  0.00    +0.000 C 
ATOM      8  C   UNL     1      45.824 -54.183  54.906  0.00  0.00    +0.000 A 
ATOM      9  C   UNL     1      46.974 -51.592  54.946  0.00  0.00    +0.000 A 
ATOM     10  C   UNL     1      43.814 -51.263  51.268  0.00  0.00    +0.000 C 
ATOM     11  C   UNL     1      46.805 -53.849  55.839  0.00  0.00    +0.000 A 
ATOM     12  C   UNL     1      47.373 -52.568  55.859  0.00  0.00    +0.000 A 
ENDROOT
BRANCH   1  13
ATOM     13  C   UNL     1      45.829 -49.743  52.786  0.00  0.00    +0.000 C 
ATOM     14  C   UNL     1      46.232 -48.285  52.545  0.00  0.00    +0.000 C 
BRANCH  14  15
ATOM     15  C   UNL     1      46.634 -46.827  52.305  0.00  0.00    +0.000 C 
BRANCH  15  16
ATOM     16  C   UNL     1      47.036 -45.369  52.063  0.00  0.00    +0.000 C 
ATOM     17  C   UNL     1      47.437 -43.911  51.821  0.00  0.00    +0.000 C 
BRANCH  17  19
ATOM     18  O   UNL     1      47.065 -41.604  51.799  0.00  0.00    +0.000 OA
ATOM     19  C   UNL     1      47.810 -42.547  51.596  0.00  0.00    +0.000 C 
BRANCH  19  20
ATOM     20  O   UNL     1      49.065 -42.391  51.138  0.00  0.00    +0.000 OA
ATOM     21  H   UNL     1      49.000 -42.646  50.196  0.00  0.00    +0.000 HD
ENDBRANCH  19  20
ENDBRANCH  17  19
ENDBRANCH  15  16
ENDBRANCH  14  15
ENDBRANCH   1  13
TORSDOF 5
ENDMDL
MODEL 3
REMARK VINA RESULT:      -5.5      6.199      9.047
REMARK  Name = 85668777_Hyaluronidase.pdbqt.pdb
REMARK  5 active torsions:
REMARK  status: ('A' for Active; 'I' for Inactive)
REMARK    1  A    between atoms: N_1  and  C_13
REMARK    2  A    between atoms: C_14  and  C_15
REMARK    3  A    between atoms: C_15  and  C_16
REMARK    4  A    between atoms: C_17  and  C_19
REMARK    5  A    between atoms: C_19  and  O_20
REMARK                            x       y       z     vdW  Elec       q    Type
REMARK                         _______ _______ _______ _____ _____    ______ ____
ROOT
ATOM      1  N   UNL     1      46.140 -52.374  54.007  0.00  0.00    +0.000 N 
ATOM      2  C   UNL     1      44.353 -53.883  54.628  0.00  0.00    +0.000 C 
ATOM      3  C   UNL     1      45.422 -53.764  55.713  0.00  0.00    +0.000 A 
ATOM      4  C   UNL     1      44.940 -52.907  53.535  0.00  0.00    +0.000 C 
ATOM      5  C   UNL     1      46.430 -52.874  55.288  0.00  0.00    +0.000 A 
ATOM      6  C   UNL     1      44.288 -55.362  54.132  0.00  0.00    +0.000 C 
ATOM      7  C   UNL     1      42.987 -53.381  55.198  0.00  0.00    +0.000 C 
ATOM      8  C   UNL     1      45.494 -54.385  56.953  0.00  0.00    +0.000 A 
ATOM      9  C   UNL     1      47.518 -52.593  56.094  0.00  0.00    +0.000 A 
ATOM     10  C   UNL     1      44.453 -52.574  52.322  0.00  0.00    +0.000 C 
ATOM     11  C   UNL     1      46.591 -54.101  57.765  0.00  0.00    +0.000 A 
ATOM     12  C   UNL     1      47.591 -53.215  57.341  0.00  0.00    +0.000 A 
ENDROOT
BRANCH   1  13
ATOM     13  C   UNL     1      46.986 -51.439  53.305  0.00  0.00    +0.000 C 
ATOM     14  C   UNL     1      47.881 -50.445  52.557  0.00  0.00    +0.000 C 
BRANCH  14  15
ATOM     15  C   UNL     1      48.774 -49.451  51.808  0.00  0.00    +0.000 C 
BRANCH  15  16
ATOM     16  C   UNL     1      49.668 -48.459  51.060  0.00  0.00    +0.000 C 
ATOM     17  C   UNL     1      50.561 -47.465  50.311  0.00  0.00    +0.000 C 
BRANCH  17  19
ATOM     18  O   UNL     1      52.594 -46.696  49.455  0.00  0.00    +0.000 OA
ATOM     19  C   UNL     1      51.397 -46.535  49.613  0.00  0.00    +0.000 C 
BRANCH  19  20
ATOM     20  O   UNL     1      50.743 -45.458  49.143  0.00  0.00    +0.000 OA
ATOM     21  H   UNL     1      51.208 -45.252  48.307  0.00  0.00    +0.000 HD
ENDBRANCH  19  20
ENDBRANCH  17  19
ENDBRANCH  15  16
ENDBRANCH  14  15
ENDBRANCH   1  13
TORSDOF 5
ENDMDL
MODEL 4
REMARK VINA RESULT:      -5.4      7.778     10.870
REMARK  Name = 85668777_Hyaluronidase.pdbqt.pdb
REMARK  5 active torsions:
REMARK  status: ('A' for Active; 'I' for Inactive)
REMARK    1  A    between atoms: N_1  and  C_13
REMARK    2  A    between atoms: C_14  and  C_15
REMARK    3  A    between atoms: C_15  and  C_16
REMARK    4  A    between atoms: C_17  and  C_19
REMARK    5  A    between atoms: C_19  and  O_20
REMARK                            x       y       z     vdW  Elec       q    Type
REMARK                         _______ _______ _______ _____ _____    ______ ____
ROOT
ATOM      1  N   UNL     1      47.246 -49.464  52.431  0.00  0.00    +0.000 N 
ATOM      2  C   UNL     1      49.041 -48.363  51.237  0.00  0.00    +0.000 C 
ATOM      3  C   UNL     1      47.884 -47.416  51.558  0.00  0.00    +0.000 A 
ATOM      4  C   UNL     1      48.502 -49.704  51.870  0.00  0.00    +0.000 C 
ATOM      5  C   UNL     1      46.877 -48.120  52.250  0.00  0.00    +0.000 A 
ATOM      6  C   UNL     1      49.207 -48.461  49.687  0.00  0.00    +0.000 C 
ATOM      7  C   UNL     1      50.334 -47.848  51.947  0.00  0.00    +0.000 C 
ATOM      8  C   UNL     1      47.740 -46.068  51.264  0.00  0.00    +0.000 A 
ATOM      9  C   UNL     1      45.717 -47.485  52.657  0.00  0.00    +0.000 A 
ATOM     10  C   UNL     1      49.070 -50.927  51.919  0.00  0.00    +0.000 C 
ATOM     11  C   UNL     1      46.570 -45.429  51.674  0.00  0.00    +0.000 A 
ATOM     12  C   UNL     1      45.571 -46.130  52.363  0.00  0.00    +0.000 A 
ENDROOT
BRANCH   1  13
ATOM     13  C   UNL     1      46.420 -50.435  53.107  0.00  0.00    +0.000 C 
ATOM     14  C   UNL     1      45.540 -51.461  53.827  0.00  0.00    +0.000 C 
BRANCH  14  15
ATOM     15  C   UNL     1      44.660 -52.487  54.548  0.00  0.00    +0.000 C 
BRANCH  15  16
ATOM     16  C   UNL     1      43.780 -53.512  55.267  0.00  0.00    +0.000 C 
ATOM     17  C   UNL     1      42.898 -54.537  55.987  0.00  0.00    +0.000 C 
BRANCH  17  19
ATOM     18  O   UNL     1      42.219 -55.804  57.829  0.00  0.00    +0.000 OA
ATOM     19  C   UNL     1      42.072 -55.495  56.659  0.00  0.00    +0.000 C 
BRANCH  19  20
ATOM     20  O   UNL     1      41.113 -56.031  55.884  0.00  0.00    +0.000 OA
ATOM     21  H   UNL     1      40.317 -56.007  56.452  0.00  0.00    +0.000 HD
ENDBRANCH  19  20
ENDBRANCH  17  19
ENDBRANCH  15  16
ENDBRANCH  14  15
ENDBRANCH   1  13
TORSDOF 5
ENDMDL
MODEL 5
REMARK VINA RESULT:      -5.3      3.014      3.663
REMARK  Name = 85668777_Hyaluronidase.pdbqt.pdb
REMARK  5 active torsions:
REMARK  status: ('A' for Active; 'I' for Inactive)
REMARK    1  A    between atoms: N_1  and  C_13
REMARK    2  A    between atoms: C_14  and  C_15
REMARK    3  A    between atoms: C_15  and  C_16
REMARK    4  A    between atoms: C_17  and  C_19
REMARK    5  A    between atoms: C_19  and  O_20
REMARK                            x       y       z     vdW  Elec       q    Type
REMARK                         _______ _______ _______ _____ _____    ______ ____
ROOT
ATOM      1  N   UNL     1      49.489 -43.404  48.909  0.00  0.00    +0.000 N 
ATOM      2  C   UNL     1      49.748 -45.810  48.938  0.00  0.00    +0.000 C 
ATOM      3  C   UNL     1      49.065 -45.280  50.198  0.00  0.00    +0.000 A 
ATOM      4  C   UNL     1      49.984 -44.465  48.148  0.00  0.00    +0.000 C 
ATOM      5  C   UNL     1      48.947 -43.877  50.116  0.00  0.00    +0.000 A 
ATOM      6  C   UNL     1      51.086 -46.510  49.336  0.00  0.00    +0.000 C 
ATOM      7  C   UNL     1      48.767 -46.772  48.192  0.00  0.00    +0.000 C 
ATOM      8  C   UNL     1      48.597 -45.973  51.306  0.00  0.00    +0.000 A 
ATOM      9  C   UNL     1      48.361 -43.152  51.138  0.00  0.00    +0.000 A 
ATOM     10  C   UNL     1      50.555 -44.257  46.944  0.00  0.00    +0.000 C 
ATOM     11  C   UNL     1      48.006 -45.240  52.335  0.00  0.00    +0.000 A 
ATOM     12  C   UNL     1      47.889 -43.846  52.252  0.00  0.00    +0.000 A 
ENDROOT
BRANCH   1  13
ATOM     13  C   UNL     1      49.514 -42.010  48.537  0.00  0.00    +0.000 C 
ATOM     14  C   UNL     1      49.535 -40.531  48.140  0.00  0.00    +0.000 C 
BRANCH  14  15
ATOM     15  C   UNL     1      49.555 -39.052  47.743  0.00  0.00    +0.000 C 
BRANCH  15  16
ATOM     16  C   UNL     1      49.576 -37.574  47.345  0.00  0.00    +0.000 C 
ATOM     17  C   UNL     1      49.598 -36.094  46.946  0.00  0.00    +0.000 C 
BRANCH  17  19
ATOM     18  O   UNL     1      50.624 -34.023  46.608  0.00  0.00    +0.000 OA
ATOM     19  C   UNL     1      49.619 -34.713  46.572  0.00  0.00    +0.000 C 
BRANCH  19  20
ATOM     20  O   UNL     1      48.427 -34.234  46.176  0.00  0.00    +0.000 OA
ATOM     21  H   UNL     1      47.852 -35.025  46.165  0.00  0.00    +0.000 HD
ENDBRANCH  19  20
ENDBRANCH  17  19
ENDBRANCH  15  16
ENDBRANCH  14  15
ENDBRANCH   1  13
TORSDOF 5
ENDMDL
MODEL 6
REMARK VINA RESULT:      -5.3      7.168      9.899
REMARK  Name = 85668777_Hyaluronidase.pdbqt.pdb
REMARK  5 active torsions:
REMARK  status: ('A' for Active; 'I' for Inactive)
REMARK    1  A    between atoms: N_1  and  C_13
REMARK    2  A    between atoms: C_14  and  C_15
REMARK    3  A    between atoms: C_15  and  C_16
REMARK    4  A    between atoms: C_17  and  C_19
REMARK    5  A    between atoms: C_19  and  O_20
REMARK                            x       y       z     vdW  Elec       q    Type
REMARK                         _______ _______ _______ _____ _____    ______ ____
ROOT
ATOM      1  N   UNL     1      46.559 -53.389  56.035  0.00  0.00    +0.000 N 
ATOM      2  C   UNL     1      45.970 -55.487  57.089  0.00  0.00    +0.000 C 
ATOM      3  C   UNL     1      47.439 -55.119  57.300  0.00  0.00    +0.000 A 
ATOM      4  C   UNL     1      45.482 -54.256  56.231  0.00  0.00    +0.000 C 
ATOM      5  C   UNL     1      47.713 -53.891  56.662  0.00  0.00    +0.000 A 
ATOM      6  C   UNL     1      45.888 -56.832  56.301  0.00  0.00    +0.000 C 
ATOM      7  C   UNL     1      45.258 -55.561  58.478  0.00  0.00    +0.000 C 
ATOM      8  C   UNL     1      48.431 -55.804  57.986  0.00  0.00    +0.000 A 
ATOM      9  C   UNL     1      48.979 -53.335  56.704  0.00  0.00    +0.000 A 
ATOM     10  C   UNL     1      44.263 -53.986  55.720  0.00  0.00    +0.000 C 
ATOM     11  C   UNL     1      49.706 -55.243  58.028  0.00  0.00    +0.000 A 
ATOM     12  C   UNL     1      49.977 -54.022  57.394  0.00  0.00    +0.000 A 
ENDROOT
BRANCH   1  13
ATOM     13  C   UNL     1      46.526 -52.147  55.302  0.00  0.00    +0.000 C 
ATOM     14  C   UNL     1      46.490 -50.826  54.528  0.00  0.00    +0.000 C 
BRANCH  14  15
ATOM     15  C   UNL     1      46.455 -49.504  53.755  0.00  0.00    +0.000 C 
BRANCH  15  16
ATOM     16  C   UNL     1      46.420 -48.183  52.981  0.00  0.00    +0.000 C 
ATOM     17  C   UNL     1      46.385 -46.861  52.208  0.00  0.00    +0.000 C 
BRANCH  17  19
ATOM     18  O   UNL     1      46.702 -44.559  51.965  0.00  0.00    +0.000 OA
ATOM     19  C   UNL     1      46.353 -45.625  51.487  0.00  0.00    +0.000 C 
BRANCH  19  20
ATOM     20  O   UNL     1      45.899 -45.738  50.226  0.00  0.00    +0.000 OA
ATOM     21  H   UNL     1      46.341 -46.545  49.892  0.00  0.00    +0.000 HD
ENDBRANCH  19  20
ENDBRANCH  17  19
ENDBRANCH  15  16
ENDBRANCH  14  15
ENDBRANCH   1  13
TORSDOF 5
ENDMDL
MODEL 7
REMARK VINA RESULT:      -5.2      6.895      9.775
REMARK  Name = 85668777_Hyaluronidase.pdbqt.pdb
REMARK  5 active torsions:
REMARK  status: ('A' for Active; 'I' for Inactive)
REMARK    1  A    between atoms: N_1  and  C_13
REMARK    2  A    between atoms: C_14  and  C_15
REMARK    3  A    between atoms: C_15  and  C_16
REMARK    4  A    between atoms: C_17  and  C_19
REMARK    5  A    between atoms: C_19  and  O_20
REMARK                            x       y       z     vdW  Elec       q    Type
REMARK                         _______ _______ _______ _____ _____    ______ ____
ROOT
ATOM      1  N   UNL     1      46.359 -53.097  55.153  0.00  0.00    +0.000 N 
ATOM      2  C   UNL     1      45.860 -54.720  56.878  0.00  0.00    +0.000 C 
ATOM      3  C   UNL     1      44.621 -54.316  56.080  0.00  0.00    +0.000 A 
ATOM      4  C   UNL     1      46.962 -53.842  56.168  0.00  0.00    +0.000 C 
ATOM      5  C   UNL     1      44.982 -53.372  55.096  0.00  0.00    +0.000 A 
ATOM      6  C   UNL     1      45.657 -54.324  58.375  0.00  0.00    +0.000 C 
ATOM      7  C   UNL     1      46.111 -56.251  56.692  0.00  0.00    +0.000 C 
ATOM      8  C   UNL     1      43.307 -54.742  56.214  0.00  0.00    +0.000 A 
ATOM      9  C   UNL     1      44.035 -52.845  54.236  0.00  0.00    +0.000 A 
ATOM     10  C   UNL     1      48.285 -53.746  56.416  0.00  0.00    +0.000 C 
ATOM     11  C   UNL     1      42.354 -54.210  55.346  0.00  0.00    +0.000 A 
ATOM     12  C   UNL     1      42.714 -53.273  54.368  0.00  0.00    +0.000 A 
ENDROOT
BRANCH   1  13
ATOM     13  C   UNL     1      47.025 -52.171  54.270  0.00  0.00    +0.000 C 
ATOM     14  C   UNL     1      47.730 -51.184  53.335  0.00  0.00    +0.000 C 
BRANCH  14  15
ATOM     15  C   UNL     1      48.434 -50.195  52.400  0.00  0.00    +0.000 C 
BRANCH  15  16
ATOM     16  C   UNL     1      49.139 -49.209  51.465  0.00  0.00    +0.000 C 
ATOM     17  C   UNL     1      49.844 -48.221  50.530  0.00  0.00    +0.000 C 
BRANCH  17  19
ATOM     18  O   UNL     1      50.008 -46.877  48.627  0.00  0.00    +0.000 OA
ATOM     19  C   UNL     1      50.505 -47.299  49.656  0.00  0.00    +0.000 C 
BRANCH  19  20
ATOM     20  O   UNL     1      51.731 -46.936  50.070  0.00  0.00    +0.000 OA
ATOM     21  H   UNL     1      52.139 -46.546  49.270  0.00  0.00    +0.000 HD
ENDBRANCH  19  20
ENDBRANCH  17  19
ENDBRANCH  15  16
ENDBRANCH  14  15
ENDBRANCH   1  13
TORSDOF 5
ENDMDL
MODEL 8
REMARK VINA RESULT:      -5.2      7.346     10.081
REMARK  Name = 85668777_Hyaluronidase.pdbqt.pdb
REMARK  5 active torsions:
REMARK  status: ('A' for Active; 'I' for Inactive)
REMARK    1  A    between atoms: N_1  and  C_13
REMARK    2  A    between atoms: C_14  and  C_15
REMARK    3  A    between atoms: C_15  and  C_16
REMARK    4  A    between atoms: C_17  and  C_19
REMARK    5  A    between atoms: C_19  and  O_20
REMARK                            x       y       z     vdW  Elec       q    Type
REMARK                         _______ _______ _______ _____ _____    ______ ____
ROOT
ATOM      1  N   UNL     1      49.440 -36.716  46.210  0.00  0.00    +0.000 N 
ATOM      2  C   UNL     1      48.521 -38.770  45.317  0.00  0.00    +0.000 C 
ATOM      3  C   UNL     1      48.965 -38.912  46.773  0.00  0.00    +0.000 A 
ATOM      4  C   UNL     1      48.886 -37.258  45.048  0.00  0.00    +0.000 C 
ATOM      5  C   UNL     1      49.490 -37.684  47.227  0.00  0.00    +0.000 A 
ATOM      6  C   UNL     1      49.351 -39.749  44.430  0.00  0.00    +0.000 C 
ATOM      7  C   UNL     1      46.983 -39.034  45.225  0.00  0.00    +0.000 C 
ATOM      8  C   UNL     1      48.912 -40.019  47.608  0.00  0.00    +0.000 A 
ATOM      9  C   UNL     1      49.964 -37.548  48.520  0.00  0.00    +0.000 A 
ATOM     10  C   UNL     1      48.734 -36.517  43.932  0.00  0.00    +0.000 C 
ATOM     11  C   UNL     1      49.391 -39.881  48.910  0.00  0.00    +0.000 A 
ATOM     12  C   UNL     1      49.910 -38.660  49.361  0.00  0.00    +0.000 A 
ENDROOT
BRANCH   1  13
ATOM     13  C   UNL     1      49.904 -35.360  46.375  0.00  0.00    +0.000 C 
ATOM     14  C   UNL     1      50.401 -33.921  46.549  0.00  0.00    +0.000 C 
BRANCH  14  15
ATOM     15  C   UNL     1      50.899 -32.483  46.723  0.00  0.00    +0.000 C 
BRANCH  15  16
ATOM     16  C   UNL     1      51.397 -31.046  46.896  0.00  0.00    +0.000 C 
ATOM     17  C   UNL     1      51.894 -29.607  47.069  0.00  0.00    +0.000 C 
BRANCH  17  19
ATOM     18  O   UNL     1      53.151 -27.730  46.474  0.00  0.00    +0.000 OA
ATOM     19  C   UNL     1      52.357 -28.262  47.231  0.00  0.00    +0.000 C 
BRANCH  19  20
ATOM     20  O   UNL     1      51.840 -27.630  48.299  0.00  0.00    +0.000 OA
ATOM     21  H   UNL     1      51.983 -28.261  49.033  0.00  0.00    +0.000 HD
ENDBRANCH  19  20
ENDBRANCH  17  19
ENDBRANCH  15  16
ENDBRANCH  14  15
ENDBRANCH   1  13
TORSDOF 5
ENDMDL
MODEL 9
REMARK VINA RESULT:      -5.1      6.695      9.310
REMARK  Name = 85668777_Hyaluronidase.pdbqt.pdb
REMARK  5 active torsions:
REMARK  status: ('A' for Active; 'I' for Inactive)
REMARK    1  A    between atoms: N_1  and  C_13
REMARK    2  A    between atoms: C_14  and  C_15
REMARK    3  A    between atoms: C_15  and  C_16
REMARK    4  A    between atoms: C_17  and  C_19
REMARK    5  A    between atoms: C_19  and  O_20
REMARK                            x       y       z     vdW  Elec       q    Type
REMARK                         _______ _______ _______ _____ _____    ______ ____
ROOT
ATOM      1  N   UNL     1      45.850 -52.966  55.561  0.00  0.00    +0.000 N 
ATOM      2  C   UNL     1      46.119 -54.964  56.899  0.00  0.00    +0.000 C 
ATOM      3  C   UNL     1      44.692 -54.798  56.375  0.00  0.00    +0.000 A 
ATOM      4  C   UNL     1      46.803 -53.680  56.290  0.00  0.00    +0.000 C 
ATOM      5  C   UNL     1      44.607 -53.618  55.607  0.00  0.00    +0.000 A 
ATOM      6  C   UNL     1      46.096 -54.943  58.460  0.00  0.00    +0.000 C 
ATOM      7  C   UNL     1      46.723 -56.287  56.326  0.00  0.00    +0.000 C 
ATOM      8  C   UNL     1      43.583 -55.611  56.562  0.00  0.00    +0.000 A 
ATOM      9  C   UNL     1      43.414 -53.238  55.018  0.00  0.00    +0.000 A 
ATOM     10  C   UNL     1      48.077 -53.248  56.391  0.00  0.00    +0.000 C 
ATOM     11  C   UNL     1      42.382 -55.227  55.968  0.00  0.00    +0.000 A 
ATOM     12  C   UNL     1      42.299 -54.055  55.204  0.00  0.00    +0.000 A 
ENDROOT
BRANCH   1  13
ATOM     13  C   UNL     1      46.078 -51.731  54.849  0.00  0.00    +0.000 C 
ATOM     14  C   UNL     1      46.320 -50.424  54.089  0.00  0.00    +0.000 C 
BRANCH  14  15
ATOM     15  C   UNL     1      46.562 -49.117  53.327  0.00  0.00    +0.000 C 
BRANCH  15  16
ATOM     16  C   UNL     1      46.805 -47.810  52.567  0.00  0.00    +0.000 C 
ATOM     17  C   UNL     1      47.047 -46.503  51.806  0.00  0.00    +0.000 C 
BRANCH  17  19
ATOM     18  O   UNL     1      47.889 -45.220  50.045  0.00  0.00    +0.000 OA
ATOM     19  C   UNL     1      47.272 -45.282  51.094  0.00  0.00    +0.000 C 
BRANCH  19  20
ATOM     20  O   UNL     1      46.740 -44.197  51.685  0.00  0.00    +0.000 OA
ATOM     21  H   UNL     1      45.809 -44.453  51.844  0.00  0.00    +0.000 HD
ENDBRANCH  19  20
ENDBRANCH  17  19
ENDBRANCH  15  16
ENDBRANCH  14  15
ENDBRANCH   1  13
TORSDOF 5
ENDMDL
