MODEL 1
REMARK VINA RESULT:      -5.4      0.000      0.000
REMARK  Name = 86311066_OplopantriolA.pdbqt.pdb
REMARK  12 active torsions:
REMARK  status: ('A' for Active; 'I' for Inactive)
REMARK    1  A    between atoms: C_1  and  C_3
REMARK    2  A    between atoms: C_2  and  C_13
REMARK    3  A    between atoms: C_4  and  C_5
REMARK    4  A    between atoms: C_6  and  C_7
REMARK    5  A    between atoms: C_8  and  C_9
REMARK    6  A    between atoms: C_10  and  O_11
REMARK    7  A    between atoms: C_13  and  O_14
REMARK    8  A    between atoms: C_13  and  C_16
REMARK    9  A    between atoms: C_17  and  C_18
REMARK   10  A    between atoms: C_19  and  C_20
REMARK   11  A    between atoms: C_20  and  C_21
REMARK   12  A    between atoms: C_20  and  O_23
REMARK                            x       y       z     vdW  Elec       q    Type
REMARK                         _______ _______ _______ _____ _____    ______ ____
ROOT
ATOM      1  C   UNL     1      48.392 -45.329  50.768  0.00  0.00    +0.000 C 
ATOM      2  C   UNL     1      48.711 -44.334  50.176  0.00  0.00    +0.000 C 
ENDROOT
BRANCH   1   3
ATOM      3  C   UNL     1      47.986 -46.598  51.524  0.00  0.00    +0.000 C 
ATOM      4  C   UNL     1      47.579 -47.866  52.279  0.00  0.00    +0.000 C 
BRANCH   4   5
ATOM      5  C   UNL     1      47.172 -49.135  53.035  0.00  0.00    +0.000 C 
ATOM      6  C   UNL     1      46.766 -50.404  53.790  0.00  0.00    +0.000 C 
BRANCH   6   7
ATOM      7  C   UNL     1      46.359 -51.673  54.545  0.00  0.00    +0.000 C 
ATOM      8  C   UNL     1      45.953 -52.942  55.300  0.00  0.00    +0.000 C 
BRANCH   8   9
ATOM      9  C   UNL     1      45.545 -54.211  56.056  0.00  0.00    +0.000 C 
ATOM     10  C   UNL     1      45.137 -55.479  56.812  0.00  0.00    +0.000 C 
BRANCH  10  11
ATOM     11  O   UNL     1      44.783 -56.578  57.467  0.00  0.00    +0.000 OA
ATOM     12  H   UNL     1      44.318 -57.190  56.873  0.00  0.00    +0.000 HD
ENDBRANCH  10  11
ENDBRANCH   8   9
ENDBRANCH   6   7
ENDBRANCH   4   5
ENDBRANCH   1   3
BRANCH   2  13
ATOM     13  C   UNL     1      49.088 -43.161  49.478  0.00  0.00    +0.000 C 
BRANCH  13  14
ATOM     14  O   UNL     1      49.885 -43.311  48.366  0.00  0.00    +0.000 OA
ATOM     15  H   UNL     1      49.971 -44.245  48.111  0.00  0.00    +0.000 HD
ENDBRANCH  13  14
BRANCH  13  16
ATOM     16  C   UNL     1      48.690 -41.854  49.862  0.00  0.00    +0.000 C 
ATOM     17  C   UNL     1      48.352 -40.749  50.186  0.00  0.00    +0.000 C 
BRANCH  17  18
ATOM     18  C   UNL     1      47.921 -39.339  50.598  0.00  0.00    +0.000 C 
ATOM     19  C   UNL     1      47.582 -38.233  50.921  0.00  0.00    +0.000 C 
BRANCH  19  20
ATOM     20  C   UNL     1      47.182 -36.925  51.301  0.00  0.00    +0.000 C 
BRANCH  20  21
ATOM     21  C   UNL     1      47.991 -36.057  52.087  0.00  0.00    +0.000 C 
ATOM     22  C   UNL     1      48.744 -35.250  52.838  0.00  0.00    +0.000 C 
ENDBRANCH  20  21
BRANCH  20  23
ATOM     23  O   UNL     1      45.945 -36.472  50.889  0.00  0.00    +0.000 OA
ATOM     24  H   UNL     1      45.248 -37.134  51.041  0.00  0.00    +0.000 HD
ENDBRANCH  20  23
ENDBRANCH  19  20
ENDBRANCH  17  18
ENDBRANCH  13  16
ENDBRANCH   2  13
TORSDOF 12
ENDMDL
MODEL 2
REMARK VINA RESULT:      -5.1      7.412     11.773
REMARK  Name = 86311066_OplopantriolA.pdbqt.pdb
REMARK  12 active torsions:
REMARK  status: ('A' for Active; 'I' for Inactive)
REMARK    1  A    between atoms: C_1  and  C_3
REMARK    2  A    between atoms: C_2  and  C_13
REMARK    3  A    between atoms: C_4  and  C_5
REMARK    4  A    between atoms: C_6  and  C_7
REMARK    5  A    between atoms: C_8  and  C_9
REMARK    6  A    between atoms: C_10  and  O_11
REMARK    7  A    between atoms: C_13  and  O_14
REMARK    8  A    between atoms: C_13  and  C_16
REMARK    9  A    between atoms: C_17  and  C_18
REMARK   10  A    between atoms: C_19  and  C_20
REMARK   11  A    between atoms: C_20  and  C_21
REMARK   12  A    between atoms: C_20  and  O_23
REMARK                            x       y       z     vdW  Elec       q    Type
REMARK                         _______ _______ _______ _____ _____    ______ ____
ROOT
ATOM      1  C   UNL     1      50.148 -34.425  46.719  0.00  0.00    +0.000 C 
ATOM      2  C   UNL     1      50.409 -33.393  46.162  0.00  0.00    +0.000 C 
ENDROOT
BRANCH   1   3
ATOM      3  C   UNL     1      49.816 -35.739  47.431  0.00  0.00    +0.000 C 
ATOM      4  C   UNL     1      49.483 -37.053  48.143  0.00  0.00    +0.000 C 
BRANCH   4   5
ATOM      5  C   UNL     1      49.150 -38.367  48.856  0.00  0.00    +0.000 C 
ATOM      6  C   UNL     1      48.819 -39.682  49.570  0.00  0.00    +0.000 C 
BRANCH   6   7
ATOM      7  C   UNL     1      48.487 -40.996  50.282  0.00  0.00    +0.000 C 
ATOM      8  C   UNL     1      48.156 -42.311  50.995  0.00  0.00    +0.000 C 
BRANCH   8   9
ATOM      9  C   UNL     1      47.823 -43.626  51.707  0.00  0.00    +0.000 C 
ATOM     10  C   UNL     1      47.491 -44.941  52.418  0.00  0.00    +0.000 C 
BRANCH  10  11
ATOM     11  O   UNL     1      47.203 -46.081  53.034  0.00  0.00    +0.000 OA
ATOM     12  H   UNL     1      46.853 -45.905  53.924  0.00  0.00    +0.000 HD
ENDBRANCH  10  11
ENDBRANCH   8   9
ENDBRANCH   6   7
ENDBRANCH   4   5
ENDBRANCH   1   3
BRANCH   2  13
ATOM     13  C   UNL     1      50.717 -32.177  45.504  0.00  0.00    +0.000 C 
BRANCH  13  14
ATOM     14  O   UNL     1      50.650 -32.163  44.130  0.00  0.00    +0.000 OA
ATOM     15  H   UNL     1      51.282 -32.786  43.734  0.00  0.00    +0.000 HD
ENDBRANCH  13  14
BRANCH  13  16
ATOM     16  C   UNL     1      51.088 -30.988  46.183  0.00  0.00    +0.000 C 
ATOM     17  C   UNL     1      51.401 -29.982  46.758  0.00  0.00    +0.000 C 
BRANCH  17  18
ATOM     18  C   UNL     1      51.802 -28.700  47.493  0.00  0.00    +0.000 C 
ATOM     19  C   UNL     1      52.117 -27.694  48.069  0.00  0.00    +0.000 C 
BRANCH  19  20
ATOM     20  C   UNL     1      52.487 -26.506  48.751  0.00  0.00    +0.000 C 
BRANCH  20  21
ATOM     21  C   UNL     1      51.544 -25.572  49.264  0.00  0.00    +0.000 C 
ATOM     22  C   UNL     1      50.654 -24.707  49.757  0.00  0.00    +0.000 C 
ENDBRANCH  20  21
BRANCH  20  23
ATOM     23  O   UNL     1      53.831 -26.242  48.924  0.00  0.00    +0.000 OA
ATOM     24  H   UNL     1      54.072 -25.358  48.598  0.00  0.00    +0.000 HD
ENDBRANCH  20  23
ENDBRANCH  19  20
ENDBRANCH  17  18
ENDBRANCH  13  16
ENDBRANCH   2  13
TORSDOF 12
ENDMDL
MODEL 3
REMARK VINA RESULT:      -5.0      1.995      2.662
REMARK  Name = 86311066_OplopantriolA.pdbqt.pdb
REMARK  12 active torsions:
REMARK  status: ('A' for Active; 'I' for Inactive)
REMARK    1  A    between atoms: C_1  and  C_3
REMARK    2  A    between atoms: C_2  and  C_13
REMARK    3  A    between atoms: C_4  and  C_5
REMARK    4  A    between atoms: C_6  and  C_7
REMARK    5  A    between atoms: C_8  and  C_9
REMARK    6  A    between atoms: C_10  and  O_11
REMARK    7  A    between atoms: C_13  and  O_14
REMARK    8  A    between atoms: C_13  and  C_16
REMARK    9  A    between atoms: C_17  and  C_18
REMARK   10  A    between atoms: C_19  and  C_20
REMARK   11  A    between atoms: C_20  and  C_21
REMARK   12  A    between atoms: C_20  and  O_23
REMARK                            x       y       z     vdW  Elec       q    Type
REMARK                         _______ _______ _______ _____ _____    ______ ____
ROOT
ATOM      1  C   UNL     1      47.100 -47.149  51.293  0.00  0.00    +0.000 C 
ATOM      2  C   UNL     1      47.133 -46.247  50.501  0.00  0.00    +0.000 C 
ENDROOT
BRANCH   1   3
ATOM      3  C   UNL     1      47.056 -48.300  52.302  0.00  0.00    +0.000 C 
ATOM      4  C   UNL     1      47.013 -49.451  53.311  0.00  0.00    +0.000 C 
BRANCH   4   5
ATOM      5  C   UNL     1      46.970 -50.602  54.321  0.00  0.00    +0.000 C 
ATOM      6  C   UNL     1      46.928 -51.751  55.333  0.00  0.00    +0.000 C 
BRANCH   6   7
ATOM      7  C   UNL     1      46.887 -52.902  56.343  0.00  0.00    +0.000 C 
ATOM      8  C   UNL     1      46.845 -54.052  57.354  0.00  0.00    +0.000 C 
BRANCH   8   9
ATOM      9  C   UNL     1      46.803 -55.203  58.364  0.00  0.00    +0.000 C 
ATOM     10  C   UNL     1      46.761 -56.354  59.373  0.00  0.00    +0.000 C 
BRANCH  10  11
ATOM     11  O   UNL     1      46.726 -57.352  60.247  0.00  0.00    +0.000 OA
ATOM     12  H   UNL     1      47.618 -57.710  60.389  0.00  0.00    +0.000 HD
ENDBRANCH  10  11
ENDBRANCH   8   9
ENDBRANCH   6   7
ENDBRANCH   4   5
ENDBRANCH   1   3
BRANCH   2  13
ATOM     13  C   UNL     1      47.172 -45.182  49.568  0.00  0.00    +0.000 C 
BRANCH  13  14
ATOM     14  O   UNL     1      46.851 -45.470  48.261  0.00  0.00    +0.000 OA
ATOM     15  H   UNL     1      46.380 -46.317  48.186  0.00  0.00    +0.000 HD
ENDBRANCH  13  14
BRANCH  13  16
ATOM     16  C   UNL     1      47.521 -43.849  49.908  0.00  0.00    +0.000 C 
ATOM     17  C   UNL     1      47.816 -42.722  50.197  0.00  0.00    +0.000 C 
BRANCH  17  18
ATOM     18  C   UNL     1      48.191 -41.285  50.568  0.00  0.00    +0.000 C 
ATOM     19  C   UNL     1      48.486 -40.158  50.859  0.00  0.00    +0.000 C 
BRANCH  19  20
ATOM     20  C   UNL     1      48.835 -38.826  51.204  0.00  0.00    +0.000 C 
BRANCH  20  21
ATOM     21  C   UNL     1      47.904 -37.751  51.211  0.00  0.00    +0.000 C 
ATOM     22  C   UNL     1      47.037 -36.736  51.229  0.00  0.00    +0.000 C 
ENDBRANCH  20  21
BRANCH  20  23
ATOM     23  O   UNL     1      50.145 -38.561  51.549  0.00  0.00    +0.000 OA
ATOM     24  H   UNL     1      50.636 -39.374  51.758  0.00  0.00    +0.000 HD
ENDBRANCH  20  23
ENDBRANCH  19  20
ENDBRANCH  17  18
ENDBRANCH  13  16
ENDBRANCH   2  13
TORSDOF 12
ENDMDL
MODEL 4
REMARK VINA RESULT:      -4.9      6.172      7.776
REMARK  Name = 86311066_OplopantriolA.pdbqt.pdb
REMARK  12 active torsions:
REMARK  status: ('A' for Active; 'I' for Inactive)
REMARK    1  A    between atoms: C_1  and  C_3
REMARK    2  A    between atoms: C_2  and  C_13
REMARK    3  A    between atoms: C_4  and  C_5
REMARK    4  A    between atoms: C_6  and  C_7
REMARK    5  A    between atoms: C_8  and  C_9
REMARK    6  A    between atoms: C_10  and  O_11
REMARK    7  A    between atoms: C_13  and  O_14
REMARK    8  A    between atoms: C_13  and  C_16
REMARK    9  A    between atoms: C_17  and  C_18
REMARK   10  A    between atoms: C_19  and  C_20
REMARK   11  A    between atoms: C_20  and  C_21
REMARK   12  A    between atoms: C_20  and  O_23
REMARK                            x       y       z     vdW  Elec       q    Type
REMARK                         _______ _______ _______ _____ _____    ______ ____
ROOT
ATOM      1  C   UNL     1      47.562 -49.269  52.773  0.00  0.00    +0.000 C 
ATOM      2  C   UNL     1      47.770 -48.420  51.949  0.00  0.00    +0.000 C 
ENDROOT
BRANCH   1   3
ATOM      3  C   UNL     1      47.297 -50.352  53.822  0.00  0.00    +0.000 C 
ATOM      4  C   UNL     1      47.030 -51.434  54.872  0.00  0.00    +0.000 C 
BRANCH   4   5
ATOM      5  C   UNL     1      46.764 -52.517  55.923  0.00  0.00    +0.000 C 
ATOM      6  C   UNL     1      46.496 -53.598  56.974  0.00  0.00    +0.000 C 
BRANCH   6   7
ATOM      7  C   UNL     1      46.229 -54.679  58.026  0.00  0.00    +0.000 C 
ATOM      8  C   UNL     1      45.962 -55.760  59.077  0.00  0.00    +0.000 C 
BRANCH   8   9
ATOM      9  C   UNL     1      45.695 -56.840  60.130  0.00  0.00    +0.000 C 
ATOM     10  C   UNL     1      45.428 -57.921  61.181  0.00  0.00    +0.000 C 
BRANCH  10  11
ATOM     11  O   UNL     1      45.198 -58.858  62.094  0.00  0.00    +0.000 OA
ATOM     12  H   UNL     1      44.278 -58.807  62.405  0.00  0.00    +0.000 HD
ENDBRANCH  10  11
ENDBRANCH   8   9
ENDBRANCH   6   7
ENDBRANCH   4   5
ENDBRANCH   1   3
BRANCH   2  13
ATOM     13  C   UNL     1      48.015 -47.418  50.978  0.00  0.00    +0.000 C 
BRANCH  13  14
ATOM     14  O   UNL     1      46.952 -46.632  50.593  0.00  0.00    +0.000 OA
ATOM     15  H   UNL     1      46.664 -46.044  51.311  0.00  0.00    +0.000 HD
ENDBRANCH  13  14
BRANCH  13  16
ATOM     16  C   UNL     1      49.284 -47.185  50.390  0.00  0.00    +0.000 C 
ATOM     17  C   UNL     1      50.359 -46.987  49.892  0.00  0.00    +0.000 C 
BRANCH  17  18
ATOM     18  C   UNL     1      51.729 -46.733  49.258  0.00  0.00    +0.000 C 
ATOM     19  C   UNL     1      52.803 -46.534  48.760  0.00  0.00    +0.000 C 
BRANCH  19  20
ATOM     20  C   UNL     1      54.074 -46.297  48.172  0.00  0.00    +0.000 C 
BRANCH  20  21
ATOM     21  C   UNL     1      54.608 -47.091  47.120  0.00  0.00    +0.000 C 
ATOM     22  C   UNL     1      55.124 -47.829  46.134  0.00  0.00    +0.000 C 
ENDBRANCH  20  21
BRANCH  20  23
ATOM     23  O   UNL     1      54.829 -45.243  48.647  0.00  0.00    +0.000 OA
ATOM     24  H   UNL     1      55.543 -45.545  49.235  0.00  0.00    +0.000 HD
ENDBRANCH  20  23
ENDBRANCH  19  20
ENDBRANCH  17  18
ENDBRANCH  13  16
ENDBRANCH   2  13
TORSDOF 12
ENDMDL
MODEL 5
REMARK VINA RESULT:      -4.9      2.831     14.384
REMARK  Name = 86311066_OplopantriolA.pdbqt.pdb
REMARK  12 active torsions:
REMARK  status: ('A' for Active; 'I' for Inactive)
REMARK    1  A    between atoms: C_1  and  C_3
REMARK    2  A    between atoms: C_2  and  C_13
REMARK    3  A    between atoms: C_4  and  C_5
REMARK    4  A    between atoms: C_6  and  C_7
REMARK    5  A    between atoms: C_8  and  C_9
REMARK    6  A    between atoms: C_10  and  O_11
REMARK    7  A    between atoms: C_13  and  O_14
REMARK    8  A    between atoms: C_13  and  C_16
REMARK    9  A    between atoms: C_17  and  C_18
REMARK   10  A    between atoms: C_19  and  C_20
REMARK   11  A    between atoms: C_20  and  C_21
REMARK   12  A    between atoms: C_20  and  O_23
REMARK                            x       y       z     vdW  Elec       q    Type
REMARK                         _______ _______ _______ _____ _____    ______ ____
ROOT
ATOM      1  C   UNL     1      48.111 -49.238  52.263  0.00  0.00    +0.000 C 
ATOM      2  C   UNL     1      48.127 -50.427  52.428  0.00  0.00    +0.000 C 
ENDROOT
BRANCH   1   3
ATOM      3  C   UNL     1      48.092 -47.721  52.054  0.00  0.00    +0.000 C 
ATOM      4  C   UNL     1      48.073 -46.204  51.846  0.00  0.00    +0.000 C 
BRANCH   4   5
ATOM      5  C   UNL     1      48.054 -44.686  51.639  0.00  0.00    +0.000 C 
ATOM      6  C   UNL     1      48.036 -43.168  51.432  0.00  0.00    +0.000 C 
BRANCH   6   7
ATOM      7  C   UNL     1      48.017 -41.651  51.226  0.00  0.00    +0.000 C 
ATOM      8  C   UNL     1      47.999 -40.133  51.020  0.00  0.00    +0.000 C 
BRANCH   8   9
ATOM      9  C   UNL     1      47.980 -38.616  50.815  0.00  0.00    +0.000 C 
ATOM     10  C   UNL     1      47.963 -37.098  50.609  0.00  0.00    +0.000 C 
BRANCH  10  11
ATOM     11  O   UNL     1      47.947 -35.782  50.431  0.00  0.00    +0.000 OA
ATOM     12  H   UNL     1      48.726 -35.500  49.923  0.00  0.00    +0.000 HD
ENDBRANCH  10  11
ENDBRANCH   8   9
ENDBRANCH   6   7
ENDBRANCH   4   5
ENDBRANCH   1   3
BRANCH   2  13
ATOM     13  C   UNL     1      48.145 -51.830  52.622  0.00  0.00    +0.000 C 
BRANCH  13  14
ATOM     14  O   UNL     1      48.299 -52.625  51.509  0.00  0.00    +0.000 OA
ATOM     15  H   UNL     1      47.892 -53.499  51.635  0.00  0.00    +0.000 HD
ENDBRANCH  13  14
BRANCH  13  16
ATOM     16  C   UNL     1      48.014 -52.450  53.892  0.00  0.00    +0.000 C 
ATOM     17  C   UNL     1      47.902 -52.974  54.966  0.00  0.00    +0.000 C 
BRANCH  17  18
ATOM     18  C   UNL     1      47.757 -53.643  56.336  0.00  0.00    +0.000 C 
ATOM     19  C   UNL     1      47.644 -54.167  57.410  0.00  0.00    +0.000 C 
BRANCH  19  20
ATOM     20  C   UNL     1      47.511 -54.787  58.680  0.00  0.00    +0.000 C 
BRANCH  20  21
ATOM     21  C   UNL     1      48.299 -55.896  59.095  0.00  0.00    +0.000 C 
ATOM     22  C   UNL     1      49.035 -56.944  59.472  0.00  0.00    +0.000 C 
ENDBRANCH  20  21
BRANCH  20  23
ATOM     23  O   UNL     1      46.567 -54.289  59.557  0.00  0.00    +0.000 OA
ATOM     24  H   UNL     1      46.328 -54.939  60.239  0.00  0.00    +0.000 HD
ENDBRANCH  20  23
ENDBRANCH  19  20
ENDBRANCH  17  18
ENDBRANCH  13  16
ENDBRANCH   2  13
TORSDOF 12
ENDMDL
MODEL 6
REMARK VINA RESULT:      -4.9      3.462     14.475
REMARK  Name = 86311066_OplopantriolA.pdbqt.pdb
REMARK  12 active torsions:
REMARK  status: ('A' for Active; 'I' for Inactive)
REMARK    1  A    between atoms: C_1  and  C_3
REMARK    2  A    between atoms: C_2  and  C_13
REMARK    3  A    between atoms: C_4  and  C_5
REMARK    4  A    between atoms: C_6  and  C_7
REMARK    5  A    between atoms: C_8  and  C_9
REMARK    6  A    between atoms: C_10  and  O_11
REMARK    7  A    between atoms: C_13  and  O_14
REMARK    8  A    between atoms: C_13  and  C_16
REMARK    9  A    between atoms: C_17  and  C_18
REMARK   10  A    between atoms: C_19  and  C_20
REMARK   11  A    between atoms: C_20  and  C_21
REMARK   12  A    between atoms: C_20  and  O_23
REMARK                            x       y       z     vdW  Elec       q    Type
REMARK                         _______ _______ _______ _____ _____    ______ ____
ROOT
ATOM      1  C   UNL     1      46.649 -49.040  53.012  0.00  0.00    +0.000 C 
ATOM      2  C   UNL     1      46.474 -50.191  53.309  0.00  0.00    +0.000 C 
ENDROOT
BRANCH   1   3
ATOM      3  C   UNL     1      46.872 -47.574  52.632  0.00  0.00    +0.000 C 
ATOM      4  C   UNL     1      47.094 -46.107  52.251  0.00  0.00    +0.000 C 
BRANCH   4   5
ATOM      5  C   UNL     1      47.317 -44.641  51.869  0.00  0.00    +0.000 C 
ATOM      6  C   UNL     1      47.538 -43.174  51.488  0.00  0.00    +0.000 C 
BRANCH   6   7
ATOM      7  C   UNL     1      47.760 -41.707  51.106  0.00  0.00    +0.000 C 
ATOM      8  C   UNL     1      47.982 -40.241  50.724  0.00  0.00    +0.000 C 
BRANCH   8   9
ATOM      9  C   UNL     1      48.202 -38.774  50.342  0.00  0.00    +0.000 C 
ATOM     10  C   UNL     1      48.423 -37.307  49.962  0.00  0.00    +0.000 C 
BRANCH  10  11
ATOM     11  O   UNL     1      48.615 -36.035  49.631  0.00  0.00    +0.000 OA
ATOM     12  H   UNL     1      49.521 -35.904  49.303  0.00  0.00    +0.000 HD
ENDBRANCH  10  11
ENDBRANCH   8   9
ENDBRANCH   6   7
ENDBRANCH   4   5
ENDBRANCH   1   3
BRANCH   2  13
ATOM     13  C   UNL     1      46.269 -51.548  53.661  0.00  0.00    +0.000 C 
BRANCH  13  14
ATOM     14  O   UNL     1      45.155 -52.175  53.152  0.00  0.00    +0.000 OA
ATOM     15  H   UNL     1      44.516 -52.393  53.851  0.00  0.00    +0.000 HD
ENDBRANCH  13  14
BRANCH  13  16
ATOM     16  C   UNL     1      47.144 -52.284  54.501  0.00  0.00    +0.000 C 
ATOM     17  C   UNL     1      47.885 -52.906  55.212  0.00  0.00    +0.000 C 
BRANCH  17  18
ATOM     18  C   UNL     1      48.829 -53.697  56.120  0.00  0.00    +0.000 C 
ATOM     19  C   UNL     1      49.570 -54.318  56.833  0.00  0.00    +0.000 C 
BRANCH  19  20
ATOM     20  C   UNL     1      50.445 -55.053  57.675  0.00  0.00    +0.000 C 
BRANCH  20  21
ATOM     21  C   UNL     1      51.559 -55.793  57.189  0.00  0.00    +0.000 C 
ATOM     22  C   UNL     1      52.605 -56.477  56.721  0.00  0.00    +0.000 C 
ENDBRANCH  20  21
BRANCH  20  23
ATOM     23  O   UNL     1      50.202 -55.050  59.034  0.00  0.00    +0.000 OA
ATOM     24  H   UNL     1      50.706 -55.744  59.493  0.00  0.00    +0.000 HD
ENDBRANCH  20  23
ENDBRANCH  19  20
ENDBRANCH  17  18
ENDBRANCH  13  16
ENDBRANCH   2  13
TORSDOF 12
ENDMDL
MODEL 7
REMARK VINA RESULT:      -4.9      2.112      3.608
REMARK  Name = 86311066_OplopantriolA.pdbqt.pdb
REMARK  12 active torsions:
REMARK  status: ('A' for Active; 'I' for Inactive)
REMARK    1  A    between atoms: C_1  and  C_3
REMARK    2  A    between atoms: C_2  and  C_13
REMARK    3  A    between atoms: C_4  and  C_5
REMARK    4  A    between atoms: C_6  and  C_7
REMARK    5  A    between atoms: C_8  and  C_9
REMARK    6  A    between atoms: C_10  and  O_11
REMARK    7  A    between atoms: C_13  and  O_14
REMARK    8  A    between atoms: C_13  and  C_16
REMARK    9  A    between atoms: C_17  and  C_18
REMARK   10  A    between atoms: C_19  and  C_20
REMARK   11  A    between atoms: C_20  and  C_21
REMARK   12  A    between atoms: C_20  and  O_23
REMARK                            x       y       z     vdW  Elec       q    Type
REMARK                         _______ _______ _______ _____ _____    ______ ____
ROOT
ATOM      1  C   UNL     1      48.028 -48.628  51.916  0.00  0.00    +0.000 C 
ATOM      2  C   UNL     1      48.636 -47.794  51.301  0.00  0.00    +0.000 C 
ENDROOT
BRANCH   1   3
ATOM      3  C   UNL     1      47.252 -49.690  52.699  0.00  0.00    +0.000 C 
ATOM      4  C   UNL     1      46.476 -50.754  53.482  0.00  0.00    +0.000 C 
BRANCH   4   5
ATOM      5  C   UNL     1      45.699 -51.818  54.264  0.00  0.00    +0.000 C 
ATOM      6  C   UNL     1      44.924 -52.881  55.047  0.00  0.00    +0.000 C 
BRANCH   6   7
ATOM      7  C   UNL     1      44.148 -53.945  55.830  0.00  0.00    +0.000 C 
ATOM      8  C   UNL     1      43.373 -55.009  56.613  0.00  0.00    +0.000 C 
BRANCH   8   9
ATOM      9  C   UNL     1      42.597 -56.072  57.397  0.00  0.00    +0.000 C 
ATOM     10  C   UNL     1      41.820 -57.134  58.180  0.00  0.00    +0.000 C 
BRANCH  10  11
ATOM     11  O   UNL     1      41.148 -58.055  58.859  0.00  0.00    +0.000 OA
ATOM     12  H   UNL     1      40.201 -58.011  58.642  0.00  0.00    +0.000 HD
ENDBRANCH  10  11
ENDBRANCH   8   9
ENDBRANCH   6   7
ENDBRANCH   4   5
ENDBRANCH   1   3
BRANCH   2  13
ATOM     13  C   UNL     1      49.353 -46.811  50.576  0.00  0.00    +0.000 C 
BRANCH  13  14
ATOM     14  O   UNL     1      50.447 -47.226  49.852  0.00  0.00    +0.000 OA
ATOM     15  H   UNL     1      50.655 -46.608  49.132  0.00  0.00    +0.000 HD
ENDBRANCH  13  14
BRANCH  13  16
ATOM     16  C   UNL     1      49.003 -45.436  50.558  0.00  0.00    +0.000 C 
ATOM     17  C   UNL     1      48.708 -44.272  50.543  0.00  0.00    +0.000 C 
BRANCH  17  18
ATOM     18  C   UNL     1      48.333 -42.788  50.524  0.00  0.00    +0.000 C 
ATOM     19  C   UNL     1      48.040 -41.624  50.510  0.00  0.00    +0.000 C 
BRANCH  19  20
ATOM     20  C   UNL     1      47.694 -40.247  50.493  0.00  0.00    +0.000 C 
BRANCH  20  21
ATOM     21  C   UNL     1      48.634 -39.202  50.715  0.00  0.00    +0.000 C 
ATOM     22  C   UNL     1      49.521 -38.229  50.936  0.00  0.00    +0.000 C 
ENDBRANCH  20  21
BRANCH  20  23
ATOM     23  O   UNL     1      46.379 -39.905  50.250  0.00  0.00    +0.000 OA
ATOM     24  H   UNL     1      46.142 -39.058  50.666  0.00  0.00    +0.000 HD
ENDBRANCH  20  23
ENDBRANCH  19  20
ENDBRANCH  17  18
ENDBRANCH  13  16
ENDBRANCH   2  13
TORSDOF 12
ENDMDL
MODEL 8
REMARK VINA RESULT:      -4.8      7.014     10.104
REMARK  Name = 86311066_OplopantriolA.pdbqt.pdb
REMARK  12 active torsions:
REMARK  status: ('A' for Active; 'I' for Inactive)
REMARK    1  A    between atoms: C_1  and  C_3
REMARK    2  A    between atoms: C_2  and  C_13
REMARK    3  A    between atoms: C_4  and  C_5
REMARK    4  A    between atoms: C_6  and  C_7
REMARK    5  A    between atoms: C_8  and  C_9
REMARK    6  A    between atoms: C_10  and  O_11
REMARK    7  A    between atoms: C_13  and  O_14
REMARK    8  A    between atoms: C_13  and  C_16
REMARK    9  A    between atoms: C_17  and  C_18
REMARK   10  A    between atoms: C_19  and  C_20
REMARK   11  A    between atoms: C_20  and  C_21
REMARK   12  A    between atoms: C_20  and  O_23
REMARK                            x       y       z     vdW  Elec       q    Type
REMARK                         _______ _______ _______ _____ _____    ______ ____
ROOT
ATOM      1  C   UNL     1      49.441 -36.682  47.435  0.00  0.00    +0.000 C 
ATOM      2  C   UNL     1      49.548 -35.568  46.999  0.00  0.00    +0.000 C 
ENDROOT
BRANCH   1   3
ATOM      3  C   UNL     1      49.305 -38.101  47.993  0.00  0.00    +0.000 C 
ATOM      4  C   UNL     1      49.169 -39.521  48.551  0.00  0.00    +0.000 C 
BRANCH   4   5
ATOM      5  C   UNL     1      49.034 -40.941  49.109  0.00  0.00    +0.000 C 
ATOM      6  C   UNL     1      48.901 -42.362  49.666  0.00  0.00    +0.000 C 
BRANCH   6   7
ATOM      7  C   UNL     1      48.768 -43.782  50.222  0.00  0.00    +0.000 C 
ATOM      8  C   UNL     1      48.634 -45.203  50.779  0.00  0.00    +0.000 C 
BRANCH   8   9
ATOM      9  C   UNL     1      48.500 -46.623  51.337  0.00  0.00    +0.000 C 
ATOM     10  C   UNL     1      48.366 -48.043  51.895  0.00  0.00    +0.000 C 
BRANCH  10  11
ATOM     11  O   UNL     1      48.251 -49.274  52.378  0.00  0.00    +0.000 OA
ATOM     12  H   UNL     1      47.786 -49.845  51.742  0.00  0.00    +0.000 HD
ENDBRANCH  10  11
ENDBRANCH   8   9
ENDBRANCH   6   7
ENDBRANCH   4   5
ENDBRANCH   1   3
BRANCH   2  13
ATOM     13  C   UNL     1      49.676 -34.254  46.483  0.00  0.00    +0.000 C 
BRANCH  13  14
ATOM     14  O   UNL     1      48.531 -33.631  46.041  0.00  0.00    +0.000 OA
ATOM     15  H   UNL     1      48.553 -33.482  45.081  0.00  0.00    +0.000 HD
ENDBRANCH  13  14
BRANCH  13  16
ATOM     16  C   UNL     1      50.909 -33.558  46.402  0.00  0.00    +0.000 C 
ATOM     17  C   UNL     1      51.952 -32.968  46.331  0.00  0.00    +0.000 C 
BRANCH  17  18
ATOM     18  C   UNL     1      53.282 -32.216  46.240  0.00  0.00    +0.000 C 
ATOM     19  C   UNL     1      54.326 -31.626  46.168  0.00  0.00    +0.000 C 
BRANCH  19  20
ATOM     20  C   UNL     1      55.559 -30.927  46.083  0.00  0.00    +0.000 C 
BRANCH  20  21
ATOM     21  C   UNL     1      55.900 -30.072  44.997  0.00  0.00    +0.000 C 
ATOM     22  C   UNL     1      56.233 -29.279  43.977  0.00  0.00    +0.000 C 
ENDBRANCH  20  21
BRANCH  20  23
ATOM     23  O   UNL     1      56.473 -31.086  47.104  0.00  0.00    +0.000 OA
ATOM     24  H   UNL     1      56.098 -30.841  47.967  0.00  0.00    +0.000 HD
ENDBRANCH  20  23
ENDBRANCH  19  20
ENDBRANCH  17  18
ENDBRANCH  13  16
ENDBRANCH   2  13
TORSDOF 12
ENDMDL
MODEL 9
REMARK VINA RESULT:      -4.7      6.216      9.152
REMARK  Name = 86311066_OplopantriolA.pdbqt.pdb
REMARK  12 active torsions:
REMARK  status: ('A' for Active; 'I' for Inactive)
REMARK    1  A    between atoms: C_1  and  C_3
REMARK    2  A    between atoms: C_2  and  C_13
REMARK    3  A    between atoms: C_4  and  C_5
REMARK    4  A    between atoms: C_6  and  C_7
REMARK    5  A    between atoms: C_8  and  C_9
REMARK    6  A    between atoms: C_10  and  O_11
REMARK    7  A    between atoms: C_13  and  O_14
REMARK    8  A    between atoms: C_13  and  C_16
REMARK    9  A    between atoms: C_17  and  C_18
REMARK   10  A    between atoms: C_19  and  C_20
REMARK   11  A    between atoms: C_20  and  C_21
REMARK   12  A    between atoms: C_20  and  O_23
REMARK                            x       y       z     vdW  Elec       q    Type
REMARK                         _______ _______ _______ _____ _____    ______ ____
ROOT
ATOM      1  C   UNL     1      50.411 -47.610  50.336  0.00  0.00    +0.000 C 
ATOM      2  C   UNL     1      51.207 -46.920  49.758  0.00  0.00    +0.000 C 
ENDROOT
BRANCH   1   3
ATOM      3  C   UNL     1      49.398 -48.491  51.071  0.00  0.00    +0.000 C 
ATOM      4  C   UNL     1      48.384 -49.372  51.808  0.00  0.00    +0.000 C 
BRANCH   4   5
ATOM      5  C   UNL     1      47.371 -50.254  52.544  0.00  0.00    +0.000 C 
ATOM      6  C   UNL     1      46.358 -51.135  53.282  0.00  0.00    +0.000 C 
BRANCH   6   7
ATOM      7  C   UNL     1      45.345 -52.016  54.019  0.00  0.00    +0.000 C 
ATOM      8  C   UNL     1      44.333 -52.897  54.756  0.00  0.00    +0.000 C 
BRANCH   8   9
ATOM      9  C   UNL     1      43.319 -53.777  55.494  0.00  0.00    +0.000 C 
ATOM     10  C   UNL     1      42.307 -54.658  56.233  0.00  0.00    +0.000 C 
BRANCH  10  11
ATOM     11  O   UNL     1      41.429 -55.421  56.873  0.00  0.00    +0.000 OA
ATOM     12  H   UNL     1      41.435 -56.322  56.509  0.00  0.00    +0.000 HD
ENDBRANCH  10  11
ENDBRANCH   8   9
ENDBRANCH   6   7
ENDBRANCH   4   5
ENDBRANCH   1   3
BRANCH   2  13
ATOM     13  C   UNL     1      52.143 -46.105  49.077  0.00  0.00    +0.000 C 
BRANCH  13  14
ATOM     14  O   UNL     1      52.140 -44.758  49.361  0.00  0.00    +0.000 OA
ATOM     15  H   UNL     1      52.451 -44.582  50.265  0.00  0.00    +0.000 HD
ENDBRANCH  13  14
BRANCH  13  16
ATOM     16  C   UNL     1      53.074 -46.600  48.128  0.00  0.00    +0.000 C 
ATOM     17  C   UNL     1      53.862 -47.019  47.325  0.00  0.00    +0.000 C 
BRANCH  17  18
ATOM     18  C   UNL     1      54.869 -47.552  46.302  0.00  0.00    +0.000 C 
ATOM     19  C   UNL     1      55.659 -47.970  45.500  0.00  0.00    +0.000 C 
BRANCH  19  20
ATOM     20  C   UNL     1      56.593 -48.464  44.551  0.00  0.00    +0.000 C 
BRANCH  20  21
ATOM     21  C   UNL     1      57.866 -47.869  44.325  0.00  0.00    +0.000 C 
ATOM     22  C   UNL     1      59.054 -47.305  44.099  0.00  0.00    +0.000 C 
ENDBRANCH  20  21
BRANCH  20  23
ATOM     23  O   UNL     1      56.248 -49.576  43.811  0.00  0.00    +0.000 OA
ATOM     24  H   UNL     1      55.284 -49.698  43.768  0.00  0.00    +0.000 HD
ENDBRANCH  20  23
ENDBRANCH  19  20
ENDBRANCH  17  18
ENDBRANCH  13  16
ENDBRANCH   2  13
TORSDOF 12
ENDMDL
