MODEL 1
REMARK VINA RESULT:      -9.3      0.000      0.000
REMARK  Name = 91746246_sitosterol.pdbqt.pdb
REMARK  10 active torsions:
REMARK  status: ('A' for Active; 'I' for Inactive)
REMARK    1  A    between atoms: C_5  and  C_20
REMARK    2  A    between atoms: C_19  and  O_30
REMARK    3  A    between atoms: C_20  and  C_22
REMARK    4  A    between atoms: C_23  and  C_24
REMARK    5  A    between atoms: C_24  and  C_28
REMARK    6  A    between atoms: O_30  and  C_32
REMARK    7  A    between atoms: C_32  and  C_33
REMARK    8  A    between atoms: C_34  and  C_35
REMARK    9  A    between atoms: C_38  and  O_41
REMARK   10  A    between atoms: C_40  and  O_43
REMARK                            x       y       z     vdW  Elec       q    Type
REMARK                         _______ _______ _______ _____ _____    ______ ____
ROOT
ATOM      1  C   UNL     1      47.340 -48.166  51.268  0.00  0.00    +0.000 C 
ATOM      2  C   UNL     1      47.398 -46.589  51.638  0.00  0.00    +0.000 C 
ATOM      3  C   UNL     1      48.263 -45.640  50.910  0.00  0.00    +0.000 C 
ATOM      4  C   UNL     1      48.985 -45.914  49.614  0.00  0.00    +0.000 C 
ATOM      5  C   UNL     1      45.849 -48.477  51.322  0.00  0.00    +0.000 C 
ATOM      6  C   UNL     1      47.942 -48.255  49.939  0.00  0.00    +0.000 C 
ATOM      7  C   UNL     1      49.926 -44.895  48.920  0.00  0.00    +0.000 C 
ATOM      8  C   UNL     1      46.083 -46.199  52.043  0.00  0.00    +0.000 C 
ATOM      9  C   UNL     1      48.734 -47.236  49.158  0.00  0.00    +0.000 C 
ATOM     10  C   UNL     1      45.136 -47.348  51.821  0.00  0.00    +0.000 C 
ATOM     11  C   UNL     1      48.365 -44.286  51.314  0.00  0.00    +0.000 C 
ATOM     12  C   UNL     1      48.112 -48.921  52.382  0.00  0.00    +0.000 C 
ATOM     13  C   UNL     1      49.735 -43.341  49.443  0.00  0.00    +0.000 C 
ATOM     14  C   UNL     1      49.624 -44.816  47.461  0.00  0.00    +0.000 C 
ATOM     15  C   UNL     1      49.091 -43.211  50.563  0.00  0.00    +0.000 C 
ATOM     16  C   UNL     1      51.406 -45.294  49.192  0.00  0.00    +0.000 C 
ATOM     17  C   UNL     1      49.480 -42.366  48.406  0.00  0.00    +0.000 C 
ATOM     18  C   UNL     1      49.309 -43.658  46.498  0.00  0.00    +0.000 C 
ATOM     19  C   UNL     1      49.237 -42.310  46.989  0.00  0.00    +0.000 C 
ENDROOT
BRANCH   5  20
ATOM     20  C   UNL     1      45.294 -49.781  51.150  0.00  0.00    +0.000 C 
ATOM     21  C   UNL     1      44.560 -50.184  49.899  0.00  0.00    +0.000 C 
BRANCH  20  22
ATOM     22  C   UNL     1      45.187 -50.682  52.246  0.00  0.00    +0.000 C 
ATOM     23  C   UNL     1      45.069 -51.655  53.429  0.00  0.00    +0.000 C 
BRANCH  23  24
ATOM     24  C   UNL     1      44.952 -52.546  54.538  0.00  0.00    +0.000 C 
ATOM     25  C   UNL     1      46.092 -52.855  55.375  0.00  0.00    +0.000 C 
ATOM     26  C   UNL     1      46.033 -53.823  56.537  0.00  0.00    +0.000 C 
ATOM     27  C   UNL     1      47.455 -52.229  55.164  0.00  0.00    +0.000 C 
BRANCH  24  28
ATOM     28  C   UNL     1      43.695 -53.142  54.826  0.00  0.00    +0.000 C 
ATOM     29  C   UNL     1      42.308 -53.732  55.103  0.00  0.00    +0.000 C 
ENDBRANCH  24  28
ENDBRANCH  23  24
ENDBRANCH  20  22
ENDBRANCH   5  20
BRANCH  19  30
ATOM     30  O   UNL     1      49.791 -41.259  46.264  0.00  0.00    +0.000 OA
BRANCH  30  32
ATOM     31  O   UNL     1      48.237 -39.808  45.322  0.00  0.00    +0.000 OA
ATOM     32  C   UNL     1      48.961 -40.176  46.235  0.00  0.00    +0.000 C 
BRANCH  32  33
ATOM     33  C   UNL     1      48.985 -39.458  47.485  0.00  0.00    +0.000 C 
ATOM     34  C   UNL     1      49.014 -38.845  48.518  0.00  0.00    +0.000 C 
BRANCH  34  35
ATOM     35  C   UNL     1      49.058 -38.104  49.735  0.00  0.00    +0.000 A 
ATOM     36  C   UNL     1      48.139 -37.078  49.954  0.00  0.00    +0.000 A 
ATOM     37  C   UNL     1      50.019 -38.398  50.699  0.00  0.00    +0.000 A 
ATOM     38  C   UNL     1      48.169 -36.336  51.138  0.00  0.00    +0.000 A 
ATOM     39  C   UNL     1      50.060 -37.667  51.883  0.00  0.00    +0.000 A 
ATOM     40  C   UNL     1      49.139 -36.642  52.095  0.00  0.00    +0.000 A 
BRANCH  38  41
ATOM     41  O   UNL     1      47.303 -35.310  51.431  0.00  0.00    +0.000 OA
ATOM     42  C   UNL     1      45.961 -35.683  51.607  0.00  0.00    +0.000 C 
ENDBRANCH  38  41
BRANCH  40  43
ATOM     43  O   UNL     1      49.186 -35.925  53.260  0.00  0.00    +0.000 OA
ATOM     44  H   UNL     1      49.954 -35.325  53.227  0.00  0.00    +0.000 HD
ENDBRANCH  40  43
ENDBRANCH  34  35
ENDBRANCH  32  33
ENDBRANCH  30  32
ENDBRANCH  19  30
TORSDOF 10
ENDMDL
MODEL 2
REMARK VINA RESULT:      -9.0      2.711      5.506
REMARK  Name = 91746246_sitosterol.pdbqt.pdb
REMARK  10 active torsions:
REMARK  status: ('A' for Active; 'I' for Inactive)
REMARK    1  A    between atoms: C_5  and  C_20
REMARK    2  A    between atoms: C_19  and  O_30
REMARK    3  A    between atoms: C_20  and  C_22
REMARK    4  A    between atoms: C_23  and  C_24
REMARK    5  A    between atoms: C_24  and  C_28
REMARK    6  A    between atoms: O_30  and  C_32
REMARK    7  A    between atoms: C_32  and  C_33
REMARK    8  A    between atoms: C_34  and  C_35
REMARK    9  A    between atoms: C_38  and  O_41
REMARK   10  A    between atoms: C_40  and  O_43
REMARK                            x       y       z     vdW  Elec       q    Type
REMARK                         _______ _______ _______ _____ _____    ______ ____
ROOT
ATOM      1  C   UNL     1      45.279 -52.848  53.418  0.00  0.00    +0.000 C 
ATOM      2  C   UNL     1      46.705 -52.079  53.459  0.00  0.00    +0.000 C 
ATOM      3  C   UNL     1      46.999 -50.916  52.598  0.00  0.00    +0.000 C 
ATOM      4  C   UNL     1      45.994 -50.139  51.785  0.00  0.00    +0.000 C 
ATOM      5  C   UNL     1      44.968 -53.074  54.892  0.00  0.00    +0.000 C 
ATOM      6  C   UNL     1      44.381 -51.921  52.731  0.00  0.00    +0.000 C 
ATOM      7  C   UNL     1      46.369 -48.957  50.854  0.00  0.00    +0.000 C 
ATOM      8  C   UNL     1      47.163 -52.104  54.814  0.00  0.00    +0.000 C 
ATOM      9  C   UNL     1      44.687 -50.672  51.943  0.00  0.00    +0.000 C 
ATOM     10  C   UNL     1      46.086 -52.688  55.688  0.00  0.00    +0.000 C 
ATOM     11  C   UNL     1      48.285 -50.321  52.587  0.00  0.00    +0.000 C 
ATOM     12  C   UNL     1      45.512 -54.193  52.680  0.00  0.00    +0.000 C 
ATOM     13  C   UNL     1      47.859 -48.314  51.152  0.00  0.00    +0.000 C 
ATOM     14  C   UNL     1      45.440 -47.809  51.069  0.00  0.00    +0.000 C 
ATOM     15  C   UNL     1      48.647 -49.055  51.869  0.00  0.00    +0.000 C 
ATOM     16  C   UNL     1      46.365 -49.445  49.375  0.00  0.00    +0.000 C 
ATOM     17  C   UNL     1      47.882 -46.888  51.389  0.00  0.00    +0.000 C 
ATOM     18  C   UNL     1      45.643 -46.316  51.380  0.00  0.00    +0.000 C 
ATOM     19  C   UNL     1      46.968 -45.787  51.546  0.00  0.00    +0.000 C 
ENDROOT
BRANCH   5  20
ATOM     20  C   UNL     1      43.838 -53.803  55.372  0.00  0.00    +0.000 C 
ATOM     21  C   UNL     1      42.455 -53.601  54.814  0.00  0.00    +0.000 C 
BRANCH  20  22
ATOM     22  C   UNL     1      43.916 -54.571  56.567  0.00  0.00    +0.000 C 
ATOM     23  C   UNL     1      43.997 -55.402  57.857  0.00  0.00    +0.000 C 
BRANCH  23  24
ATOM     24  C   UNL     1      44.057 -56.167  59.061  0.00  0.00    +0.000 C 
ATOM     25  C   UNL     1      45.322 -56.458  59.702  0.00  0.00    +0.000 C 
ATOM     26  C   UNL     1      45.447 -57.297  60.954  0.00  0.00    +0.000 C 
ATOM     27  C   UNL     1      46.645 -55.941  59.173  0.00  0.00    +0.000 C 
BRANCH  24  28
ATOM     28  C   UNL     1      42.855 -56.652  59.641  0.00  0.00    +0.000 C 
ATOM     29  C   UNL     1      41.587 -57.168  60.331  0.00  0.00    +0.000 C 
ENDBRANCH  24  28
ENDBRANCH  23  24
ENDBRANCH  20  22
ENDBRANCH   5  20
BRANCH  19  30
ATOM     30  O   UNL     1      47.316 -44.555  51.001  0.00  0.00    +0.000 OA
BRANCH  30  32
ATOM     31  O   UNL     1      48.037 -43.941  53.124  0.00  0.00    +0.000 OA
ATOM     32  C   UNL     1      47.789 -43.699  51.953  0.00  0.00    +0.000 C 
BRANCH  32  33
ATOM     33  C   UNL     1      48.022 -42.383  51.411  0.00  0.00    +0.000 C 
ATOM     34  C   UNL     1      48.221 -41.294  50.944  0.00  0.00    +0.000 C 
BRANCH  34  35
ATOM     35  C   UNL     1      48.465 -40.010  50.373  0.00  0.00    +0.000 A 
ATOM     36  C   UNL     1      48.000 -38.866  51.020  0.00  0.00    +0.000 A 
ATOM     37  C   UNL     1      49.158 -39.901  49.170  0.00  0.00    +0.000 A 
ATOM     38  C   UNL     1      48.224 -37.599  50.474  0.00  0.00    +0.000 A 
ATOM     39  C   UNL     1      49.387 -38.644  48.614  0.00  0.00    +0.000 A 
ATOM     40  C   UNL     1      48.920 -37.504  49.266  0.00  0.00    +0.000 A 
BRANCH  38  41
ATOM     41  O   UNL     1      47.799 -36.424  51.045  0.00  0.00    +0.000 OA
ATOM     42  C   UNL     1      46.408 -36.283  51.177  0.00  0.00    +0.000 C 
ENDBRANCH  38  41
BRANCH  40  43
ATOM     43  O   UNL     1      49.146 -36.273  48.714  0.00  0.00    +0.000 OA
ATOM     44  H   UNL     1      50.105 -36.091  48.740  0.00  0.00    +0.000 HD
ENDBRANCH  40  43
ENDBRANCH  34  35
ENDBRANCH  32  33
ENDBRANCH  30  32
ENDBRANCH  19  30
TORSDOF 10
ENDMDL
MODEL 3
REMARK VINA RESULT:      -9.0     10.148     19.764
REMARK  Name = 91746246_sitosterol.pdbqt.pdb
REMARK  10 active torsions:
REMARK  status: ('A' for Active; 'I' for Inactive)
REMARK    1  A    between atoms: C_5  and  C_20
REMARK    2  A    between atoms: C_19  and  O_30
REMARK    3  A    between atoms: C_20  and  C_22
REMARK    4  A    between atoms: C_23  and  C_24
REMARK    5  A    between atoms: C_24  and  C_28
REMARK    6  A    between atoms: O_30  and  C_32
REMARK    7  A    between atoms: C_32  and  C_33
REMARK    8  A    between atoms: C_34  and  C_35
REMARK    9  A    between atoms: C_38  and  O_41
REMARK   10  A    between atoms: C_40  and  O_43
REMARK                            x       y       z     vdW  Elec       q    Type
REMARK                         _______ _______ _______ _____ _____    ______ ____
ROOT
ATOM      1  C   UNL     1      51.078 -25.592  48.964  0.00  0.00    +0.000 C 
ATOM      2  C   UNL     1      49.927 -26.226  48.016  0.00  0.00    +0.000 C 
ATOM      3  C   UNL     1      50.185 -27.371  47.120  0.00  0.00    +0.000 C 
ATOM      4  C   UNL     1      51.410 -28.252  47.139  0.00  0.00    +0.000 C 
ATOM      5  C   UNL     1      50.351 -25.370  50.285  0.00  0.00    +0.000 C 
ATOM      6  C   UNL     1      52.127 -26.609  49.000  0.00  0.00    +0.000 C 
ATOM      7  C   UNL     1      51.653 -29.410  46.137  0.00  0.00    +0.000 C 
ATOM      8  C   UNL     1      48.690 -26.134  48.728  0.00  0.00    +0.000 C 
ATOM      9  C   UNL     1      52.321 -27.839  48.147  0.00  0.00    +0.000 C 
ATOM     10  C   UNL     1      48.960 -25.638  50.123  0.00  0.00    +0.000 C 
ATOM     11  C   UNL     1      49.187 -27.845  46.233  0.00  0.00    +0.000 C 
ATOM     12  C   UNL     1      51.502 -24.244  48.323  0.00  0.00    +0.000 C 
ATOM     13  C   UNL     1      50.293 -29.908  45.344  0.00  0.00    +0.000 C 
ATOM     14  C   UNL     1      52.109 -30.635  46.857  0.00  0.00    +0.000 C 
ATOM     15  C   UNL     1      49.291 -29.084  45.396  0.00  0.00    +0.000 C 
ATOM     16  C   UNL     1      52.675 -28.950  45.056  0.00  0.00    +0.000 C 
ATOM     17  C   UNL     1      50.005 -31.321  45.437  0.00  0.00    +0.000 C 
ATOM     18  C   UNL     1      51.632 -32.097  46.883  0.00  0.00    +0.000 C 
ATOM     19  C   UNL     1      50.492 -32.498  46.107  0.00  0.00    +0.000 C 
ENDROOT
BRANCH   5  20
ATOM     20  C   UNL     1      50.933 -24.740  51.426  0.00  0.00    +0.000 C 
ATOM     21  C   UNL     1      51.183 -25.479  52.713  0.00  0.00    +0.000 C 
BRANCH  20  22
ATOM     22  C   UNL     1      51.075 -23.326  51.489  0.00  0.00    +0.000 C 
ATOM     23  C   UNL     1      51.231 -21.799  51.558  0.00  0.00    +0.000 C 
BRANCH  23  24
ATOM     24  C   UNL     1      51.386 -20.382  51.636  0.00  0.00    +0.000 C 
ATOM     25  C   UNL     1      51.405 -19.699  52.912  0.00  0.00    +0.000 C 
ATOM     26  C   UNL     1      51.525 -18.197  53.050  0.00  0.00    +0.000 C 
ATOM     27  C   UNL     1      51.309 -20.433  54.234  0.00  0.00    +0.000 C 
BRANCH  24  28
ATOM     28  C   UNL     1      51.523 -19.627  50.440  0.00  0.00    +0.000 C 
ATOM     29  C   UNL     1      51.661 -18.754  49.187  0.00  0.00    +0.000 C 
ENDBRANCH  24  28
ENDBRANCH  23  24
ENDBRANCH  20  22
ENDBRANCH   5  20
BRANCH  19  30
ATOM     30  O   UNL     1      50.496 -33.702  45.409  0.00  0.00    +0.000 OA
BRANCH  30  32
ATOM     31  O   UNL     1      48.311 -34.198  44.784  0.00  0.00    +0.000 OA
ATOM     32  C   UNL     1      49.292 -34.340  45.499  0.00  0.00    +0.000 C 
BRANCH  32  33
ATOM     33  C   UNL     1      49.280 -35.296  46.578  0.00  0.00    +0.000 C 
ATOM     34  C   UNL     1      49.252 -36.098  47.473  0.00  0.00    +0.000 C 
BRANCH  34  35
ATOM     35  C   UNL     1      49.201 -37.053  48.531  0.00  0.00    +0.000 A 
ATOM     36  C   UNL     1      48.558 -36.729  49.724  0.00  0.00    +0.000 A 
ATOM     37  C   UNL     1      49.796 -38.302  48.373  0.00  0.00    +0.000 A 
ATOM     38  C   UNL     1      48.501 -37.649  50.775  0.00  0.00    +0.000 A 
ATOM     39  C   UNL     1      49.748 -39.228  49.412  0.00  0.00    +0.000 A 
ATOM     40  C   UNL     1      49.104 -38.898  50.604  0.00  0.00    +0.000 A 
BRANCH  38  41
ATOM     41  O   UNL     1      47.891 -37.410  51.982  0.00  0.00    +0.000 OA
ATOM     42  C   UNL     1      47.187 -36.199  52.074  0.00  0.00    +0.000 C 
ENDBRANCH  38  41
BRANCH  40  43
ATOM     43  O   UNL     1      49.062 -39.812  51.621  0.00  0.00    +0.000 OA
ATOM     44  H   UNL     1      49.858 -39.701  52.174  0.00  0.00    +0.000 HD
ENDBRANCH  40  43
ENDBRANCH  34  35
ENDBRANCH  32  33
ENDBRANCH  30  32
ENDBRANCH  19  30
TORSDOF 10
ENDMDL
MODEL 4
REMARK VINA RESULT:      -8.7      2.394      5.724
REMARK  Name = 91746246_sitosterol.pdbqt.pdb
REMARK  10 active torsions:
REMARK  status: ('A' for Active; 'I' for Inactive)
REMARK    1  A    between atoms: C_5  and  C_20
REMARK    2  A    between atoms: C_19  and  O_30
REMARK    3  A    between atoms: C_20  and  C_22
REMARK    4  A    between atoms: C_23  and  C_24
REMARK    5  A    between atoms: C_24  and  C_28
REMARK    6  A    between atoms: O_30  and  C_32
REMARK    7  A    between atoms: C_32  and  C_33
REMARK    8  A    between atoms: C_34  and  C_35
REMARK    9  A    between atoms: C_38  and  O_41
REMARK   10  A    between atoms: C_40  and  O_43
REMARK                            x       y       z     vdW  Elec       q    Type
REMARK                         _______ _______ _______ _____ _____    ______ ____
ROOT
ATOM      1  C   UNL     1      47.169 -52.751  54.522  0.00  0.00    +0.000 C 
ATOM      2  C   UNL     1      47.847 -52.459  53.079  0.00  0.00    +0.000 C 
ATOM      3  C   UNL     1      47.475 -51.292  52.255  0.00  0.00    +0.000 C 
ATOM      4  C   UNL     1      46.653 -50.112  52.710  0.00  0.00    +0.000 C 
ATOM      5  C   UNL     1      48.359 -53.154  55.385  0.00  0.00    +0.000 C 
ATOM      6  C   UNL     1      46.536 -51.487  54.894  0.00  0.00    +0.000 C 
ATOM      7  C   UNL     1      46.246 -48.937  51.783  0.00  0.00    +0.000 C 
ATOM      8  C   UNL     1      49.212 -52.878  53.158  0.00  0.00    +0.000 C 
ATOM      9  C   UNL     1      46.258 -50.256  54.067  0.00  0.00    +0.000 C 
ATOM     10  C   UNL     1      49.526 -53.275  54.575  0.00  0.00    +0.000 C 
ATOM     11  C   UNL     1      48.014 -51.112  50.957  0.00  0.00    +0.000 C 
ATOM     12  C   UNL     1      46.187 -53.937  54.330  0.00  0.00    +0.000 C 
ATOM     13  C   UNL     1      47.142 -48.832  50.400  0.00  0.00    +0.000 C 
ATOM     14  C   UNL     1      46.489 -47.630  52.461  0.00  0.00    +0.000 C 
ATOM     15  C   UNL     1      47.822 -49.896  50.101  0.00  0.00    +0.000 C 
ATOM     16  C   UNL     1      44.759 -49.109  51.356  0.00  0.00    +0.000 C 
ATOM     17  C   UNL     1      47.765 -47.549  50.163  0.00  0.00    +0.000 C 
ATOM     18  C   UNL     1      47.252 -46.353  52.072  0.00  0.00    +0.000 C 
ATOM     19  C   UNL     1      47.946 -46.280  50.817  0.00  0.00    +0.000 C 
ENDROOT
BRANCH   5  20
ATOM     20  C   UNL     1      48.256 -53.595  56.739  0.00  0.00    +0.000 C 
ATOM     21  C   UNL     1      49.450 -53.677  57.651  0.00  0.00    +0.000 C 
BRANCH  20  22
ATOM     22  C   UNL     1      47.070 -54.217  57.218  0.00  0.00    +0.000 C 
ATOM     23  C   UNL     1      45.788 -54.886  57.738  0.00  0.00    +0.000 C 
BRANCH  23  24
ATOM     24  C   UNL     1      44.605 -55.510  58.238  0.00  0.00    +0.000 C 
ATOM     25  C   UNL     1      43.355 -55.436  57.511  0.00  0.00    +0.000 C 
ATOM     26  C   UNL     1      42.063 -56.042  58.014  0.00  0.00    +0.000 C 
ATOM     27  C   UNL     1      43.228 -54.742  56.171  0.00  0.00    +0.000 C 
BRANCH  24  28
ATOM     28  C   UNL     1      44.653 -56.215  59.470  0.00  0.00    +0.000 C 
ATOM     29  C   UNL     1      44.667 -57.026  60.771  0.00  0.00    +0.000 C 
ENDBRANCH  24  28
ENDBRANCH  23  24
ENDBRANCH  20  22
ENDBRANCH   5  20
BRANCH  19  30
ATOM     30  O   UNL     1      47.898 -45.124  50.043  0.00  0.00    +0.000 OA
BRANCH  30  32
ATOM     31  O   UNL     1      50.196 -45.224  49.703  0.00  0.00    +0.000 OA
ATOM     32  C   UNL     1      49.144 -44.613  49.823  0.00  0.00    +0.000 C 
BRANCH  32  33
ATOM     33  C   UNL     1      49.113 -43.177  49.702  0.00  0.00    +0.000 C 
ATOM     34  C   UNL     1      49.103 -41.980  49.590  0.00  0.00    +0.000 C 
BRANCH  34  35
ATOM     35  C   UNL     1      49.105 -40.562  49.446  0.00  0.00    +0.000 A 
ATOM     36  C   UNL     1      48.337 -39.778  50.304  0.00  0.00    +0.000 A 
ATOM     37  C   UNL     1      49.868 -39.963  48.446  0.00  0.00    +0.000 A 
ATOM     38  C   UNL     1      48.322 -38.386  50.176  0.00  0.00    +0.000 A 
ATOM     39  C   UNL     1      49.862 -38.577  48.306  0.00  0.00    +0.000 A 
ATOM     40  C   UNL     1      49.091 -37.799  49.168  0.00  0.00    +0.000 A 
BRANCH  38  41
ATOM     41  O   UNL     1      47.592 -37.542  50.977  0.00  0.00    +0.000 OA
ATOM     42  C   UNL     1      48.236 -37.114  52.150  0.00  0.00    +0.000 C 
ENDBRANCH  38  41
BRANCH  40  43
ATOM     43  O   UNL     1      49.088 -36.438  49.024  0.00  0.00    +0.000 OA
ATOM     44  H   UNL     1      48.297 -36.079  49.469  0.00  0.00    +0.000 HD
ENDBRANCH  40  43
ENDBRANCH  34  35
ENDBRANCH  32  33
ENDBRANCH  30  32
ENDBRANCH  19  30
TORSDOF 10
ENDMDL
MODEL 5
REMARK VINA RESULT:      -8.5      2.795      6.087
REMARK  Name = 91746246_sitosterol.pdbqt.pdb
REMARK  10 active torsions:
REMARK  status: ('A' for Active; 'I' for Inactive)
REMARK    1  A    between atoms: C_5  and  C_20
REMARK    2  A    between atoms: C_19  and  O_30
REMARK    3  A    between atoms: C_20  and  C_22
REMARK    4  A    between atoms: C_23  and  C_24
REMARK    5  A    between atoms: C_24  and  C_28
REMARK    6  A    between atoms: O_30  and  C_32
REMARK    7  A    between atoms: C_32  and  C_33
REMARK    8  A    between atoms: C_34  and  C_35
REMARK    9  A    between atoms: C_38  and  O_41
REMARK   10  A    between atoms: C_40  and  O_43
REMARK                            x       y       z     vdW  Elec       q    Type
REMARK                         _______ _______ _______ _____ _____    ______ ____
ROOT
ATOM      1  C   UNL     1      45.283 -52.881  53.499  0.00  0.00    +0.000 C 
ATOM      2  C   UNL     1      46.622 -51.973  53.588  0.00  0.00    +0.000 C 
ATOM      3  C   UNL     1      46.816 -50.769  52.755  0.00  0.00    +0.000 C 
ATOM      4  C   UNL     1      45.754 -50.079  51.935  0.00  0.00    +0.000 C 
ATOM      5  C   UNL     1      44.965 -53.168  54.962  0.00  0.00    +0.000 C 
ATOM      6  C   UNL     1      44.310 -52.035  52.810  0.00  0.00    +0.000 C 
ATOM      7  C   UNL     1      46.027 -48.846  51.035  0.00  0.00    +0.000 C 
ATOM      8  C   UNL     1      47.052 -51.981  54.952  0.00  0.00    +0.000 C 
ATOM      9  C   UNL     1      44.504 -50.744  52.052  0.00  0.00    +0.000 C 
ATOM     10  C   UNL     1      46.022 -52.688  55.790  0.00  0.00    +0.000 C 
ATOM     11  C   UNL     1      48.035 -50.048  52.785  0.00  0.00    +0.000 C 
ATOM     12  C   UNL     1      45.665 -54.180  52.742  0.00  0.00    +0.000 C 
ATOM     13  C   UNL     1      47.439 -48.063  51.379  0.00  0.00    +0.000 C 
ATOM     14  C   UNL     1      44.983 -47.802  51.251  0.00  0.00    +0.000 C 
ATOM     15  C   UNL     1      48.282 -48.737  52.100  0.00  0.00    +0.000 C 
ATOM     16  C   UNL     1      46.103 -49.301  49.548  0.00  0.00    +0.000 C 
ATOM     17  C   UNL     1      47.313 -46.647  51.644  0.00  0.00    +0.000 C 
ATOM     18  C   UNL     1      45.028 -46.304  51.594  0.00  0.00    +0.000 C 
ATOM     19  C   UNL     1      46.289 -45.648  51.801  0.00  0.00    +0.000 C 
ENDROOT
BRANCH   5  20
ATOM     20  C   UNL     1      43.905 -54.016  55.402  0.00  0.00    +0.000 C 
ATOM     21  C   UNL     1      42.526 -53.959  54.801  0.00  0.00    +0.000 C 
BRANCH  20  22
ATOM     22  C   UNL     1      44.026 -54.782  56.595  0.00  0.00    +0.000 C 
ATOM     23  C   UNL     1      44.156 -55.606  57.885  0.00  0.00    +0.000 C 
BRANCH  23  24
ATOM     24  C   UNL     1      44.285 -56.359  59.091  0.00  0.00    +0.000 C 
ATOM     25  C   UNL     1      43.120 -56.857  59.791  0.00  0.00    +0.000 C 
ATOM     26  C   UNL     1      43.197 -57.624  61.094  0.00  0.00    +0.000 C 
ATOM     27  C   UNL     1      41.709 -56.659  59.277  0.00  0.00    +0.000 C 
BRANCH  24  28
ATOM     28  C   UNL     1      45.578 -56.622  59.616  0.00  0.00    +0.000 C 
ATOM     29  C   UNL     1      46.969 -56.848  60.219  0.00  0.00    +0.000 C 
ENDBRANCH  24  28
ENDBRANCH  23  24
ENDBRANCH  20  22
ENDBRANCH   5  20
BRANCH  19  30
ATOM     30  O   UNL     1      46.522 -44.376  51.287  0.00  0.00    +0.000 OA
BRANCH  30  32
ATOM     31  O   UNL     1      47.968 -44.007  53.071  0.00  0.00    +0.000 OA
ATOM     32  C   UNL     1      47.511 -43.730  51.972  0.00  0.00    +0.000 C 
BRANCH  32  33
ATOM     33  C   UNL     1      48.038 -42.620  51.217  0.00  0.00    +0.000 C 
ATOM     34  C   UNL     1      48.485 -41.688  50.605  0.00  0.00    +0.000 C 
BRANCH  34  35
ATOM     35  C   UNL     1      49.022 -40.574  49.894  0.00  0.00    +0.000 A 
ATOM     36  C   UNL     1      49.324 -40.699  48.539  0.00  0.00    +0.000 A 
ATOM     37  C   UNL     1      49.249 -39.369  50.553  0.00  0.00    +0.000 A 
ATOM     38  C   UNL     1      49.856 -39.621  47.826  0.00  0.00    +0.000 A 
ATOM     39  C   UNL     1      49.780 -38.287  49.855  0.00  0.00    +0.000 A 
ATOM     40  C   UNL     1      50.080 -38.418  48.500  0.00  0.00    +0.000 A 
BRANCH  38  41
ATOM     41  O   UNL     1      50.182 -39.660  46.493  0.00  0.00    +0.000 OA
ATOM     42  C   UNL     1      49.543 -40.660  45.742  0.00  0.00    +0.000 C 
ENDBRANCH  38  41
BRANCH  40  43
ATOM     43  O   UNL     1      50.603 -37.352  47.821  0.00  0.00    +0.000 OA
ATOM     44  H   UNL     1      50.458 -36.544  48.348  0.00  0.00    +0.000 HD
ENDBRANCH  40  43
ENDBRANCH  34  35
ENDBRANCH  32  33
ENDBRANCH  30  32
ENDBRANCH  19  30
TORSDOF 10
ENDMDL
MODEL 6
REMARK VINA RESULT:      -8.2      6.768      9.031
REMARK  Name = 91746246_sitosterol.pdbqt.pdb
REMARK  10 active torsions:
REMARK  status: ('A' for Active; 'I' for Inactive)
REMARK    1  A    between atoms: C_5  and  C_20
REMARK    2  A    between atoms: C_19  and  O_30
REMARK    3  A    between atoms: C_20  and  C_22
REMARK    4  A    between atoms: C_23  and  C_24
REMARK    5  A    between atoms: C_24  and  C_28
REMARK    6  A    between atoms: O_30  and  C_32
REMARK    7  A    between atoms: C_32  and  C_33
REMARK    8  A    between atoms: C_34  and  C_35
REMARK    9  A    between atoms: C_38  and  O_41
REMARK   10  A    between atoms: C_40  and  O_43
REMARK                            x       y       z     vdW  Elec       q    Type
REMARK                         _______ _______ _______ _____ _____    ______ ____
ROOT
ATOM      1  C   UNL     1      46.126 -51.575  52.605  0.00  0.00    +0.000 C 
ATOM      2  C   UNL     1      46.010 -50.019  52.169  0.00  0.00    +0.000 C 
ATOM      3  C   UNL     1      44.830 -49.485  51.459  0.00  0.00    +0.000 C 
ATOM      4  C   UNL     1      43.511 -50.194  51.275  0.00  0.00    +0.000 C 
ATOM      5  C   UNL     1      46.689 -51.494  54.019  0.00  0.00    +0.000 C 
ATOM      6  C   UNL     1      44.760 -52.087  52.512  0.00  0.00    +0.000 C 
ATOM      7  C   UNL     1      42.322 -49.605  50.471  0.00  0.00    +0.000 C 
ATOM      8  C   UNL     1      46.649 -49.243  53.186  0.00  0.00    +0.000 C 
ATOM      9  C   UNL     1      43.533 -51.480  51.877  0.00  0.00    +0.000 C 
ATOM     10  C   UNL     1      47.037 -50.146  54.326  0.00  0.00    +0.000 C 
ATOM     11  C   UNL     1      44.794 -48.142  51.007  0.00  0.00    +0.000 C 
ATOM     12  C   UNL     1      47.137 -52.243  51.635  0.00  0.00    +0.000 C 
ATOM     13  C   UNL     1      42.424 -47.977  50.218  0.00  0.00    +0.000 C 
ATOM     14  C   UNL     1      41.049 -49.765  51.234  0.00  0.00    +0.000 C 
ATOM     15  C   UNL     1      43.598 -47.460  50.414  0.00  0.00    +0.000 C 
ATOM     16  C   UNL     1      42.258 -50.286  49.073  0.00  0.00    +0.000 C 
ATOM     17  C   UNL     1      41.275 -47.211  50.647  0.00  0.00    +0.000 C 
ATOM     18  C   UNL     1      39.935 -48.796  51.663  0.00  0.00    +0.000 C 
ATOM     19  C   UNL     1      40.029 -47.399  51.343  0.00  0.00    +0.000 C 
ENDROOT
BRANCH   5  20
ATOM     20  C   UNL     1      47.054 -52.630  54.804  0.00  0.00    +0.000 C 
ATOM     21  C   UNL     1      48.421 -53.255  54.729  0.00  0.00    +0.000 C 
BRANCH  20  22
ATOM     22  C   UNL     1      46.070 -53.379  55.508  0.00  0.00    +0.000 C 
ATOM     23  C   UNL     1      45.010 -54.189  56.271  0.00  0.00    +0.000 C 
BRANCH  23  24
ATOM     24  C   UNL     1      44.038 -54.953  56.984  0.00  0.00    +0.000 C 
ATOM     25  C   UNL     1      42.673 -55.057  56.511  0.00  0.00    +0.000 C 
ATOM     26  C   UNL     1      41.594 -55.819  57.248  0.00  0.00    +0.000 C 
ATOM     27  C   UNL     1      42.201 -54.410  55.225  0.00  0.00    +0.000 C 
BRANCH  24  28
ATOM     28  C   UNL     1      44.414 -55.624  58.178  0.00  0.00    +0.000 C 
ATOM     29  C   UNL     1      44.851 -56.288  59.489  0.00  0.00    +0.000 C 
ENDBRANCH  24  28
ENDBRANCH  23  24
ENDBRANCH  20  22
ENDBRANCH   5  20
BRANCH  19  30
ATOM     30  O   UNL     1      38.913 -46.693  50.905  0.00  0.00    +0.000 OA
BRANCH  30  32
ATOM     31  O   UNL     1      38.256 -48.074  49.153  0.00  0.00    +0.000 OA
ATOM     32  C   UNL     1      38.603 -46.995  49.610  0.00  0.00    +0.000 C 
BRANCH  32  33
ATOM     33  C   UNL     1      38.696 -45.835  48.759  0.00  0.00    +0.000 C 
ATOM     34  C   UNL     1      38.755 -44.869  48.047  0.00  0.00    +0.000 C 
BRANCH  34  35
ATOM     35  C   UNL     1      38.806 -43.724  47.198  0.00  0.00    +0.000 A 
ATOM     36  C   UNL     1      39.856 -43.582  46.291  0.00  0.00    +0.000 A 
ATOM     37  C   UNL     1      37.815 -42.750  47.279  0.00  0.00    +0.000 A 
ATOM     38  C   UNL     1      39.927 -42.465  45.454  0.00  0.00    +0.000 A 
ATOM     39  C   UNL     1      37.874 -41.631  46.451  0.00  0.00    +0.000 A 
ATOM     40  C   UNL     1      38.926 -41.494  45.547  0.00  0.00    +0.000 A 
BRANCH  38  41
ATOM     41  O   UNL     1      40.925 -42.247  44.537  0.00  0.00    +0.000 OA
ATOM     42  C   UNL     1      42.226 -42.543  44.976  0.00  0.00    +0.000 C 
ENDBRANCH  38  41
BRANCH  40  43
ATOM     43  O   UNL     1      38.979 -40.392  44.738  0.00  0.00    +0.000 OA
ATOM     44  H   UNL     1      38.762 -40.663  43.826  0.00  0.00    +0.000 HD
ENDBRANCH  40  43
ENDBRANCH  34  35
ENDBRANCH  32  33
ENDBRANCH  30  32
ENDBRANCH  19  30
TORSDOF 10
ENDMDL
MODEL 7
REMARK VINA RESULT:      -8.1      2.121      3.997
REMARK  Name = 91746246_sitosterol.pdbqt.pdb
REMARK  10 active torsions:
REMARK  status: ('A' for Active; 'I' for Inactive)
REMARK    1  A    between atoms: C_5  and  C_20
REMARK    2  A    between atoms: C_19  and  O_30
REMARK    3  A    between atoms: C_20  and  C_22
REMARK    4  A    between atoms: C_23  and  C_24
REMARK    5  A    between atoms: C_24  and  C_28
REMARK    6  A    between atoms: O_30  and  C_32
REMARK    7  A    between atoms: C_32  and  C_33
REMARK    8  A    between atoms: C_34  and  C_35
REMARK    9  A    between atoms: C_38  and  O_41
REMARK   10  A    between atoms: C_40  and  O_43
REMARK                            x       y       z     vdW  Elec       q    Type
REMARK                         _______ _______ _______ _____ _____    ______ ____
ROOT
ATOM      1  C   UNL     1      46.905 -50.618  52.923  0.00  0.00    +0.000 C 
ATOM      2  C   UNL     1      45.967 -49.662  52.011  0.00  0.00    +0.000 C 
ATOM      3  C   UNL     1      46.500 -48.486  51.293  0.00  0.00    +0.000 C 
ATOM      4  C   UNL     1      47.958 -48.161  51.086  0.00  0.00    +0.000 C 
ATOM      5  C   UNL     1      46.437 -52.018  52.546  0.00  0.00    +0.000 C 
ATOM      6  C   UNL     1      48.270 -50.292  52.514  0.00  0.00    +0.000 C 
ATOM      7  C   UNL     1      48.461 -46.882  50.368  0.00  0.00    +0.000 C 
ATOM      8  C   UNL     1      44.981 -50.495  51.395  0.00  0.00    +0.000 C 
ATOM      9  C   UNL     1      48.791 -49.143  51.685  0.00  0.00    +0.000 C 
ATOM     10  C   UNL     1      45.290 -51.935  51.703  0.00  0.00    +0.000 C 
ATOM     11  C   UNL     1      45.640 -47.614  50.580  0.00  0.00    +0.000 C 
ATOM     12  C   UNL     1      46.577 -50.295  54.405  0.00  0.00    +0.000 C 
ATOM     13  C   UNL     1      47.312 -46.130  49.452  0.00  0.00    +0.000 C 
ATOM     14  C   UNL     1      49.530 -47.223  49.384  0.00  0.00    +0.000 C 
ATOM     15  C   UNL     1      46.089 -46.487  49.698  0.00  0.00    +0.000 C 
ATOM     16  C   UNL     1      48.948 -45.853  51.431  0.00  0.00    +0.000 C 
ATOM     17  C   UNL     1      47.677 -45.896  48.072  0.00  0.00    +0.000 C 
ATOM     18  C   UNL     1      49.735 -46.930  47.888  0.00  0.00    +0.000 C 
ATOM     19  C   UNL     1      48.743 -46.197  47.153  0.00  0.00    +0.000 C 
ENDROOT
BRANCH   5  20
ATOM     20  C   UNL     1      46.914 -53.216  53.159  0.00  0.00    +0.000 C 
ATOM     21  C   UNL     1      47.807 -54.189  52.436  0.00  0.00    +0.000 C 
BRANCH  20  22
ATOM     22  C   UNL     1      46.371 -53.676  54.391  0.00  0.00    +0.000 C 
ATOM     23  C   UNL     1      45.783 -54.174  55.720  0.00  0.00    +0.000 C 
BRANCH  23  24
ATOM     24  C   UNL     1      45.220 -54.635  56.948  0.00  0.00    +0.000 C 
ATOM     25  C   UNL     1      43.821 -54.991  57.045  0.00  0.00    +0.000 C 
ATOM     26  C   UNL     1      43.164 -55.446  58.330  0.00  0.00    +0.000 C 
ATOM     27  C   UNL     1      42.881 -54.943  55.858  0.00  0.00    +0.000 C 
BRANCH  24  28
ATOM     28  C   UNL     1      46.048 -54.747  58.098  0.00  0.00    +0.000 C 
ATOM     29  C   UNL     1      46.908 -54.812  59.365  0.00  0.00    +0.000 C 
ENDBRANCH  24  28
ENDBRANCH  23  24
ENDBRANCH  20  22
ENDBRANCH   5  20
BRANCH  19  30
ATOM     30  O   UNL     1      49.116 -45.223  46.232  0.00  0.00    +0.000 OA
BRANCH  30  32
ATOM     31  O   UNL     1      51.375 -44.686  46.357  0.00  0.00    +0.000 OA
ATOM     32  C   UNL     1      50.203 -44.517  46.658  0.00  0.00    +0.000 C 
BRANCH  32  33
ATOM     33  C   UNL     1      49.822 -43.444  47.544  0.00  0.00    +0.000 C 
ATOM     34  C   UNL     1      49.510 -42.561  48.296  0.00  0.00    +0.000 C 
BRANCH  34  35
ATOM     35  C   UNL     1      49.145 -41.524  49.204  0.00  0.00    +0.000 A 
ATOM     36  C   UNL     1      49.628 -40.231  49.008  0.00  0.00    +0.000 A 
ATOM     37  C   UNL     1      48.315 -41.803  50.286  0.00  0.00    +0.000 A 
ATOM     38  C   UNL     1      49.287 -39.202  49.889  0.00  0.00    +0.000 A 
ATOM     39  C   UNL     1      47.967 -40.787  51.173  0.00  0.00    +0.000 A 
ATOM     40  C   UNL     1      48.454 -39.496  50.972  0.00  0.00    +0.000 A 
BRANCH  38  41
ATOM     41  O   UNL     1      49.720 -37.904  49.770  0.00  0.00    +0.000 OA
ATOM     42  C   UNL     1      50.052 -37.494  48.468  0.00  0.00    +0.000 C 
ENDBRANCH  38  41
BRANCH  40  43
ATOM     43  O   UNL     1      48.109 -38.503  51.847  0.00  0.00    +0.000 OA
ATOM     44  H   UNL     1      47.484 -38.866  52.502  0.00  0.00    +0.000 HD
ENDBRANCH  40  43
ENDBRANCH  34  35
ENDBRANCH  32  33
ENDBRANCH  30  32
ENDBRANCH  19  30
TORSDOF 10
ENDMDL
MODEL 8
REMARK VINA RESULT:      -8.0      5.099     12.762
REMARK  Name = 91746246_sitosterol.pdbqt.pdb
REMARK  10 active torsions:
REMARK  status: ('A' for Active; 'I' for Inactive)
REMARK    1  A    between atoms: C_5  and  C_20
REMARK    2  A    between atoms: C_19  and  O_30
REMARK    3  A    between atoms: C_20  and  C_22
REMARK    4  A    between atoms: C_23  and  C_24
REMARK    5  A    between atoms: C_24  and  C_28
REMARK    6  A    between atoms: O_30  and  C_32
REMARK    7  A    between atoms: C_32  and  C_33
REMARK    8  A    between atoms: C_34  and  C_35
REMARK    9  A    between atoms: C_38  and  O_41
REMARK   10  A    between atoms: C_40  and  O_43
REMARK                            x       y       z     vdW  Elec       q    Type
REMARK                         _______ _______ _______ _____ _____    ______ ____
ROOT
ATOM      1  C   UNL     1      49.137 -44.117  49.160  0.00  0.00    +0.000 C 
ATOM      2  C   UNL     1      50.067 -45.314  49.733  0.00  0.00    +0.000 C 
ATOM      3  C   UNL     1      49.498 -46.530  50.349  0.00  0.00    +0.000 C 
ATOM      4  C   UNL     1      48.050 -46.950  50.305  0.00  0.00    +0.000 C 
ATOM      5  C   UNL     1      49.807 -43.765  47.838  0.00  0.00    +0.000 C 
ATOM      6  C   UNL     1      47.806 -44.711  49.039  0.00  0.00    +0.000 C 
ATOM      7  C   UNL     1      47.498 -48.212  51.018  0.00  0.00    +0.000 C 
ATOM      8  C   UNL     1      51.213 -45.408  48.882  0.00  0.00    +0.000 C 
ATOM      9  C   UNL     1      47.266 -46.011  49.584  0.00  0.00    +0.000 C 
ATOM     10  C   UNL     1      51.034 -44.480  47.711  0.00  0.00    +0.000 C 
ATOM     11  C   UNL     1      50.334 -47.517  50.927  0.00  0.00    +0.000 C 
ATOM     12  C   UNL     1      49.235 -42.944  50.171  0.00  0.00    +0.000 C 
ATOM     13  C   UNL     1      48.659 -49.305  51.443  0.00  0.00    +0.000 C 
ATOM     14  C   UNL     1      46.609 -48.982  50.099  0.00  0.00    +0.000 C 
ATOM     15  C   UNL     1      49.874 -48.848  51.440  0.00  0.00    +0.000 C 
ATOM     16  C   UNL     1      46.765 -47.786  52.324  0.00  0.00    +0.000 C 
ATOM     17  C   UNL     1      48.448 -50.652  50.962  0.00  0.00    +0.000 C 
ATOM     18  C   UNL     1      46.563 -50.449  49.641  0.00  0.00    +0.000 C 
ATOM     19  C   UNL     1      47.549 -51.383  50.108  0.00  0.00    +0.000 C 
ENDROOT
BRANCH   5  20
ATOM     20  C   UNL     1      49.397 -42.691  46.991  0.00  0.00    +0.000 C 
ATOM     21  C   UNL     1      49.251 -42.852  45.501  0.00  0.00    +0.000 C 
BRANCH  20  22
ATOM     22  C   UNL     1      49.349 -41.354  47.475  0.00  0.00    +0.000 C 
ATOM     23  C   UNL     1      49.294 -39.909  47.995  0.00  0.00    +0.000 C 
BRANCH  23  24
ATOM     24  C   UNL     1      49.246 -38.561  48.462  0.00  0.00    +0.000 C 
ATOM     25  C   UNL     1      49.011 -38.260  49.858  0.00  0.00    +0.000 C 
ATOM     26  C   UNL     1      48.910 -36.850  50.399  0.00  0.00    +0.000 C 
ATOM     27  C   UNL     1      48.847 -39.336  50.912  0.00  0.00    +0.000 C 
BRANCH  24  28
ATOM     28  C   UNL     1      49.431 -37.495  47.541  0.00  0.00    +0.000 C 
ATOM     29  C   UNL     1      49.562 -36.343  46.539  0.00  0.00    +0.000 C 
ENDBRANCH  24  28
ENDBRANCH  23  24
ENDBRANCH  20  22
ENDBRANCH   5  20
BRANCH  19  30
ATOM     30  O   UNL     1      47.187 -52.674  50.481  0.00  0.00    +0.000 OA
BRANCH  30  32
ATOM     31  O   UNL     1      45.139 -52.431  51.556  0.00  0.00    +0.000 OA
ATOM     32  C   UNL     1      46.337 -52.669  51.550  0.00  0.00    +0.000 C 
BRANCH  32  33
ATOM     33  C   UNL     1      47.020 -53.027  52.769  0.00  0.00    +0.000 C 
ATOM     34  C   UNL     1      47.575 -53.316  53.794  0.00  0.00    +0.000 C 
BRANCH  34  35
ATOM     35  C   UNL     1      48.222 -53.648  55.021  0.00  0.00    +0.000 A 
ATOM     36  C   UNL     1      47.474 -53.743  56.193  0.00  0.00    +0.000 A 
ATOM     37  C   UNL     1      49.597 -53.869  55.048  0.00  0.00    +0.000 A 
ATOM     38  C   UNL     1      48.090 -54.062  57.407  0.00  0.00    +0.000 A 
ATOM     39  C   UNL     1      50.224 -54.186  56.250  0.00  0.00    +0.000 A 
ATOM     40  C   UNL     1      49.470 -54.280  57.420  0.00  0.00    +0.000 A 
BRANCH  38  41
ATOM     41  O   UNL     1      47.429 -54.173  58.605  0.00  0.00    +0.000 OA
ATOM     42  C   UNL     1      46.773 -55.396  58.823  0.00  0.00    +0.000 C 
ENDBRANCH  38  41
BRANCH  40  43
ATOM     43  O   UNL     1      50.093 -54.590  58.598  0.00  0.00    +0.000 OA
ATOM     44  H   UNL     1      50.133 -55.561  58.683  0.00  0.00    +0.000 HD
ENDBRANCH  40  43
ENDBRANCH  34  35
ENDBRANCH  32  33
ENDBRANCH  30  32
ENDBRANCH  19  30
TORSDOF 10
ENDMDL
MODEL 9
REMARK VINA RESULT:      -7.9      7.660     13.071
REMARK  Name = 91746246_sitosterol.pdbqt.pdb
REMARK  10 active torsions:
REMARK  status: ('A' for Active; 'I' for Inactive)
REMARK    1  A    between atoms: C_5  and  C_20
REMARK    2  A    between atoms: C_19  and  O_30
REMARK    3  A    between atoms: C_20  and  C_22
REMARK    4  A    between atoms: C_23  and  C_24
REMARK    5  A    between atoms: C_24  and  C_28
REMARK    6  A    between atoms: O_30  and  C_32
REMARK    7  A    between atoms: C_32  and  C_33
REMARK    8  A    between atoms: C_34  and  C_35
REMARK    9  A    between atoms: C_38  and  O_41
REMARK   10  A    between atoms: C_40  and  O_43
REMARK                            x       y       z     vdW  Elec       q    Type
REMARK                         _______ _______ _______ _____ _____    ______ ____
ROOT
ATOM      1  C   UNL     1      54.181 -56.711  56.488  0.00  0.00    +0.000 C 
ATOM      2  C   UNL     1      53.215 -56.405  55.224  0.00  0.00    +0.000 C 
ATOM      3  C   UNL     1      51.768 -56.154  55.379  0.00  0.00    +0.000 C 
ATOM      4  C   UNL     1      51.049 -55.894  56.679  0.00  0.00    +0.000 C 
ATOM      5  C   UNL     1      55.417 -55.872  56.188  0.00  0.00    +0.000 C 
ATOM      6  C   UNL     1      53.410 -56.281  57.653  0.00  0.00    +0.000 C 
ATOM      7  C   UNL     1      49.515 -55.691  56.789  0.00  0.00    +0.000 C 
ATOM      8  C   UNL     1      53.978 -55.650  54.278  0.00  0.00    +0.000 C 
ATOM      9  C   UNL     1      51.950 -55.922  57.777  0.00  0.00    +0.000 C 
ATOM     10  C   UNL     1      55.311 -55.304  54.884  0.00  0.00    +0.000 C 
ATOM     11  C   UNL     1      50.930 -55.982  54.249  0.00  0.00    +0.000 C 
ATOM     12  C   UNL     1      54.509 -58.228  56.451  0.00  0.00    +0.000 C 
ATOM     13  C   UNL     1      48.782 -55.326  55.356  0.00  0.00    +0.000 C 
ATOM     14  C   UNL     1      49.206 -54.513  57.652  0.00  0.00    +0.000 C 
ATOM     15  C   UNL     1      49.488 -55.577  54.295  0.00  0.00    +0.000 C 
ATOM     16  C   UNL     1      48.860 -56.998  57.323  0.00  0.00    +0.000 C 
ATOM     17  C   UNL     1      47.981 -54.122  55.358  0.00  0.00    +0.000 C 
ATOM     18  C   UNL     1      48.349 -53.250  57.466  0.00  0.00    +0.000 C 
ATOM     19  C   UNL     1      47.661 -53.020  56.226  0.00  0.00    +0.000 C 
ENDROOT
BRANCH   5  20
ATOM     20  C   UNL     1      56.603 -55.875  56.983  0.00  0.00    +0.000 C 
ATOM     21  C   UNL     1      57.508 -57.074  57.072  0.00  0.00    +0.000 C 
BRANCH  20  22
ATOM     22  C   UNL     1      56.856 -54.839  57.924  0.00  0.00    +0.000 C 
ATOM     23  C   UNL     1      57.130 -53.722  58.943  0.00  0.00    +0.000 C 
BRANCH  23  24
ATOM     24  C   UNL     1      57.370 -52.688  59.898  0.00  0.00    +0.000 C 
ATOM     25  C   UNL     1      57.962 -51.427  59.505  0.00  0.00    +0.000 C 
ATOM     26  C   UNL     1      58.276 -50.315  60.482  0.00  0.00    +0.000 C 
ATOM     27  C   UNL     1      58.322 -51.104  58.069  0.00  0.00    +0.000 C 
BRANCH  24  28
ATOM     28  C   UNL     1      57.022 -52.900  61.259  0.00  0.00    +0.000 C 
ATOM     29  C   UNL     1      56.708 -53.160  62.737  0.00  0.00    +0.000 C 
ENDBRANCH  24  28
ENDBRANCH  23  24
ENDBRANCH  20  22
ENDBRANCH   5  20
BRANCH  19  30
ATOM     30  O   UNL     1      46.359 -52.527  56.216  0.00  0.00    +0.000 OA
BRANCH  30  32
ATOM     31  O   UNL     1      45.068 -53.215  54.408  0.00  0.00    +0.000 OA
ATOM     32  C   UNL     1      45.858 -52.455  54.949  0.00  0.00    +0.000 C 
BRANCH  32  33
ATOM     33  C   UNL     1      46.354 -51.296  54.250  0.00  0.00    +0.000 C 
ATOM     34  C   UNL     1      46.750 -50.322  53.667  0.00  0.00    +0.000 C 
BRANCH  34  35
ATOM     35  C   UNL     1      47.202 -49.159  52.976  0.00  0.00    +0.000 A 
ATOM     36  C   UNL     1      46.344 -48.072  52.817  0.00  0.00    +0.000 A 
ATOM     37  C   UNL     1      48.492 -49.114  52.455  0.00  0.00    +0.000 A 
ATOM     38  C   UNL     1      46.765 -46.926  52.138  0.00  0.00    +0.000 A 
ATOM     39  C   UNL     1      48.925 -47.978  51.776  0.00  0.00    +0.000 A 
ATOM     40  C   UNL     1      48.063 -46.894  51.620  0.00  0.00    +0.000 A 
BRANCH  38  41
ATOM     41  O   UNL     1      45.984 -45.814  51.937  0.00  0.00    +0.000 OA
ATOM     42  C   UNL     1      44.752 -46.046  51.305  0.00  0.00    +0.000 C 
ENDBRANCH  38  41
BRANCH  40  43
ATOM     43  O   UNL     1      48.493 -45.781  50.950  0.00  0.00    +0.000 OA
ATOM     44  H   UNL     1      48.839 -45.140  51.599  0.00  0.00    +0.000 HD
ENDBRANCH  40  43
ENDBRANCH  34  35
ENDBRANCH  32  33
ENDBRANCH  30  32
ENDBRANCH  19  30
TORSDOF 10
ENDMDL
