MODEL 1
REMARK VINA RESULT:      -4.6      0.000      0.000
REMARK  Name = 92041_2Ethoxy5fluorouracil.pdbqt.pdb
REMARK  2 active torsions:
REMARK  status: ('A' for Active; 'I' for Inactive)
REMARK    1  A    between atoms: C_5  and  O_10
REMARK    2  A    between atoms: O_10  and  C_11
REMARK                            x       y       z     vdW  Elec       q    Type
REMARK                         _______ _______ _______ _____ _____    ______ ____
ROOT
ATOM      1  F   UNL     1      41.697 -29.225  53.189  0.00  0.00    +0.000 F 
ATOM      2  O   UNL     1      40.584 -31.253  54.857  0.00  0.00    +0.000 OA
ATOM      3  N   UNL     1      39.346 -29.624  55.904  0.00  0.00    +0.000 N 
ATOM      4  N   UNL     1      39.319 -27.366  55.202  0.00  0.00    +0.000 NA
ATOM      5  C   UNL     1      38.954 -28.295  56.039  0.00  0.00    +0.000 C 
ATOM      6  C   UNL     1      40.188 -30.095  54.893  0.00  0.00    +0.000 C 
ATOM      7  C   UNL     1      40.564 -29.050  53.890  0.00  0.00    +0.000 C 
ATOM      8  C   UNL     1      40.090 -27.903  54.247  0.00  0.00    +0.000 C 
ATOM      9  H   UNL     1      39.067 -30.296  56.603  0.00  0.00    +0.000 HD
ENDROOT
BRANCH   5  10
ATOM     10  O   UNL     1      38.166 -28.093  57.121  0.00  0.00    +0.000 OA
BRANCH  10  11
ATOM     11  C   UNL     1      36.855 -28.094  56.898  0.00  0.00    +0.000 C 
ATOM     12  C   UNL     1      35.354 -28.055  56.594  0.00  0.00    +0.000 C 
ENDBRANCH  10  11
ENDBRANCH   5  10
TORSDOF 2
ENDMDL
MODEL 2
REMARK VINA RESULT:      -4.2     16.302     17.528
REMARK  Name = 92041_2Ethoxy5fluorouracil.pdbqt.pdb
REMARK  2 active torsions:
REMARK  status: ('A' for Active; 'I' for Inactive)
REMARK    1  A    between atoms: C_5  and  O_10
REMARK    2  A    between atoms: O_10  and  C_11
REMARK                            x       y       z     vdW  Elec       q    Type
REMARK                         _______ _______ _______ _____ _____    ______ ____
ROOT
ATOM      1  F   UNL     1      48.426 -40.543  48.780  0.00  0.00    +0.000 F 
ATOM      2  O   UNL     1      49.248 -43.260  48.510  0.00  0.00    +0.000 OA
ATOM      3  N   UNL     1      48.555 -43.618  50.672  0.00  0.00    +0.000 N 
ATOM      4  N   UNL     1      47.455 -41.975  51.968  0.00  0.00    +0.000 NA
ATOM      5  C   UNL     1      47.982 -43.161  51.855  0.00  0.00    +0.000 C 
ATOM      6  C   UNL     1      48.658 -42.859  49.504  0.00  0.00    +0.000 C 
ATOM      7  C   UNL     1      48.001 -41.517  49.602  0.00  0.00    +0.000 C 
ATOM      8  C   UNL     1      47.560 -41.327  50.801  0.00  0.00    +0.000 C 
ATOM      9  H   UNL     1      48.984 -44.531  50.650  0.00  0.00    +0.000 HD
ENDROOT
BRANCH   5  10
ATOM     10  O   UNL     1      48.039 -44.079  52.849  0.00  0.00    +0.000 OA
BRANCH  10  11
ATOM     11  C   UNL     1      47.313 -45.178  52.672  0.00  0.00    +0.000 C 
ATOM     12  C   UNL     1      46.458 -46.441  52.527  0.00  0.00    +0.000 C 
ENDBRANCH  10  11
ENDBRANCH   5  10
TORSDOF 2
ENDMDL
MODEL 3
REMARK VINA RESULT:      -4.1     27.506     28.795
REMARK  Name = 92041_2Ethoxy5fluorouracil.pdbqt.pdb
REMARK  2 active torsions:
REMARK  status: ('A' for Active; 'I' for Inactive)
REMARK    1  A    between atoms: C_5  and  O_10
REMARK    2  A    between atoms: O_10  and  C_11
REMARK                            x       y       z     vdW  Elec       q    Type
REMARK                         _______ _______ _______ _____ _____    ______ ____
ROOT
ATOM      1  F   UNL     1      57.048 -51.429  60.082  0.00  0.00    +0.000 F 
ATOM      2  O   UNL     1      58.517 -51.847  57.674  0.00  0.00    +0.000 OA
ATOM      3  N   UNL     1      59.448 -49.765  57.954  0.00  0.00    +0.000 N 
ATOM      4  N   UNL     1      59.064 -48.421  59.863  0.00  0.00    +0.000 NA
ATOM      5  C   UNL     1      59.596 -48.589  58.685  0.00  0.00    +0.000 C 
ATOM      6  C   UNL     1      58.699 -50.865  58.380  0.00  0.00    +0.000 C 
ATOM      7  C   UNL     1      58.135 -50.709  59.758  0.00  0.00    +0.000 C 
ATOM      8  C   UNL     1      58.398 -49.529  60.213  0.00  0.00    +0.000 C 
ATOM      9  H   UNL     1      59.847 -49.827  57.030  0.00  0.00    +0.000 HD
ENDROOT
BRANCH   5  10
ATOM     10  O   UNL     1      60.341 -47.664  58.035  0.00  0.00    +0.000 OA
BRANCH  10  11
ATOM     11  C   UNL     1      60.093 -46.394  58.340  0.00  0.00    +0.000 C 
ATOM     12  C   UNL     1      59.805 -44.947  58.752  0.00  0.00    +0.000 C 
ENDBRANCH  10  11
ENDBRANCH   5  10
TORSDOF 2
ENDMDL
MODEL 4
REMARK VINA RESULT:      -3.9      2.932      4.743
REMARK  Name = 92041_2Ethoxy5fluorouracil.pdbqt.pdb
REMARK  2 active torsions:
REMARK  status: ('A' for Active; 'I' for Inactive)
REMARK    1  A    between atoms: C_5  and  O_10
REMARK    2  A    between atoms: O_10  and  C_11
REMARK                            x       y       z     vdW  Elec       q    Type
REMARK                         _______ _______ _______ _____ _____    ______ ____
ROOT
ATOM      1  F   UNL     1      34.102 -28.299  55.295  0.00  0.00    +0.000 F 
ATOM      2  O   UNL     1      35.278 -28.968  57.806  0.00  0.00    +0.000 OA
ATOM      3  N   UNL     1      37.337 -28.905  56.787  0.00  0.00    +0.000 N 
ATOM      4  N   UNL     1      37.650 -28.240  54.540  0.00  0.00    +0.000 NA
ATOM      5  C   UNL     1      38.130 -28.695  55.663  0.00  0.00    +0.000 C 
ATOM      6  C   UNL     1      35.958 -28.688  56.828  0.00  0.00    +0.000 C 
ATOM      7  C   UNL     1      35.404 -28.107  55.564  0.00  0.00    +0.000 C 
ATOM      8  C   UNL     1      36.335 -28.023  54.672  0.00  0.00    +0.000 C 
ATOM      9  H   UNL     1      37.752 -29.296  57.620  0.00  0.00    +0.000 HD
ENDROOT
BRANCH   5  10
ATOM     10  O   UNL     1      39.428 -29.014  55.875  0.00  0.00    +0.000 OA
BRANCH  10  11
ATOM     11  C   UNL     1      40.150 -29.279  54.791  0.00  0.00    +0.000 C 
ATOM     12  C   UNL     1      40.968 -29.529  53.520  0.00  0.00    +0.000 C 
ENDBRANCH  10  11
ENDBRANCH   5  10
TORSDOF 2
ENDMDL
MODEL 5
REMARK VINA RESULT:      -3.9     27.279     28.192
REMARK  Name = 92041_2Ethoxy5fluorouracil.pdbqt.pdb
REMARK  2 active torsions:
REMARK  status: ('A' for Active; 'I' for Inactive)
REMARK    1  A    between atoms: C_5  and  O_10
REMARK    2  A    between atoms: O_10  and  C_11
REMARK                            x       y       z     vdW  Elec       q    Type
REMARK                         _______ _______ _______ _____ _____    ______ ____
ROOT
ATOM      1  F   UNL     1      59.547 -45.417  62.087  0.00  0.00    +0.000 F 
ATOM      2  O   UNL     1      60.405 -44.813  59.435  0.00  0.00    +0.000 OA
ATOM      3  N   UNL     1      59.848 -46.961  58.834  0.00  0.00    +0.000 N 
ATOM      4  N   UNL     1      58.794 -48.485  60.303  0.00  0.00    +0.000 NA
ATOM      5  C   UNL     1      59.336 -48.216  59.150  0.00  0.00    +0.000 C 
ATOM      6  C   UNL     1      59.867 -45.876  59.715  0.00  0.00    +0.000 C 
ATOM      7  C   UNL     1      59.191 -46.153  61.022  0.00  0.00    +0.000 C 
ATOM      8  C   UNL     1      58.817 -47.389  61.073  0.00  0.00    +0.000 C 
ATOM      9  H   UNL     1      60.293 -46.818  57.940  0.00  0.00    +0.000 HD
ENDROOT
BRANCH   5  10
ATOM     10  O   UNL     1      59.470 -49.101  58.134  0.00  0.00    +0.000 OA
BRANCH  10  11
ATOM     11  C   UNL     1      58.887 -50.284  58.309  0.00  0.00    +0.000 C 
ATOM     12  C   UNL     1      58.163 -51.616  58.525  0.00  0.00    +0.000 C 
ENDBRANCH  10  11
ENDBRANCH   5  10
TORSDOF 2
ENDMDL
MODEL 6
REMARK VINA RESULT:      -3.9     27.519     28.114
REMARK  Name = 92041_2Ethoxy5fluorouracil.pdbqt.pdb
REMARK  2 active torsions:
REMARK  status: ('A' for Active; 'I' for Inactive)
REMARK    1  A    between atoms: C_5  and  O_10
REMARK    2  A    between atoms: O_10  and  C_11
REMARK                            x       y       z     vdW  Elec       q    Type
REMARK                         _______ _______ _______ _____ _____    ______ ____
ROOT
ATOM      1  F   UNL     1      57.266 -48.574  61.653  0.00  0.00    +0.000 F 
ATOM      2  O   UNL     1      58.906 -48.873  59.340  0.00  0.00    +0.000 OA
ATOM      3  N   UNL     1      59.955 -46.908  59.907  0.00  0.00    +0.000 N 
ATOM      4  N   UNL     1      59.502 -45.730  61.907  0.00  0.00    +0.000 NA
ATOM      5  C   UNL     1      60.122 -45.824  60.764  0.00  0.00    +0.000 C 
ATOM      6  C   UNL     1      59.095 -47.981  60.156  0.00  0.00    +0.000 C 
ATOM      7  C   UNL     1      58.425 -47.915  61.493  0.00  0.00    +0.000 C 
ATOM      8  C   UNL     1      58.730 -46.809  62.086  0.00  0.00    +0.000 C 
ATOM      9  H   UNL     1      60.429 -46.913  59.016  0.00  0.00    +0.000 HD
ENDROOT
BRANCH   5  10
ATOM     10  O   UNL     1      60.985 -44.903  60.275  0.00  0.00    +0.000 OA
BRANCH  10  11
ATOM     11  C   UNL     1      61.894 -45.352  59.416  0.00  0.00    +0.000 C 
ATOM     12  C   UNL     1      62.977 -45.887  58.474  0.00  0.00    +0.000 C 
ENDBRANCH  10  11
ENDBRANCH   5  10
TORSDOF 2
ENDMDL
MODEL 7
REMARK VINA RESULT:      -3.8     14.446     15.713
REMARK  Name = 92041_2Ethoxy5fluorouracil.pdbqt.pdb
REMARK  2 active torsions:
REMARK  status: ('A' for Active; 'I' for Inactive)
REMARK    1  A    between atoms: C_5  and  O_10
REMARK    2  A    between atoms: O_10  and  C_11
REMARK                            x       y       z     vdW  Elec       q    Type
REMARK                         _______ _______ _______ _____ _____    ______ ____
ROOT
ATOM      1  F   UNL     1      48.074 -37.170  44.923  0.00  0.00    +0.000 F 
ATOM      2  O   UNL     1      48.733 -35.311  46.983  0.00  0.00    +0.000 OA
ATOM      3  N   UNL     1      49.627 -37.055  48.184  0.00  0.00    +0.000 N 
ATOM      4  N   UNL     1      49.808 -39.255  47.334  0.00  0.00    +0.000 NA
ATOM      5  C   UNL     1      49.951 -38.403  48.310  0.00  0.00    +0.000 C 
ATOM      6  C   UNL     1      49.090 -36.481  47.029  0.00  0.00    +0.000 C 
ATOM      7  C   UNL     1      48.978 -37.435  45.881  0.00  0.00    +0.000 C 
ATOM      8  C   UNL     1      49.326 -38.621  46.257  0.00  0.00    +0.000 C 
ATOM      9  H   UNL     1      49.720 -36.447  48.984  0.00  0.00    +0.000 HD
ENDROOT
BRANCH   5  10
ATOM     10  O   UNL     1      50.421 -38.712  49.541  0.00  0.00    +0.000 OA
BRANCH  10  11
ATOM     11  C   UNL     1      49.874 -38.054  50.558  0.00  0.00    +0.000 C 
ATOM     12  C   UNL     1      49.204 -37.344  51.739  0.00  0.00    +0.000 C 
ENDBRANCH  10  11
ENDBRANCH   5  10
TORSDOF 2
ENDMDL
MODEL 8
REMARK VINA RESULT:      -3.8     21.405     22.540
REMARK  Name = 92041_2Ethoxy5fluorouracil.pdbqt.pdb
REMARK  2 active torsions:
REMARK  status: ('A' for Active; 'I' for Inactive)
REMARK    1  A    between atoms: C_5  and  O_10
REMARK    2  A    between atoms: O_10  and  C_11
REMARK                            x       y       z     vdW  Elec       q    Type
REMARK                         _______ _______ _______ _____ _____    ______ ____
ROOT
ATOM      1  F   UNL     1      59.705 -24.675  62.304  0.00  0.00    +0.000 F 
ATOM      2  O   UNL     1      62.284 -25.076  61.156  0.00  0.00    +0.000 OA
ATOM      3  N   UNL     1      61.279 -25.180  59.091  0.00  0.00    +0.000 N 
ATOM      4  N   UNL     1      58.972 -24.788  58.753  0.00  0.00    +0.000 NA
ATOM      5  C   UNL     1      60.143 -25.120  58.289  0.00  0.00    +0.000 C 
ATOM      6  C   UNL     1      61.285 -24.927  60.465  0.00  0.00    +0.000 C 
ATOM      7  C   UNL     1      59.958 -24.484  60.999  0.00  0.00    +0.000 C 
ATOM      8  C   UNL     1      59.069 -24.526  60.063  0.00  0.00    +0.000 C 
ATOM      9  H   UNL     1      62.154 -25.482  58.689  0.00  0.00    +0.000 HD
ENDROOT
BRANCH   5  10
ATOM     10  O   UNL     1      60.400 -25.443  57.000  0.00  0.00    +0.000 OA
BRANCH  10  11
ATOM     11  C   UNL     1      61.548 -26.074  56.772  0.00  0.00    +0.000 C 
ATOM     12  C   UNL     1      62.895 -26.747  56.491  0.00  0.00    +0.000 C 
ENDBRANCH  10  11
ENDBRANCH   5  10
TORSDOF 2
ENDMDL
MODEL 9
REMARK VINA RESULT:      -3.7     12.677     13.816
REMARK  Name = 92041_2Ethoxy5fluorouracil.pdbqt.pdb
REMARK  2 active torsions:
REMARK  status: ('A' for Active; 'I' for Inactive)
REMARK    1  A    between atoms: C_5  and  O_10
REMARK    2  A    between atoms: O_10  and  C_11
REMARK                            x       y       z     vdW  Elec       q    Type
REMARK                         _______ _______ _______ _____ _____    ______ ____
ROOT
ATOM      1  F   UNL     1      48.763 -23.984  51.257  0.00  0.00    +0.000 F 
ATOM      2  O   UNL     1      50.622 -25.528  52.771  0.00  0.00    +0.000 OA
ATOM      3  N   UNL     1      51.436 -26.371  50.793  0.00  0.00    +0.000 N 
ATOM      4  N   UNL     1      50.704 -25.628  48.671  0.00  0.00    +0.000 NA
ATOM      5  C   UNL     1      51.428 -26.427  49.402  0.00  0.00    +0.000 C 
ATOM      6  C   UNL     1      50.657 -25.490  51.548  0.00  0.00    +0.000 C 
ATOM      7  C   UNL     1      49.868 -24.525  50.718  0.00  0.00    +0.000 C 
ATOM      8  C   UNL     1      50.019 -24.795  49.464  0.00  0.00    +0.000 C 
ATOM      9  H   UNL     1      51.985 -27.039  51.313  0.00  0.00    +0.000 HD
ENDROOT
BRANCH   5  10
ATOM     10  O   UNL     1      52.245 -27.391  48.917  0.00  0.00    +0.000 OA
BRANCH  10  11
ATOM     11  C   UNL     1      51.812 -28.036  47.838  0.00  0.00    +0.000 C 
ATOM     12  C   UNL     1      51.369 -28.767  46.567  0.00  0.00    +0.000 C 
ENDBRANCH  10  11
ENDBRANCH   5  10
TORSDOF 2
ENDMDL
