MODEL 1
REMARK VINA RESULT:      -4.7      0.000      0.000
REMARK  Name = 95716_6Bromoisatin.pdbqt.pdb
REMARK  0 active torsions:
REMARK  status: ('A' for Active; 'I' for Inactive)
REMARK                            x       y       z     vdW  Elec       q    Type
REMARK                         _______ _______ _______ _____ _____    ______ ____
ROOT
ATOM      1 BR   UNL     1      51.482 -45.929  47.411  0.00  0.00    +0.000 Br
ATOM      2  O   UNL     1      46.836 -44.751  52.487  0.00  0.00    +0.000 OA
ATOM      3  O   UNL     1      47.360 -41.797  52.213  0.00  0.00    +0.000 OA
ATOM      4  N   UNL     1      48.822 -42.582  50.575  0.00  0.00    +0.000 N 
ATOM      5  C   UNL     1      49.169 -43.838  50.084  0.00  0.00    +0.000 A 
ATOM      6  C   UNL     1      48.468 -44.851  50.735  0.00  0.00    +0.000 A 
ATOM      7  C   UNL     1      47.601 -44.211  51.723  0.00  0.00    +0.000 C 
ATOM      8  C   UNL     1      50.077 -44.118  49.086  0.00  0.00    +0.000 A 
ATOM      9  C   UNL     1      48.632 -46.187  50.431  0.00  0.00    +0.000 A 
ATOM     10  C   UNL     1      47.875 -42.687  51.576  0.00  0.00    +0.000 C 
ATOM     11  C   UNL     1      50.256 -45.466  48.766  0.00  0.00    +0.000 A 
ATOM     12  C   UNL     1      49.548 -46.487  49.423  0.00  0.00    +0.000 A 
ATOM     13  H   UNL     1      49.194 -41.696  50.263  0.00  0.00    +0.000 HD
ENDROOT
TORSDOF 0
ENDMDL
MODEL 2
REMARK VINA RESULT:      -4.6      1.862      2.385
REMARK  Name = 95716_6Bromoisatin.pdbqt.pdb
REMARK  0 active torsions:
REMARK  status: ('A' for Active; 'I' for Inactive)
REMARK                            x       y       z     vdW  Elec       q    Type
REMARK                         _______ _______ _______ _____ _____    ______ ____
ROOT
ATOM      1 BR   UNL     1      50.235 -44.624  46.521  0.00  0.00    +0.000 Br
ATOM      2  O   UNL     1      47.311 -41.956  52.272  0.00  0.00    +0.000 OA
ATOM      3  O   UNL     1      47.770 -39.193  51.163  0.00  0.00    +0.000 OA
ATOM      4  N   UNL     1      48.673 -40.444  49.414  0.00  0.00    +0.000 N 
ATOM      5  C   UNL     1      48.842 -41.802  49.160  0.00  0.00    +0.000 A 
ATOM      6  C   UNL     1      48.351 -42.582  50.205  0.00  0.00    +0.000 A 
ATOM      7  C   UNL     1      47.823 -41.667  51.216  0.00  0.00    +0.000 C 
ATOM      8  C   UNL     1      49.412 -42.373  48.043  0.00  0.00    +0.000 A 
ATOM      9  C   UNL     1      48.400 -43.960  50.196  0.00  0.00    +0.000 A 
ATOM     10  C   UNL     1      48.063 -40.242  50.638  0.00  0.00    +0.000 C 
ATOM     11  C   UNL     1      49.470 -43.768  48.016  0.00  0.00    +0.000 A 
ATOM     12  C   UNL     1      48.974 -44.554  49.071  0.00  0.00    +0.000 A 
ATOM     13  H   UNL     1      48.948 -39.685  48.808  0.00  0.00    +0.000 HD
ENDROOT
TORSDOF 0
ENDMDL
MODEL 3
REMARK VINA RESULT:      -4.6      2.060      2.741
REMARK  Name = 95716_6Bromoisatin.pdbqt.pdb
REMARK  0 active torsions:
REMARK  status: ('A' for Active; 'I' for Inactive)
REMARK                            x       y       z     vdW  Elec       q    Type
REMARK                         _______ _______ _______ _____ _____    ______ ____
ROOT
ATOM      1 BR   UNL     1      49.142 -49.142  50.953  0.00  0.00    +0.000 Br
ATOM      2  O   UNL     1      49.124 -42.269  49.725  0.00  0.00    +0.000 OA
ATOM      3  O   UNL     1      47.441 -41.883  52.193  0.00  0.00    +0.000 OA
ATOM      4  N   UNL     1      47.673 -44.202  52.267  0.00  0.00    +0.000 N 
ATOM      5  C   UNL     1      48.312 -45.154  51.477  0.00  0.00    +0.000 A 
ATOM      6  C   UNL     1      48.959 -44.565  50.393  0.00  0.00    +0.000 A 
ATOM      7  C   UNL     1      48.727 -43.124  50.481  0.00  0.00    +0.000 C 
ATOM      8  C   UNL     1      48.342 -46.516  51.679  0.00  0.00    +0.000 A 
ATOM      9  C   UNL     1      49.667 -45.293  49.459  0.00  0.00    +0.000 A 
ATOM     10  C   UNL     1      47.857 -42.931  51.757  0.00  0.00    +0.000 C 
ATOM     11  C   UNL     1      49.054 -47.270  50.744  0.00  0.00    +0.000 A 
ATOM     12  C   UNL     1      49.707 -46.675  49.651  0.00  0.00    +0.000 A 
ATOM     13  H   UNL     1      47.138 -44.384  53.105  0.00  0.00    +0.000 HD
ENDROOT
TORSDOF 0
ENDMDL
MODEL 4
REMARK VINA RESULT:      -4.3     14.425     14.693
REMARK  Name = 95716_6Bromoisatin.pdbqt.pdb
REMARK  0 active torsions:
REMARK  status: ('A' for Active; 'I' for Inactive)
REMARK                            x       y       z     vdW  Elec       q    Type
REMARK                         _______ _______ _______ _____ _____    ______ ____
ROOT
ATOM      1 BR   UNL     1      57.673 -53.258  58.746  0.00  0.00    +0.000 Br
ATOM      2  O   UNL     1      59.188 -46.843  61.048  0.00  0.00    +0.000 OA
ATOM      3  O   UNL     1      60.574 -46.286  58.433  0.00  0.00    +0.000 OA
ATOM      4  N   UNL     1      59.888 -48.477  58.024  0.00  0.00    +0.000 N 
ATOM      5  C   UNL     1      59.186 -49.440  58.744  0.00  0.00    +0.000 A 
ATOM      6  C   UNL     1      58.814 -48.967  60.000  0.00  0.00    +0.000 A 
ATOM      7  C   UNL     1      59.308 -47.595  60.110  0.00  0.00    +0.000 C 
ATOM      8  C   UNL     1      58.865 -50.715  58.332  0.00  0.00    +0.000 A 
ATOM      9  C   UNL     1      58.108 -49.729  60.907  0.00  0.00    +0.000 A 
ATOM     10  C   UNL     1      60.023 -47.312  58.756  0.00  0.00    +0.000 C 
ATOM     11  C   UNL     1      58.150 -51.501  59.237  0.00  0.00    +0.000 A 
ATOM     12  C   UNL     1      57.775 -51.023  60.505  0.00  0.00    +0.000 A 
ATOM     13  H   UNL     1      60.261 -48.584  57.091  0.00  0.00    +0.000 HD
ENDROOT
TORSDOF 0
ENDMDL
MODEL 5
REMARK VINA RESULT:      -4.3     14.783     15.048
REMARK  Name = 95716_6Bromoisatin.pdbqt.pdb
REMARK  0 active torsions:
REMARK  status: ('A' for Active; 'I' for Inactive)
REMARK                            x       y       z     vdW  Elec       q    Type
REMARK                         _______ _______ _______ _____ _____    ______ ____
ROOT
ATOM      1 BR   UNL     1      56.968 -52.810  60.345  0.00  0.00    +0.000 Br
ATOM      2  O   UNL     1      60.274 -46.792  59.079  0.00  0.00    +0.000 OA
ATOM      3  O   UNL     1      59.418 -45.808  61.794  0.00  0.00    +0.000 OA
ATOM      4  N   UNL     1      58.442 -47.926  61.848  0.00  0.00    +0.000 N 
ATOM      5  C   UNL     1      58.379 -49.003  60.968  0.00  0.00    +0.000 A 
ATOM      6  C   UNL     1      59.064 -48.737  59.785  0.00  0.00    +0.000 A 
ATOM      7  C   UNL     1      59.615 -47.387  59.899  0.00  0.00    +0.000 C 
ATOM      8  C   UNL     1      57.740 -50.207  61.175  0.00  0.00    +0.000 A 
ATOM      9  C   UNL     1      59.150 -49.645  58.751  0.00  0.00    +0.000 A 
ATOM     10  C   UNL     1      59.170 -46.885  61.303  0.00  0.00    +0.000 C 
ATOM     11  C   UNL     1      57.817 -51.139  60.138  0.00  0.00    +0.000 A 
ATOM     12  C   UNL     1      58.508 -50.870  58.944  0.00  0.00    +0.000 A 
ATOM     13  H   UNL     1      58.024 -47.880  62.766  0.00  0.00    +0.000 HD
ENDROOT
TORSDOF 0
ENDMDL
MODEL 6
REMARK VINA RESULT:      -4.2      5.320      6.305
REMARK  Name = 95716_6Bromoisatin.pdbqt.pdb
REMARK  0 active torsions:
REMARK  status: ('A' for Active; 'I' for Inactive)
REMARK                            x       y       z     vdW  Elec       q    Type
REMARK                         _______ _______ _______ _____ _____    ______ ____
ROOT
ATOM      1 BR   UNL     1      52.211 -50.457  44.598  0.00  0.00    +0.000 Br
ATOM      2  O   UNL     1      52.024 -45.216  49.206  0.00  0.00    +0.000 OA
ATOM      3  O   UNL     1      54.997 -44.874  48.863  0.00  0.00    +0.000 OA
ATOM      4  N   UNL     1      54.660 -46.650  47.389  0.00  0.00    +0.000 N 
ATOM      5  C   UNL     1      53.557 -47.393  46.979  0.00  0.00    +0.000 A 
ATOM      6  C   UNL     1      52.390 -46.962  47.605  0.00  0.00    +0.000 A 
ATOM      7  C   UNL     1      52.756 -45.857  48.490  0.00  0.00    +0.000 C 
ATOM      8  C   UNL     1      53.546 -48.433  46.075  0.00  0.00    +0.000 A 
ATOM      9  C   UNL     1      51.158 -47.537  47.369  0.00  0.00    +0.000 A 
ATOM     10  C   UNL     1      54.292 -45.685  48.308  0.00  0.00    +0.000 C 
ATOM     11  C   UNL     1      52.308 -49.028  45.823  0.00  0.00    +0.000 A 
ATOM     12  C   UNL     1      51.130 -48.592  46.456  0.00  0.00    +0.000 A 
ATOM     13  H   UNL     1      55.613 -46.773  47.076  0.00  0.00    +0.000 HD
ENDROOT
TORSDOF 0
ENDMDL
MODEL 7
REMARK VINA RESULT:      -4.2      9.277     10.186
REMARK  Name = 95716_6Bromoisatin.pdbqt.pdb
REMARK  0 active torsions:
REMARK  status: ('A' for Active; 'I' for Inactive)
REMARK                            x       y       z     vdW  Elec       q    Type
REMARK                         _______ _______ _______ _____ _____    ______ ____
ROOT
ATOM      1 BR   UNL     1      52.027 -55.355  53.193  0.00  0.00    +0.000 Br
ATOM      2  O   UNL     1      47.087 -52.718  57.362  0.00  0.00    +0.000 OA
ATOM      3  O   UNL     1      45.979 -51.201  55.008  0.00  0.00    +0.000 OA
ATOM      4  N   UNL     1      47.758 -52.275  53.948  0.00  0.00    +0.000 N 
ATOM      5  C   UNL     1      48.756 -53.158  54.351  0.00  0.00    +0.000 A 
ATOM      6  C   UNL     1      48.653 -53.460  55.706  0.00  0.00    +0.000 A 
ATOM      7  C   UNL     1      47.504 -52.721  56.228  0.00  0.00    +0.000 C 
ATOM      8  C   UNL     1      49.749 -53.703  53.565  0.00  0.00    +0.000 A 
ATOM      9  C   UNL     1      49.525 -54.314  56.350  0.00  0.00    +0.000 A 
ATOM     10  C   UNL     1      46.937 -51.940  55.008  0.00  0.00    +0.000 C 
ATOM     11  C   UNL     1      50.641 -54.569  54.200  0.00  0.00    +0.000 A 
ATOM     12  C   UNL     1      50.536 -54.874  55.569  0.00  0.00    +0.000 A 
ATOM     13  H   UNL     1      47.625 -51.910  53.015  0.00  0.00    +0.000 HD
ENDROOT
TORSDOF 0
ENDMDL
MODEL 8
REMARK VINA RESULT:      -4.2     19.112     20.097
REMARK  Name = 95716_6Bromoisatin.pdbqt.pdb
REMARK  0 active torsions:
REMARK  status: ('A' for Active; 'I' for Inactive)
REMARK                            x       y       z     vdW  Elec       q    Type
REMARK                         _______ _______ _______ _____ _____    ______ ____
ROOT
ATOM      1 BR   UNL     1      39.804 -58.183  62.848  0.00  0.00    +0.000 Br
ATOM      2  O   UNL     1      44.724 -54.186  65.773  0.00  0.00    +0.000 OA
ATOM      3  O   UNL     1      43.116 -54.156  68.320  0.00  0.00    +0.000 OA
ATOM      4  N   UNL     1      41.708 -55.479  67.013  0.00  0.00    +0.000 N 
ATOM      5  C   UNL     1      41.740 -55.959  65.707  0.00  0.00    +0.000 A 
ATOM      6  C   UNL     1      42.889 -55.541  65.038  0.00  0.00    +0.000 A 
ATOM      7  C   UNL     1      43.664 -54.730  65.975  0.00  0.00    +0.000 C 
ATOM      8  C   UNL     1      40.795 -56.748  65.088  0.00  0.00    +0.000 A 
ATOM      9  C   UNL     1      43.158 -55.883  63.729  0.00  0.00    +0.000 A 
ATOM     10  C   UNL     1      42.829 -54.718  67.288  0.00  0.00    +0.000 C 
ATOM     11  C   UNL     1      41.050 -57.104  63.762  0.00  0.00    +0.000 A 
ATOM     12  C   UNL     1      42.210 -56.683  63.089  0.00  0.00    +0.000 A 
ATOM     13  H   UNL     1      40.979 -55.646  67.692  0.00  0.00    +0.000 HD
ENDROOT
TORSDOF 0
ENDMDL
MODEL 9
REMARK VINA RESULT:      -4.1     20.417     21.829
REMARK  Name = 95716_6Bromoisatin.pdbqt.pdb
REMARK  0 active torsions:
REMARK  status: ('A' for Active; 'I' for Inactive)
REMARK                            x       y       z     vdW  Elec       q    Type
REMARK                         _______ _______ _______ _____ _____    ______ ____
ROOT
ATOM      1 BR   UNL     1      33.930 -25.350  57.266  0.00  0.00    +0.000 Br
ATOM      2  O   UNL     1      39.444 -29.316  55.649  0.00  0.00    +0.000 OA
ATOM      3  O   UNL     1      40.855 -26.855  54.637  0.00  0.00    +0.000 OA
ATOM      4  N   UNL     1      38.846 -25.877  55.306  0.00  0.00    +0.000 N 
ATOM      5  C   UNL     1      37.666 -26.343  55.878  0.00  0.00    +0.000 A 
ATOM      6  C   UNL     1      37.713 -27.719  56.096  0.00  0.00    +0.000 A 
ATOM      7  C   UNL     1      39.019 -28.185  55.631  0.00  0.00    +0.000 C 
ATOM      8  C   UNL     1      36.556 -25.600  56.214  0.00  0.00    +0.000 A 
ATOM      9  C   UNL     1      36.668 -28.424  56.653  0.00  0.00    +0.000 A 
ATOM     10  C   UNL     1      39.743 -26.910  55.110  0.00  0.00    +0.000 C 
ATOM     11  C   UNL     1      35.486 -26.297  56.780  0.00  0.00    +0.000 A 
ATOM     12  C   UNL     1      35.535 -27.685  56.998  0.00  0.00    +0.000 A 
ATOM     13  H   UNL     1      39.050 -24.920  55.056  0.00  0.00    +0.000 HD
ENDROOT
TORSDOF 0
ENDMDL
