MODEL 1
REMARK VINA RESULT:      -6.9      0.000      0.000
REMARK  Name = 969516_Curcumin.pdbqt.pdb
REMARK  8 active torsions:
REMARK  status: ('A' for Active; 'I' for Inactive)
REMARK    1  A    between atoms: C_3  and  C_5
REMARK    2  A    between atoms: C_4  and  C_6
REMARK    3  A    between atoms: C_8  and  O_12
REMARK    4  A    between atoms: C_10  and  O_14
REMARK    5  A    between atoms: C_17  and  C_19
REMARK    6  A    between atoms: C_18  and  C_20
REMARK    7  A    between atoms: C_22  and  O_26
REMARK    8  A    between atoms: C_24  and  O_28
REMARK                            x       y       z     vdW  Elec       q    Type
REMARK                         _______ _______ _______ _____ _____    ______ ____
ROOT
ATOM      1  C   UNL     1      48.125 -45.368  50.727  0.00  0.00    +0.000 C 
ATOM      2  O   UNL     1      46.385 -44.144  51.581  0.00  0.00    +0.000 OA
ATOM      3  C   UNL     1      47.433 -44.142  50.953  0.00  0.00    +0.000 C 
ATOM      4  O   UNL     1      49.676 -46.656  49.638  0.00  0.00    +0.000 OA
ATOM      5  C   UNL     1      48.811 -46.595  50.499  0.00  0.00    +0.000 C 
ENDROOT
BRANCH   3   7
ATOM      6  C   UNL     1      48.429 -41.881  50.015  0.00  0.00    +0.000 C 
ATOM      7  C   UNL     1      47.976 -42.909  50.441  0.00  0.00    +0.000 C 
BRANCH   6   8
ATOM      8  C   UNL     1      48.966 -40.659  49.511  0.00  0.00    +0.000 A 
ATOM      9  C   UNL     1      48.855 -39.489  50.262  0.00  0.00    +0.000 A 
ATOM     10  C   UNL     1      49.376 -38.284  49.783  0.00  0.00    +0.000 A 
ATOM     11  C   UNL     1      49.599 -40.636  48.272  0.00  0.00    +0.000 A 
ATOM     12  C   UNL     1      50.010 -38.273  48.537  0.00  0.00    +0.000 A 
ATOM     13  C   UNL     1      50.122 -39.441  47.785  0.00  0.00    +0.000 A 
BRANCH  10  14
ATOM     14  O   UNL     1      49.306 -37.094  50.466  0.00  0.00    +0.000 OA
ATOM     15  C   UNL     1      48.070 -36.438  50.434  0.00  0.00    +0.000 C 
ENDBRANCH  10  14
BRANCH  12  16
ATOM     16  O   UNL     1      50.550 -37.142  47.987  0.00  0.00    +0.000 OA
ATOM     17  H   UNL     1      51.510 -37.241  47.875  0.00  0.00    +0.000 HD
ENDBRANCH  12  16
ENDBRANCH   6   8
ENDBRANCH   3   7
BRANCH   5  19
ATOM     18  C   UNL     1      48.207 -48.722  51.945  0.00  0.00    +0.000 C 
ATOM     19  C   UNL     1      48.484 -47.756  51.287  0.00  0.00    +0.000 C 
BRANCH  18  20
ATOM     20  C   UNL     1      47.877 -49.866  52.730  0.00  0.00    +0.000 A 
ATOM     21  C   UNL     1      48.457 -51.100  52.439  0.00  0.00    +0.000 A 
ATOM     22  C   UNL     1      48.145 -52.230  53.200  0.00  0.00    +0.000 A 
ATOM     23  C   UNL     1      46.976 -49.749  53.787  0.00  0.00    +0.000 A 
ATOM     24  C   UNL     1      47.240 -52.098  54.256  0.00  0.00    +0.000 A 
ATOM     25  C   UNL     1      46.657 -50.867  54.552  0.00  0.00    +0.000 A 
BRANCH  22  26
ATOM     26  O   UNL     1      48.670 -53.480  52.980  0.00  0.00    +0.000 OA
ATOM     27  C   UNL     1      49.936 -53.712  53.542  0.00  0.00    +0.000 C 
ENDBRANCH  22  26
BRANCH  24  28
ATOM     28  O   UNL     1      46.922 -53.193  55.012  0.00  0.00    +0.000 OA
ATOM     29  H   UNL     1      47.376 -53.121  55.873  0.00  0.00    +0.000 HD
ENDBRANCH  24  28
ENDBRANCH  18  20
ENDBRANCH   5  19
TORSDOF 8
ENDMDL
MODEL 2
REMARK VINA RESULT:      -6.8      0.691     12.157
REMARK  Name = 969516_Curcumin.pdbqt.pdb
REMARK  8 active torsions:
REMARK  status: ('A' for Active; 'I' for Inactive)
REMARK    1  A    between atoms: C_3  and  C_5
REMARK    2  A    between atoms: C_4  and  C_6
REMARK    3  A    between atoms: C_8  and  O_12
REMARK    4  A    between atoms: C_10  and  O_14
REMARK    5  A    between atoms: C_17  and  C_19
REMARK    6  A    between atoms: C_18  and  C_20
REMARK    7  A    between atoms: C_22  and  O_26
REMARK    8  A    between atoms: C_24  and  O_28
REMARK                            x       y       z     vdW  Elec       q    Type
REMARK                         _______ _______ _______ _____ _____    ______ ____
ROOT
ATOM      1  C   UNL     1      48.015 -45.490  51.040  0.00  0.00    +0.000 C 
ATOM      2  O   UNL     1      49.843 -46.541  50.140  0.00  0.00    +0.000 OA
ATOM      3  C   UNL     1      48.866 -46.622  50.869  0.00  0.00    +0.000 C 
ATOM      4  O   UNL     1      46.045 -44.505  51.675  0.00  0.00    +0.000 OA
ATOM      5  C   UNL     1      47.164 -44.359  51.205  0.00  0.00    +0.000 C 
ENDROOT
BRANCH   3   7
ATOM      6  C   UNL     1      48.322 -48.876  52.136  0.00  0.00    +0.000 C 
ATOM      7  C   UNL     1      48.569 -47.851  51.560  0.00  0.00    +0.000 C 
BRANCH   6   8
ATOM      8  C   UNL     1      48.031 -50.093  52.821  0.00  0.00    +0.000 A 
ATOM      9  C   UNL     1      48.666 -51.274  52.439  0.00  0.00    +0.000 A 
ATOM     10  C   UNL     1      48.392 -52.476  53.099  0.00  0.00    +0.000 A 
ATOM     11  C   UNL     1      47.114 -50.100  53.868  0.00  0.00    +0.000 A 
ATOM     12  C   UNL     1      47.470 -52.471  54.150  0.00  0.00    +0.000 A 
ATOM     13  C   UNL     1      46.834 -51.290  54.533  0.00  0.00    +0.000 A 
BRANCH  10  14
ATOM     14  O   UNL     1      48.977 -53.676  52.780  0.00  0.00    +0.000 OA
ATOM     15  C   UNL     1      50.179 -53.968  53.437  0.00  0.00    +0.000 C 
ENDBRANCH  10  14
BRANCH  12  16
ATOM     16  O   UNL     1      47.138 -53.596  54.854  0.00  0.00    +0.000 OA
ATOM     17  H   UNL     1      47.889 -54.212  54.889  0.00  0.00    +0.000 HD
ENDBRANCH  12  16
ENDBRANCH   6   8
ENDBRANCH   3   7
BRANCH   5  19
ATOM     18  C   UNL     1      48.020 -41.961  50.502  0.00  0.00    +0.000 C 
ATOM     19  C   UNL     1      47.629 -43.051  50.820  0.00  0.00    +0.000 C 
BRANCH  18  20
ATOM     20  C   UNL     1      48.484 -40.665  50.129  0.00  0.00    +0.000 A 
ATOM     21  C   UNL     1      48.103 -39.550  50.874  0.00  0.00    +0.000 A 
ATOM     22  C   UNL     1      48.550 -38.273  50.521  0.00  0.00    +0.000 A 
ATOM     23  C   UNL     1      49.318 -40.515  49.023  0.00  0.00    +0.000 A 
ATOM     24  C   UNL     1      49.385 -38.138  49.410  0.00  0.00    +0.000 A 
ATOM     25  C   UNL     1      49.770 -39.250  48.662  0.00  0.00    +0.000 A 
BRANCH  22  26
ATOM     26  O   UNL     1      48.222 -37.124  51.199  0.00  0.00    +0.000 OA
ATOM     27  C   UNL     1      46.875 -36.737  51.118  0.00  0.00    +0.000 C 
ENDBRANCH  22  26
BRANCH  24  28
ATOM     28  O   UNL     1      49.834 -36.897  49.049  0.00  0.00    +0.000 OA
ATOM     29  H   UNL     1      50.398 -36.548  49.765  0.00  0.00    +0.000 HD
ENDBRANCH  24  28
ENDBRANCH  18  20
ENDBRANCH   5  19
TORSDOF 8
ENDMDL
MODEL 3
REMARK VINA RESULT:      -6.8      1.712     11.876
REMARK  Name = 969516_Curcumin.pdbqt.pdb
REMARK  8 active torsions:
REMARK  status: ('A' for Active; 'I' for Inactive)
REMARK    1  A    between atoms: C_3  and  C_5
REMARK    2  A    between atoms: C_4  and  C_6
REMARK    3  A    between atoms: C_8  and  O_12
REMARK    4  A    between atoms: C_10  and  O_14
REMARK    5  A    between atoms: C_17  and  C_19
REMARK    6  A    between atoms: C_18  and  C_20
REMARK    7  A    between atoms: C_22  and  O_26
REMARK    8  A    between atoms: C_24  and  O_28
REMARK                            x       y       z     vdW  Elec       q    Type
REMARK                         _______ _______ _______ _____ _____    ______ ____
ROOT
ATOM      1  C   UNL     1      48.426 -44.844  50.797  0.00  0.00    +0.000 C 
ATOM      2  O   UNL     1      47.905 -44.328  52.969  0.00  0.00    +0.000 OA
ATOM      3  C   UNL     1      47.905 -45.170  52.083  0.00  0.00    +0.000 C 
ATOM      4  O   UNL     1      49.233 -45.410  48.728  0.00  0.00    +0.000 OA
ATOM      5  C   UNL     1      48.952 -44.517  49.514  0.00  0.00    +0.000 C 
ENDROOT
BRANCH   3   7
ATOM      6  C   UNL     1      46.940 -47.589  52.532  0.00  0.00    +0.000 C 
ATOM      7  C   UNL     1      47.378 -46.489  52.329  0.00  0.00    +0.000 C 
BRANCH   6   8
ATOM      8  C   UNL     1      46.420 -48.895  52.773  0.00  0.00    +0.000 A 
ATOM      9  C   UNL     1      46.719 -49.553  53.966  0.00  0.00    +0.000 A 
ATOM     10  C   UNL     1      46.219 -50.833  54.218  0.00  0.00    +0.000 A 
ATOM     11  C   UNL     1      45.617 -49.512  51.818  0.00  0.00    +0.000 A 
ATOM     12  C   UNL     1      45.412 -51.443  53.252  0.00  0.00    +0.000 A 
ATOM     13  C   UNL     1      45.112 -50.787  52.058  0.00  0.00    +0.000 A 
BRANCH  10  14
ATOM     14  O   UNL     1      46.469 -51.541  55.368  0.00  0.00    +0.000 OA
ATOM     15  C   UNL     1      47.577 -52.396  55.335  0.00  0.00    +0.000 C 
ENDBRANCH  10  14
BRANCH  12  16
ATOM     16  O   UNL     1      44.878 -52.692  53.409  0.00  0.00    +0.000 OA
ATOM     17  H   UNL     1      44.837 -53.157  52.557  0.00  0.00    +0.000 HD
ENDBRANCH  12  16
ENDBRANCH   6   8
ENDBRANCH   3   7
BRANCH   5  19
ATOM     18  C   UNL     1      49.312 -41.986  48.847  0.00  0.00    +0.000 C 
ATOM     19  C   UNL     1      49.146 -43.136  49.150  0.00  0.00    +0.000 C 
BRANCH  18  20
ATOM     20  C   UNL     1      49.512 -40.620  48.490  0.00  0.00    +0.000 A 
ATOM     21  C   UNL     1      49.490 -39.634  49.475  0.00  0.00    +0.000 A 
ATOM     22  C   UNL     1      49.686 -38.291  49.141  0.00  0.00    +0.000 A 
ATOM     23  C   UNL     1      49.731 -40.273  47.158  0.00  0.00    +0.000 A 
ATOM     24  C   UNL     1      49.904 -37.958  47.802  0.00  0.00    +0.000 A 
ATOM     25  C   UNL     1      49.927 -38.939  46.813  0.00  0.00    +0.000 A 
BRANCH  22  26
ATOM     26  O   UNL     1      49.679 -37.259  50.048  0.00  0.00    +0.000 OA
ATOM     27  C   UNL     1      49.300 -37.604  51.355  0.00  0.00    +0.000 C 
ENDBRANCH  22  26
BRANCH  24  28
ATOM     28  O   UNL     1      50.098 -36.649  47.455  0.00  0.00    +0.000 OA
ATOM     29  H   UNL     1      49.839 -36.084  48.208  0.00  0.00    +0.000 HD
ENDBRANCH  24  28
ENDBRANCH  18  20
ENDBRANCH   5  19
TORSDOF 8
ENDMDL
MODEL 4
REMARK VINA RESULT:      -6.7      2.159      3.068
REMARK  Name = 969516_Curcumin.pdbqt.pdb
REMARK  8 active torsions:
REMARK  status: ('A' for Active; 'I' for Inactive)
REMARK    1  A    between atoms: C_3  and  C_5
REMARK    2  A    between atoms: C_4  and  C_6
REMARK    3  A    between atoms: C_8  and  O_12
REMARK    4  A    between atoms: C_10  and  O_14
REMARK    5  A    between atoms: C_17  and  C_19
REMARK    6  A    between atoms: C_18  and  C_20
REMARK    7  A    between atoms: C_22  and  O_26
REMARK    8  A    between atoms: C_24  and  O_28
REMARK                            x       y       z     vdW  Elec       q    Type
REMARK                         _______ _______ _______ _____ _____    ______ ____
ROOT
ATOM      1  C   UNL     1      46.977 -47.507  52.288  0.00  0.00    +0.000 C 
ATOM      2  O   UNL     1      45.296 -46.152  53.059  0.00  0.00    +0.000 OA
ATOM      3  C   UNL     1      46.330 -46.242  52.414  0.00  0.00    +0.000 C 
ATOM      4  O   UNL     1      48.463 -48.940  51.293  0.00  0.00    +0.000 OA
ATOM      5  C   UNL     1      47.618 -48.772  52.160  0.00  0.00    +0.000 C 
ENDROOT
BRANCH   3   7
ATOM      6  C   UNL     1      47.380 -44.111  51.258  0.00  0.00    +0.000 C 
ATOM      7  C   UNL     1      46.903 -45.080  51.784  0.00  0.00    +0.000 C 
BRANCH   6   8
ATOM      8  C   UNL     1      47.944 -42.959  50.634  0.00  0.00    +0.000 A 
ATOM      9  C   UNL     1      47.462 -41.690  50.952  0.00  0.00    +0.000 A 
ATOM     10  C   UNL     1      48.004 -40.550  50.350  0.00  0.00    +0.000 A 
ATOM     11  C   UNL     1      48.974 -43.103  49.708  0.00  0.00    +0.000 A 
ATOM     12  C   UNL     1      49.038 -40.707  49.422  0.00  0.00    +0.000 A 
ATOM     13  C   UNL     1      49.521 -41.975  49.102  0.00  0.00    +0.000 A 
BRANCH  10  14
ATOM     14  O   UNL     1      47.583 -39.270  50.614  0.00  0.00    +0.000 OA
ATOM     15  C   UNL     1      48.362 -38.541  51.520  0.00  0.00    +0.000 C 
ENDBRANCH  10  14
BRANCH  12  16
ATOM     16  O   UNL     1      49.630 -39.653  48.782  0.00  0.00    +0.000 OA
ATOM     17  H   UNL     1      50.548 -39.866  48.547  0.00  0.00    +0.000 HD
ENDBRANCH  12  16
ENDBRANCH   6   8
ENDBRANCH   3   7
BRANCH   5  19
ATOM     18  C   UNL     1      46.976 -50.738  53.804  0.00  0.00    +0.000 C 
ATOM     19  C   UNL     1      47.269 -49.846  53.056  0.00  0.00    +0.000 C 
BRANCH  18  20
ATOM     20  C   UNL     1      46.628 -51.795  54.697  0.00  0.00    +0.000 A 
ATOM     21  C   UNL     1      47.520 -52.180  55.698  0.00  0.00    +0.000 A 
ATOM     22  C   UNL     1      47.193 -53.213  56.580  0.00  0.00    +0.000 A 
ATOM     23  C   UNL     1      45.400 -52.439  54.569  0.00  0.00    +0.000 A 
ATOM     24  C   UNL     1      45.958 -53.850  56.440  0.00  0.00    +0.000 A 
ATOM     25  C   UNL     1      45.063 -53.469  55.442  0.00  0.00    +0.000 A 
BRANCH  22  26
ATOM     26  O   UNL     1      48.012 -53.655  57.592  0.00  0.00    +0.000 OA
ATOM     27  C   UNL     1      49.384 -53.667  57.297  0.00  0.00    +0.000 C 
ENDBRANCH  22  26
BRANCH  24  28
ATOM     28  O   UNL     1      45.620 -54.864  57.295  0.00  0.00    +0.000 OA
ATOM     29  H   UNL     1      44.865 -55.353  56.917  0.00  0.00    +0.000 HD
ENDBRANCH  24  28
ENDBRANCH  18  20
ENDBRANCH   5  19
TORSDOF 8
ENDMDL
MODEL 5
REMARK VINA RESULT:      -6.7      2.360     12.223
REMARK  Name = 969516_Curcumin.pdbqt.pdb
REMARK  8 active torsions:
REMARK  status: ('A' for Active; 'I' for Inactive)
REMARK    1  A    between atoms: C_3  and  C_5
REMARK    2  A    between atoms: C_4  and  C_6
REMARK    3  A    between atoms: C_8  and  O_12
REMARK    4  A    between atoms: C_10  and  O_14
REMARK    5  A    between atoms: C_17  and  C_19
REMARK    6  A    between atoms: C_18  and  C_20
REMARK    7  A    between atoms: C_22  and  O_26
REMARK    8  A    between atoms: C_24  and  O_28
REMARK                            x       y       z     vdW  Elec       q    Type
REMARK                         _______ _______ _______ _____ _____    ______ ____
ROOT
ATOM      1  C   UNL     1      46.881 -47.617  52.405  0.00  0.00    +0.000 C 
ATOM      2  O   UNL     1      48.686 -48.892  51.795  0.00  0.00    +0.000 OA
ATOM      3  C   UNL     1      47.662 -48.810  52.456  0.00  0.00    +0.000 C 
ATOM      4  O   UNL     1      44.947 -46.438  52.752  0.00  0.00    +0.000 OA
ATOM      5  C   UNL     1      46.101 -46.427  52.349  0.00  0.00    +0.000 C 
ENDROOT
BRANCH   3   7
ATOM      6  C   UNL     1      46.885 -50.822  53.982  0.00  0.00    +0.000 C 
ATOM      7  C   UNL     1      47.239 -49.907  53.288  0.00  0.00    +0.000 C 
BRANCH   6   8
ATOM      8  C   UNL     1      46.464 -51.909  54.804  0.00  0.00    +0.000 A 
ATOM      9  C   UNL     1      47.326 -52.422  55.773  0.00  0.00    +0.000 A 
ATOM     10  C   UNL     1      46.930 -53.487  56.587  0.00  0.00    +0.000 A 
ATOM     11  C   UNL     1      45.196 -52.457  54.638  0.00  0.00    +0.000 A 
ATOM     12  C   UNL     1      45.653 -54.029  56.412  0.00  0.00    +0.000 A 
ATOM     13  C   UNL     1      44.790 -53.518  55.444  0.00  0.00    +0.000 A 
BRANCH  10  14
ATOM     14  O   UNL     1      47.722 -54.042  57.561  0.00  0.00    +0.000 OA
ATOM     15  C   UNL     1      49.068 -53.655  57.556  0.00  0.00    +0.000 C 
ENDBRANCH  10  14
BRANCH  12  16
ATOM     16  O   UNL     1      45.178 -55.071  57.160  0.00  0.00    +0.000 OA
ATOM     17  H   UNL     1      44.563 -55.614  56.639  0.00  0.00    +0.000 HD
ENDBRANCH  12  16
ENDBRANCH   6   8
ENDBRANCH   3   7
BRANCH   5  19
ATOM     18  C   UNL     1      47.161 -44.211  51.376  0.00  0.00    +0.000 C 
ATOM     19  C   UNL     1      46.678 -45.217  51.820  0.00  0.00    +0.000 C 
BRANCH  18  20
ATOM     20  C   UNL     1      47.739 -43.018  50.851  0.00  0.00    +0.000 A 
ATOM     21  C   UNL     1      48.400 -43.048  49.624  0.00  0.00    +0.000 A 
ATOM     22  C   UNL     1      48.971 -41.887  49.096  0.00  0.00    +0.000 A 
ATOM     23  C   UNL     1      47.643 -41.825  51.565  0.00  0.00    +0.000 A 
ATOM     24  C   UNL     1      48.867 -40.698  49.822  0.00  0.00    +0.000 A 
ATOM     25  C   UNL     1      48.208 -40.662  51.050  0.00  0.00    +0.000 A 
BRANCH  22  26
ATOM     26  O   UNL     1      49.639 -41.829  47.897  0.00  0.00    +0.000 OA
ATOM     27  C   UNL     1      48.832 -41.911  46.750  0.00  0.00    +0.000 C 
ENDBRANCH  22  26
BRANCH  24  28
ATOM     28  O   UNL     1      49.419 -39.550  49.322  0.00  0.00    +0.000 OA
ATOM     29  H   UNL     1      48.924 -38.786  49.672  0.00  0.00    +0.000 HD
ENDBRANCH  24  28
ENDBRANCH  18  20
ENDBRANCH   5  19
TORSDOF 8
ENDMDL
MODEL 6
REMARK VINA RESULT:      -6.6      4.431      8.102
REMARK  Name = 969516_Curcumin.pdbqt.pdb
REMARK  8 active torsions:
REMARK  status: ('A' for Active; 'I' for Inactive)
REMARK    1  A    between atoms: C_3  and  C_5
REMARK    2  A    between atoms: C_4  and  C_6
REMARK    3  A    between atoms: C_8  and  O_12
REMARK    4  A    between atoms: C_10  and  O_14
REMARK    5  A    between atoms: C_17  and  C_19
REMARK    6  A    between atoms: C_18  and  C_20
REMARK    7  A    between atoms: C_22  and  O_26
REMARK    8  A    between atoms: C_24  and  O_28
REMARK                            x       y       z     vdW  Elec       q    Type
REMARK                         _______ _______ _______ _____ _____    ______ ____
ROOT
ATOM      1  C   UNL     1      49.411 -38.036  47.734  0.00  0.00    +0.000 C 
ATOM      2  O   UNL     1      48.311 -36.421  48.933  0.00  0.00    +0.000 OA
ATOM      3  C   UNL     1      49.103 -36.677  48.039  0.00  0.00    +0.000 C 
ATOM      4  O   UNL     1      50.254 -39.672  46.369  0.00  0.00    +0.000 OA
ATOM      5  C   UNL     1      49.713 -39.394  47.429  0.00  0.00    +0.000 C 
ENDROOT
BRANCH   3   7
ATOM      6  C   UNL     1      50.256 -34.733  46.670  0.00  0.00    +0.000 C 
ATOM      7  C   UNL     1      49.732 -35.617  47.293  0.00  0.00    +0.000 C 
BRANCH   6   8
ATOM      8  C   UNL     1      50.876 -33.683  45.930  0.00  0.00    +0.000 A 
ATOM      9  C   UNL     1      51.470 -32.616  46.603  0.00  0.00    +0.000 A 
ATOM     10  C   UNL     1      52.082 -31.578  45.894  0.00  0.00    +0.000 A 
ATOM     11  C   UNL     1      50.887 -33.724  44.539  0.00  0.00    +0.000 A 
ATOM     12  C   UNL     1      52.088 -31.631  44.496  0.00  0.00    +0.000 A 
ATOM     13  C   UNL     1      51.494 -32.697  43.822  0.00  0.00    +0.000 A 
BRANCH  10  14
ATOM     14  O   UNL     1      52.687 -30.497  46.486  0.00  0.00    +0.000 OA
ATOM     15  C   UNL     1      51.830 -29.553  47.065  0.00  0.00    +0.000 C 
ENDBRANCH  10  14
BRANCH  12  16
ATOM     16  O   UNL     1      52.661 -30.663  43.718  0.00  0.00    +0.000 OA
ATOM     17  H   UNL     1      53.555 -30.451  44.038  0.00  0.00    +0.000 HD
ENDBRANCH  12  16
ENDBRANCH   6   8
ENDBRANCH   3   7
BRANCH   5  19
ATOM     18  C   UNL     1      49.102 -41.293  49.162  0.00  0.00    +0.000 C 
ATOM     19  C   UNL     1      49.381 -40.431  48.373  0.00  0.00    +0.000 C 
BRANCH  18  20
ATOM     20  C   UNL     1      48.771 -42.313  50.102  0.00  0.00    +0.000 A 
ATOM     21  C   UNL     1      48.895 -43.654  49.744  0.00  0.00    +0.000 A 
ATOM     22  C   UNL     1      48.575 -44.665  50.655  0.00  0.00    +0.000 A 
ATOM     23  C   UNL     1      48.326 -41.967  51.377  0.00  0.00    +0.000 A 
ATOM     24  C   UNL     1      48.130 -44.304  51.929  0.00  0.00    +0.000 A 
ATOM     25  C   UNL     1      48.004 -42.965  52.292  0.00  0.00    +0.000 A 
BRANCH  22  26
ATOM     26  O   UNL     1      48.668 -46.009  50.384  0.00  0.00    +0.000 OA
ATOM     27  C   UNL     1      49.964 -46.488  50.133  0.00  0.00    +0.000 C 
ENDBRANCH  22  26
BRANCH  24  28
ATOM     28  O   UNL     1      47.812 -45.280  52.834  0.00  0.00    +0.000 OA
ATOM     29  H   UNL     1      47.027 -45.761  52.512  0.00  0.00    +0.000 HD
ENDBRANCH  24  28
ENDBRANCH  18  20
ENDBRANCH   5  19
TORSDOF 8
ENDMDL
MODEL 7
REMARK VINA RESULT:      -6.5      4.449     14.552
REMARK  Name = 969516_Curcumin.pdbqt.pdb
REMARK  8 active torsions:
REMARK  status: ('A' for Active; 'I' for Inactive)
REMARK    1  A    between atoms: C_3  and  C_5
REMARK    2  A    between atoms: C_4  and  C_6
REMARK    3  A    between atoms: C_8  and  O_12
REMARK    4  A    between atoms: C_10  and  O_14
REMARK    5  A    between atoms: C_17  and  C_19
REMARK    6  A    between atoms: C_18  and  C_20
REMARK    7  A    between atoms: C_22  and  O_26
REMARK    8  A    between atoms: C_24  and  O_28
REMARK                            x       y       z     vdW  Elec       q    Type
REMARK                         _______ _______ _______ _____ _____    ______ ____
ROOT
ATOM      1  C   UNL     1      49.375 -38.021  47.786  0.00  0.00    +0.000 C 
ATOM      2  O   UNL     1      50.252 -39.646  46.427  0.00  0.00    +0.000 OA
ATOM      3  C   UNL     1      49.698 -39.377  47.482  0.00  0.00    +0.000 C 
ATOM      4  O   UNL     1      48.245 -36.418  48.971  0.00  0.00    +0.000 OA
ATOM      5  C   UNL     1      49.049 -36.667  48.085  0.00  0.00    +0.000 C 
ENDROOT
BRANCH   3   7
ATOM      6  C   UNL     1      49.102 -41.286  49.209  0.00  0.00    +0.000 C 
ATOM      7  C   UNL     1      49.373 -40.418  48.424  0.00  0.00    +0.000 C 
BRANCH   6   8
ATOM      8  C   UNL     1      48.781 -42.316  50.143  0.00  0.00    +0.000 A 
ATOM      9  C   UNL     1      49.021 -43.650  49.816  0.00  0.00    +0.000 A 
ATOM     10  C   UNL     1      48.711 -44.671  50.719  0.00  0.00    +0.000 A 
ATOM     11  C   UNL     1      48.228 -41.988  51.378  0.00  0.00    +0.000 A 
ATOM     12  C   UNL     1      48.157 -44.330  51.957  0.00  0.00    +0.000 A 
ATOM     13  C   UNL     1      47.917 -42.996  52.285  0.00  0.00    +0.000 A 
BRANCH  10  14
ATOM     14  O   UNL     1      48.920 -46.005  50.468  0.00  0.00    +0.000 OA
ATOM     15  C   UNL     1      48.015 -46.615  49.591  0.00  0.00    +0.000 C 
ENDBRANCH  10  14
BRANCH  12  16
ATOM     16  O   UNL     1      47.823 -45.258  52.904  0.00  0.00    +0.000 OA
ATOM     17  H   UNL     1      47.805 -46.150  52.518  0.00  0.00    +0.000 HD
ENDBRANCH  12  16
ENDBRANCH   6   8
ENDBRANCH   3   7
BRANCH   5  19
ATOM     18  C   UNL     1      50.191 -34.714  46.721  0.00  0.00    +0.000 C 
ATOM     19  C   UNL     1      49.671 -35.601  47.343  0.00  0.00    +0.000 C 
BRANCH  18  20
ATOM     20  C   UNL     1      50.813 -33.664  45.983  0.00  0.00    +0.000 A 
ATOM     21  C   UNL     1      50.190 -32.420  45.886  0.00  0.00    +0.000 A 
ATOM     22  C   UNL     1      50.788 -31.381  45.167  0.00  0.00    +0.000 A 
ATOM     23  C   UNL     1      52.042 -33.882  45.363  0.00  0.00    +0.000 A 
ATOM     24  C   UNL     1      52.019 -31.614  44.549  0.00  0.00    +0.000 A 
ATOM     25  C   UNL     1      52.646 -32.855  44.644  0.00  0.00    +0.000 A 
BRANCH  22  26
ATOM     26  O   UNL     1      50.243 -30.128  45.020  0.00  0.00    +0.000 OA
ATOM     27  C   UNL     1      50.188 -29.352  46.189  0.00  0.00    +0.000 C 
ENDBRANCH  22  26
BRANCH  24  28
ATOM     28  O   UNL     1      52.620 -30.609  43.841  0.00  0.00    +0.000 OA
ATOM     29  H   UNL     1      51.990 -30.279  43.172  0.00  0.00    +0.000 HD
ENDBRANCH  24  28
ENDBRANCH  18  20
ENDBRANCH   5  19
TORSDOF 8
ENDMDL
MODEL 8
REMARK VINA RESULT:      -6.5      2.331     12.388
REMARK  Name = 969516_Curcumin.pdbqt.pdb
REMARK  8 active torsions:
REMARK  status: ('A' for Active; 'I' for Inactive)
REMARK    1  A    between atoms: C_3  and  C_5
REMARK    2  A    between atoms: C_4  and  C_6
REMARK    3  A    between atoms: C_8  and  O_12
REMARK    4  A    between atoms: C_10  and  O_14
REMARK    5  A    between atoms: C_17  and  C_19
REMARK    6  A    between atoms: C_18  and  C_20
REMARK    7  A    between atoms: C_22  and  O_26
REMARK    8  A    between atoms: C_24  and  O_28
REMARK                            x       y       z     vdW  Elec       q    Type
REMARK                         _______ _______ _______ _____ _____    ______ ____
ROOT
ATOM      1  C   UNL     1      46.868 -47.718  52.258  0.00  0.00    +0.000 C 
ATOM      2  O   UNL     1      47.904 -49.314  50.980  0.00  0.00    +0.000 OA
ATOM      3  C   UNL     1      47.288 -49.057  52.003  0.00  0.00    +0.000 C 
ATOM      4  O   UNL     1      45.589 -46.162  53.352  0.00  0.00    +0.000 OA
ATOM      5  C   UNL     1      46.446 -46.380  52.508  0.00  0.00    +0.000 C 
ENDROOT
BRANCH   3   7
ATOM      6  C   UNL     1      46.732 -50.961  53.749  0.00  0.00    +0.000 C 
ATOM      7  C   UNL     1      46.985 -50.095  52.956  0.00  0.00    +0.000 C 
BRANCH   6   8
ATOM      8  C   UNL     1      46.433 -51.991  54.690  0.00  0.00    +0.000 A 
ATOM      9  C   UNL     1      45.233 -52.694  54.592  0.00  0.00    +0.000 A 
ATOM     10  C   UNL     1      44.924 -53.706  55.505  0.00  0.00    +0.000 A 
ATOM     11  C   UNL     1      47.338 -52.292  55.704  0.00  0.00    +0.000 A 
ATOM     12  C   UNL     1      45.841 -54.000  56.519  0.00  0.00    +0.000 A 
ATOM     13  C   UNL     1      47.041 -53.298  56.619  0.00  0.00    +0.000 A 
BRANCH  10  14
ATOM     14  O   UNL     1      43.765 -54.441  55.471  0.00  0.00    +0.000 OA
ATOM     15  C   UNL     1      42.574 -53.720  55.624  0.00  0.00    +0.000 C 
ENDBRANCH  10  14
BRANCH  12  16
ATOM     16  O   UNL     1      45.626 -54.972  57.458  0.00  0.00    +0.000 OA
ATOM     17  H   UNL     1      45.076 -54.632  58.183  0.00  0.00    +0.000 HD
ENDBRANCH  12  16
ENDBRANCH   6   8
ENDBRANCH   3   7
BRANCH   5  19
ATOM     18  C   UNL     1      47.522 -44.389  51.145  0.00  0.00    +0.000 C 
ATOM     19  C   UNL     1      47.034 -45.294  51.767  0.00  0.00    +0.000 C 
BRANCH  18  20
ATOM     20  C   UNL     1      48.102 -43.318  50.404  0.00  0.00    +0.000 A 
ATOM     21  C   UNL     1      47.657 -42.012  50.606  0.00  0.00    +0.000 A 
ATOM     22  C   UNL     1      48.216 -40.952  49.888  0.00  0.00    +0.000 A 
ATOM     23  C   UNL     1      49.112 -43.577  49.480  0.00  0.00    +0.000 A 
ATOM     24  C   UNL     1      49.228 -41.226  48.965  0.00  0.00    +0.000 A 
ATOM     25  C   UNL     1      49.677 -42.530  48.758  0.00  0.00    +0.000 A 
BRANCH  22  26
ATOM     26  O   UNL     1      47.837 -39.638  50.025  0.00  0.00    +0.000 OA
ATOM     27  C   UNL     1      48.355 -38.973  51.148  0.00  0.00    +0.000 C 
ENDBRANCH  22  26
BRANCH  24  28
ATOM     28  O   UNL     1      49.788 -40.202  48.251  0.00  0.00    +0.000 OA
ATOM     29  H   UNL     1      49.771 -39.394  48.799  0.00  0.00    +0.000 HD
ENDBRANCH  24  28
ENDBRANCH  18  20
ENDBRANCH   5  19
TORSDOF 8
ENDMDL
MODEL 9
REMARK VINA RESULT:      -6.3      4.746     12.209
REMARK  Name = 969516_Curcumin.pdbqt.pdb
REMARK  8 active torsions:
REMARK  status: ('A' for Active; 'I' for Inactive)
REMARK    1  A    between atoms: C_3  and  C_5
REMARK    2  A    between atoms: C_4  and  C_6
REMARK    3  A    between atoms: C_8  and  O_12
REMARK    4  A    between atoms: C_10  and  O_14
REMARK    5  A    between atoms: C_17  and  C_19
REMARK    6  A    between atoms: C_18  and  C_20
REMARK    7  A    between atoms: C_22  and  O_26
REMARK    8  A    between atoms: C_24  and  O_28
REMARK                            x       y       z     vdW  Elec       q    Type
REMARK                         _______ _______ _______ _____ _____    ______ ____
ROOT
ATOM      1  C   UNL     1      49.188 -49.202  51.434  0.00  0.00    +0.000 C 
ATOM      2  O   UNL     1      48.451 -50.919  50.108  0.00  0.00    +0.000 OA
ATOM      3  C   UNL     1      48.565 -50.469  51.237  0.00  0.00    +0.000 C 
ATOM      4  O   UNL     1      49.662 -47.342  52.687  0.00  0.00    +0.000 OA
ATOM      5  C   UNL     1      49.807 -47.933  51.627  0.00  0.00    +0.000 C 
ENDROOT
BRANCH   3   7
ATOM      6  C   UNL     1      47.674 -51.831  53.319  0.00  0.00    +0.000 C 
ATOM      7  C   UNL     1      48.079 -51.211  52.373  0.00  0.00    +0.000 C 
BRANCH   6   8
ATOM      8  C   UNL     1      47.195 -52.567  54.444  0.00  0.00    +0.000 A 
ATOM      9  C   UNL     1      45.906 -53.097  54.429  0.00  0.00    +0.000 A 
ATOM     10  C   UNL     1      45.420 -53.821  55.522  0.00  0.00    +0.000 A 
ATOM     11  C   UNL     1      48.014 -52.754  55.553  0.00  0.00    +0.000 A 
ATOM     12  C   UNL     1      46.252 -54.003  56.631  0.00  0.00    +0.000 A 
ATOM     13  C   UNL     1      47.542 -53.474  56.647  0.00  0.00    +0.000 A 
BRANCH  10  14
ATOM     14  O   UNL     1      44.164 -54.372  55.579  0.00  0.00    +0.000 OA
ATOM     15  C   UNL     1      43.098 -53.503  55.318  0.00  0.00    +0.000 C 
ENDBRANCH  10  14
BRANCH  12  16
ATOM     16  O   UNL     1      45.865 -54.696  57.745  0.00  0.00    +0.000 OA
ATOM     17  H   UNL     1      45.491 -54.094  58.410  0.00  0.00    +0.000 HD
ENDBRANCH  12  16
ENDBRANCH   6   8
ENDBRANCH   3   7
BRANCH   5  19
ATOM     18  C   UNL     1      51.260 -46.871  49.693  0.00  0.00    +0.000 C 
ATOM     19  C   UNL     1      50.601 -47.355  50.573  0.00  0.00    +0.000 C 
BRANCH  18  20
ATOM     20  C   UNL     1      52.038 -46.296  48.645  0.00  0.00    +0.000 A 
ATOM     21  C   UNL     1      51.414 -45.556  47.642  0.00  0.00    +0.000 A 
ATOM     22  C   UNL     1      52.163 -44.986  46.609  0.00  0.00    +0.000 A 
ATOM     23  C   UNL     1      53.420 -46.473  48.627  0.00  0.00    +0.000 A 
ATOM     24  C   UNL     1      53.548 -45.171  46.604  0.00  0.00    +0.000 A 
ATOM     25  C   UNL     1      54.177 -45.910  47.604  0.00  0.00    +0.000 A 
BRANCH  22  26
ATOM     26  O   UNL     1      51.628 -44.244  45.583  0.00  0.00    +0.000 OA
ATOM     27  C   UNL     1      50.230 -44.116  45.594  0.00  0.00    +0.000 C 
ENDBRANCH  22  26
BRANCH  24  28
ATOM     28  O   UNL     1      54.298 -44.621  45.601  0.00  0.00    +0.000 OA
ATOM     29  H   UNL     1      54.025 -45.017  44.752  0.00  0.00    +0.000 HD
ENDBRANCH  24  28
ENDBRANCH  18  20
ENDBRANCH   5  19
TORSDOF 8
ENDMDL
