MODEL 1
REMARK VINA RESULT:      -4.4      0.000      0.000
REMARK  Name = 971_OxalicAcid.pdbqt.pdb
REMARK  3 active torsions:
REMARK  status: ('A' for Active; 'I' for Inactive)
REMARK    1  A    between atoms: C_2  and  O_3
REMARK    2  A    between atoms: C_2  and  C_6
REMARK    3  A    between atoms: C_6  and  O_7
REMARK                            x       y       z     vdW  Elec       q    Type
REMARK                         _______ _______ _______ _____ _____    ______ ____
ROOT
ATOM      1  O   UNL     1      40.632 -30.089  51.829  0.00  0.00    +0.000 OA
ATOM      2  C   UNL     1      41.414 -30.954  51.485  0.00  0.00    +0.000 C 
ENDROOT
BRANCH   2   3
ATOM      3  O   UNL     1      41.032 -32.228  51.317  0.00  0.00    +0.000 OA
ATOM      4  H   UNL     1      40.661 -32.489  52.184  0.00  0.00    +0.000 HD
ENDBRANCH   2   3
BRANCH   2   6
ATOM      5  O   UNL     1      43.580 -29.767  51.528  0.00  0.00    +0.000 OA
ATOM      6  C   UNL     1      42.930 -30.737  51.191  0.00  0.00    +0.000 C 
BRANCH   6   7
ATOM      7  O   UNL     1      43.476 -31.754  50.509  0.00  0.00    +0.000 OA
ATOM      8  H   UNL     1      42.882 -31.881  49.742  0.00  0.00    +0.000 HD
ENDBRANCH   6   7
ENDBRANCH   2   6
TORSDOF 3
ENDMDL
MODEL 2
REMARK VINA RESULT:      -4.1      1.584      2.118
REMARK  Name = 971_OxalicAcid.pdbqt.pdb
REMARK  3 active torsions:
REMARK  status: ('A' for Active; 'I' for Inactive)
REMARK    1  A    between atoms: C_2  and  O_3
REMARK    2  A    between atoms: C_2  and  C_6
REMARK    3  A    between atoms: C_6  and  O_7
REMARK                            x       y       z     vdW  Elec       q    Type
REMARK                         _______ _______ _______ _____ _____    ______ ____
ROOT
ATOM      1  O   UNL     1      40.365 -29.248  53.353  0.00  0.00    +0.000 OA
ATOM      2  C   UNL     1      40.690 -30.397  53.126  0.00  0.00    +0.000 C 
ENDROOT
BRANCH   2   3
ATOM      3  O   UNL     1      40.442 -31.388  53.994  0.00  0.00    +0.000 OA
ATOM      4  H   UNL     1      39.580 -31.154  54.393  0.00  0.00    +0.000 HD
ENDBRANCH   2   3
BRANCH   2   6
ATOM      5  O   UNL     1      42.398 -30.368  51.340  0.00  0.00    +0.000 OA
ATOM      6  C   UNL     1      41.422 -30.892  51.840  0.00  0.00    +0.000 C 
BRANCH   6   7
ATOM      7  O   UNL     1      40.857 -31.988  51.314  0.00  0.00    +0.000 OA
ATOM      8  H   UNL     1      41.473 -32.264  50.606  0.00  0.00    +0.000 HD
ENDBRANCH   6   7
ENDBRANCH   2   6
TORSDOF 3
ENDMDL
MODEL 3
REMARK VINA RESULT:      -3.9      6.345      7.593
REMARK  Name = 971_OxalicAcid.pdbqt.pdb
REMARK  3 active torsions:
REMARK  status: ('A' for Active; 'I' for Inactive)
REMARK    1  A    between atoms: C_2  and  O_3
REMARK    2  A    between atoms: C_2  and  C_6
REMARK    3  A    between atoms: C_6  and  O_7
REMARK                            x       y       z     vdW  Elec       q    Type
REMARK                         _______ _______ _______ _____ _____    ______ ____
ROOT
ATOM      1  O   UNL     1      47.288 -38.128  51.114  0.00  0.00    +0.000 OA
ATOM      2  C   UNL     1      47.178 -36.946  50.855  0.00  0.00    +0.000 C 
ENDROOT
BRANCH   2   3
ATOM      3  O   UNL     1      47.605 -36.432  49.694  0.00  0.00    +0.000 OA
ATOM      4  H   UNL     1      46.788 -36.153  49.234  0.00  0.00    +0.000 HD
ENDBRANCH   2   3
BRANCH   2   6
ATOM      5  O   UNL     1      47.135 -35.265  52.666  0.00  0.00    +0.000 OA
ATOM      6  C   UNL     1      46.546 -35.871  51.793  0.00  0.00    +0.000 C 
BRANCH   6   7
ATOM      7  O   UNL     1      45.245 -35.666  51.541  0.00  0.00    +0.000 OA
ATOM      8  H   UNL     1      44.916 -35.187  52.328  0.00  0.00    +0.000 HD
ENDBRANCH   6   7
ENDBRANCH   2   6
TORSDOF 3
ENDMDL
MODEL 4
REMARK VINA RESULT:      -3.8      9.551     10.561
REMARK  Name = 971_OxalicAcid.pdbqt.pdb
REMARK  3 active torsions:
REMARK  status: ('A' for Active; 'I' for Inactive)
REMARK    1  A    between atoms: C_2  and  O_3
REMARK    2  A    between atoms: C_2  and  C_6
REMARK    3  A    between atoms: C_6  and  O_7
REMARK                            x       y       z     vdW  Elec       q    Type
REMARK                         _______ _______ _______ _____ _____    ______ ____
ROOT
ATOM      1  O   UNL     1      47.319 -38.263  50.994  0.00  0.00    +0.000 OA
ATOM      2  C   UNL     1      48.264 -39.013  51.138  0.00  0.00    +0.000 C 
ENDROOT
BRANCH   2   3
ATOM      3  O   UNL     1      48.111 -40.271  51.573  0.00  0.00    +0.000 OA
ATOM      4  H   UNL     1      47.300 -40.588  51.126  0.00  0.00    +0.000 HD
ENDBRANCH   2   3
BRANCH   2   6
ATOM      5  O   UNL     1      50.268 -38.602  49.751  0.00  0.00    +0.000 OA
ATOM      6  C   UNL     1      49.755 -38.653  50.851  0.00  0.00    +0.000 C 
BRANCH   6   7
ATOM      7  O   UNL     1      50.448 -38.394  51.969  0.00  0.00    +0.000 OA
ATOM      8  H   UNL     1      50.967 -37.593  51.756  0.00  0.00    +0.000 HD
ENDBRANCH   6   7
ENDBRANCH   2   6
TORSDOF 3
ENDMDL
MODEL 5
REMARK VINA RESULT:      -3.7      6.861      7.856
REMARK  Name = 971_OxalicAcid.pdbqt.pdb
REMARK  3 active torsions:
REMARK  status: ('A' for Active; 'I' for Inactive)
REMARK    1  A    between atoms: C_2  and  O_3
REMARK    2  A    between atoms: C_2  and  C_6
REMARK    3  A    between atoms: C_6  and  O_7
REMARK                            x       y       z     vdW  Elec       q    Type
REMARK                         _______ _______ _______ _____ _____    ______ ____
ROOT
ATOM      1  O   UNL     1      47.053 -35.133  51.934  0.00  0.00    +0.000 OA
ATOM      2  C   UNL     1      46.699 -36.186  51.440  0.00  0.00    +0.000 C 
ENDROOT
BRANCH   2   3
ATOM      3  O   UNL     1      45.461 -36.363  50.959  0.00  0.00    +0.000 OA
ATOM      4  H   UNL     1      44.891 -35.823  51.544  0.00  0.00    +0.000 HD
ENDBRANCH   2   3
BRANCH   2   6
ATOM      5  O   UNL     1      48.752 -37.548  51.636  0.00  0.00    +0.000 OA
ATOM      6  C   UNL     1      47.590 -37.458  51.290  0.00  0.00    +0.000 C 
BRANCH   6   7
ATOM      7  O   UNL     1      46.937 -38.483  50.724  0.00  0.00    +0.000 OA
ATOM      8  H   UNL     1      46.047 -38.459  51.129  0.00  0.00    +0.000 HD
ENDBRANCH   6   7
ENDBRANCH   2   6
TORSDOF 3
ENDMDL
MODEL 6
REMARK VINA RESULT:      -3.7     10.702     11.757
REMARK  Name = 971_OxalicAcid.pdbqt.pdb
REMARK  3 active torsions:
REMARK  status: ('A' for Active; 'I' for Inactive)
REMARK    1  A    between atoms: C_2  and  O_3
REMARK    2  A    between atoms: C_2  and  C_6
REMARK    3  A    between atoms: C_6  and  O_7
REMARK                            x       y       z     vdW  Elec       q    Type
REMARK                         _______ _______ _______ _____ _____    ______ ____
ROOT
ATOM      1  O   UNL     1      48.406 -40.417  49.462  0.00  0.00    +0.000 OA
ATOM      2  C   UNL     1      47.539 -40.601  50.294  0.00  0.00    +0.000 C 
ENDROOT
BRANCH   2   3
ATOM      3  O   UNL     1      46.374 -39.940  50.260  0.00  0.00    +0.000 OA
ATOM      4  H   UNL     1      46.576 -39.065  50.648  0.00  0.00    +0.000 HD
ENDBRANCH   2   3
BRANCH   2   6
ATOM      5  O   UNL     1      46.751 -42.352  51.849  0.00  0.00    +0.000 OA
ATOM      6  C   UNL     1      47.632 -41.596  51.492  0.00  0.00    +0.000 C 
BRANCH   6   7
ATOM      7  O   UNL     1      48.816 -41.541  52.118  0.00  0.00    +0.000 OA
ATOM      8  H   UNL     1      49.323 -42.292  51.749  0.00  0.00    +0.000 HD
ENDBRANCH   6   7
ENDBRANCH   2   6
TORSDOF 3
ENDMDL
MODEL 7
REMARK VINA RESULT:      -3.7      6.729      7.622
REMARK  Name = 971_OxalicAcid.pdbqt.pdb
REMARK  3 active torsions:
REMARK  status: ('A' for Active; 'I' for Inactive)
REMARK    1  A    between atoms: C_2  and  O_3
REMARK    2  A    between atoms: C_2  and  C_6
REMARK    3  A    between atoms: C_6  and  O_7
REMARK                            x       y       z     vdW  Elec       q    Type
REMARK                         _______ _______ _______ _____ _____    ______ ____
ROOT
ATOM      1  O   UNL     1      47.450 -36.193  50.096  0.00  0.00    +0.000 OA
ATOM      2  C   UNL     1      46.967 -36.170  51.211  0.00  0.00    +0.000 C 
ENDROOT
BRANCH   2   3
ATOM      3  O   UNL     1      45.641 -36.132  51.409  0.00  0.00    +0.000 OA
ATOM      4  H   UNL     1      45.459 -35.206  51.669  0.00  0.00    +0.000 HD
ENDBRANCH   2   3
BRANCH   2   6
ATOM      5  O   UNL     1      47.749 -35.306  53.391  0.00  0.00    +0.000 OA
ATOM      6  C   UNL     1      47.774 -36.180  52.546  0.00  0.00    +0.000 C 
BRANCH   6   7
ATOM      7  O   UNL     1      48.528 -37.279  52.686  0.00  0.00    +0.000 OA
ATOM      8  H   UNL     1      49.305 -37.117  52.114  0.00  0.00    +0.000 HD
ENDBRANCH   6   7
ENDBRANCH   2   6
TORSDOF 3
ENDMDL
MODEL 8
REMARK VINA RESULT:      -3.6      7.570      8.782
REMARK  Name = 971_OxalicAcid.pdbqt.pdb
REMARK  3 active torsions:
REMARK  status: ('A' for Active; 'I' for Inactive)
REMARK    1  A    between atoms: C_2  and  O_3
REMARK    2  A    between atoms: C_2  and  C_6
REMARK    3  A    between atoms: C_6  and  O_7
REMARK                            x       y       z     vdW  Elec       q    Type
REMARK                         _______ _______ _______ _____ _____    ______ ____
ROOT
ATOM      1  O   UNL     1      47.438 -39.273  50.918  0.00  0.00    +0.000 OA
ATOM      2  C   UNL     1      47.825 -38.168  51.242  0.00  0.00    +0.000 C 
ENDROOT
BRANCH   2   3
ATOM      3  O   UNL     1      48.965 -37.988  51.924  0.00  0.00    +0.000 OA
ATOM      4  H   UNL     1      49.453 -37.313  51.411  0.00  0.00    +0.000 HD
ENDBRANCH   2   3
BRANCH   2   6
ATOM      5  O   UNL     1      46.226 -36.323  51.622  0.00  0.00    +0.000 OA
ATOM      6  C   UNL     1      47.091 -36.827  50.933  0.00  0.00    +0.000 C 
BRANCH   6   7
ATOM      7  O   UNL     1      47.514 -36.256  49.796  0.00  0.00    +0.000 OA
ATOM      8  H   UNL     1      46.694 -35.980  49.340  0.00  0.00    +0.000 HD
ENDBRANCH   6   7
ENDBRANCH   2   6
TORSDOF 3
ENDMDL
MODEL 9
REMARK VINA RESULT:      -3.5      9.902     11.143
REMARK  Name = 971_OxalicAcid.pdbqt.pdb
REMARK  3 active torsions:
REMARK  status: ('A' for Active; 'I' for Inactive)
REMARK    1  A    between atoms: C_2  and  O_3
REMARK    2  A    between atoms: C_2  and  C_6
REMARK    3  A    between atoms: C_6  and  O_7
REMARK                            x       y       z     vdW  Elec       q    Type
REMARK                         _______ _______ _______ _____ _____    ______ ____
ROOT
ATOM      1  O   UNL     1      49.293 -38.873  48.592  0.00  0.00    +0.000 OA
ATOM      2  C   UNL     1      49.501 -39.117  49.764  0.00  0.00    +0.000 C 
ENDROOT
BRANCH   2   3
ATOM      3  O   UNL     1      50.742 -39.184  50.265  0.00  0.00    +0.000 OA
ATOM      4  H   UNL     1      50.670 -38.781  51.154  0.00  0.00    +0.000 HD
ENDBRANCH   2   3
BRANCH   2   6
ATOM      5  O   UNL     1      47.382 -38.736  50.977  0.00  0.00    +0.000 OA
ATOM      6  C   UNL     1      48.403 -39.381  50.840  0.00  0.00    +0.000 C 
BRANCH   6   7
ATOM      7  O   UNL     1      48.695 -40.422  51.632  0.00  0.00    +0.000 OA
ATOM      8  H   UNL     1      48.817 -41.172  51.016  0.00  0.00    +0.000 HD
ENDBRANCH   6   7
ENDBRANCH   2   6
TORSDOF 3
ENDMDL
