MODEL 1
REMARK VINA RESULT:      -7.0      0.000      0.000
REMARK  Name = 9852185_GambogicAcid.pdbqt.pdb
REMARK  10 active torsions:
REMARK  status: ('A' for Active; 'I' for Inactive)
REMARK    1  A    between atoms: C_8  and  C_30
REMARK    2  A    between atoms: C_20  and  C_38
REMARK    3  A    between atoms: C_21  and  O_28
REMARK    4  A    between atoms: C_25  and  C_43
REMARK    5  A    between atoms: C_31  and  C_32
REMARK    6  A    between atoms: C_32  and  C_35
REMARK    7  A    between atoms: C_35  and  O_36
REMARK    8  A    between atoms: C_39  and  C_40
REMARK    9  A    between atoms: C_43  and  C_44
REMARK   10  A    between atoms: C_45  and  C_46
REMARK                            x       y       z     vdW  Elec       q    Type
REMARK                         _______ _______ _______ _____ _____    ______ ____
ROOT
ATOM      1  O   UNL     1      48.161 -42.801  46.250  0.00  0.00    +0.000 OA
ATOM      2  O   UNL     1      47.634 -44.588  48.446  0.00  0.00    +0.000 OA
ATOM      3  O   UNL     1      50.186 -40.541  47.178  0.00  0.00    +0.000 OA
ATOM      4  O   UNL     1      48.237 -43.254  52.295  0.00  0.00    +0.000 OA
ATOM      5  O   UNL     1      45.546 -48.580  49.960  0.00  0.00    +0.000 OA
ATOM      6  C   UNL     1      47.951 -43.211  48.598  0.00  0.00    +0.000 C 
ATOM      7  C   UNL     1      46.796 -42.265  48.111  0.00  0.00    +0.000 C 
ATOM      8  C   UNL     1      48.930 -42.715  47.460  0.00  0.00    +0.000 C 
ATOM      9  C   UNL     1      46.797 -42.505  46.597  0.00  0.00    +0.000 C 
ATOM     10  C   UNL     1      47.120 -40.919  48.584  0.00  0.00    +0.000 C 
ATOM     11  C   UNL     1      48.496 -40.614  48.939  0.00  0.00    +0.000 C 
ATOM     12  C   UNL     1      48.487 -42.839  49.991  0.00  0.00    +0.000 C 
ATOM     13  C   UNL     1      49.346 -41.196  47.774  0.00  0.00    +0.000 C 
ATOM     14  C   UNL     1      48.805 -41.449  50.071  0.00  0.00    +0.000 C 
ATOM     15  C   UNL     1      46.364 -41.256  45.814  0.00  0.00    +0.000 C 
ATOM     16  C   UNL     1      45.895 -43.699  46.249  0.00  0.00    +0.000 C 
ATOM     17  C   UNL     1      48.065 -43.632  51.144  0.00  0.00    +0.000 C 
ATOM     18  C   UNL     1      47.209 -45.310  49.529  0.00  0.00    +0.000 A 
ATOM     19  C   UNL     1      47.388 -44.904  50.859  0.00  0.00    +0.000 A 
ATOM     20  C   UNL     1      46.599 -46.552  49.247  0.00  0.00    +0.000 A 
ATOM     21  C   UNL     1      46.938 -45.711  51.917  0.00  0.00    +0.000 A 
ATOM     22  C   UNL     1      46.152 -47.365  50.293  0.00  0.00    +0.000 A 
ATOM     23  C   UNL     1      46.325 -46.927  51.630  0.00  0.00    +0.000 A 
ATOM     24  C   UNL     1      45.837 -47.841  52.597  0.00  0.00    +0.000 C 
ATOM     25  C   UNL     1      45.118 -49.521  51.022  0.00  0.00    +0.000 C 
ATOM     26  C   UNL     1      45.352 -48.895  52.324  0.00  0.00    +0.000 C 
ATOM     27  C   UNL     1      45.954 -50.812  50.837  0.00  0.00    +0.000 C 
ENDROOT
BRANCH  21  28
ATOM     28  O   UNL     1      47.076 -45.354  53.232  0.00  0.00    +0.000 OA
ATOM     29  H   UNL     1      46.191 -45.187  53.627  0.00  0.00    +0.000 HD
ENDBRANCH  21  28
BRANCH   8  30
ATOM     30  C   UNL     1      50.125 -43.562  47.339  0.00  0.00    +0.000 C 
ATOM     31  C   UNL     1      51.365 -44.466  47.264  0.00  0.00    +0.000 C 
BRANCH  31  32
ATOM     32  C   UNL     1      52.420 -45.230  47.257  0.00  0.00    +0.000 C 
ATOM     33  C   UNL     1      53.135 -45.317  45.921  0.00  0.00    +0.000 C 
BRANCH  32  35
ATOM     34  O   UNL     1      52.111 -46.356  49.371  0.00  0.00    +0.000 OA
ATOM     35  C   UNL     1      52.852 -45.926  48.499  0.00  0.00    +0.000 C 
BRANCH  35  36
ATOM     36  O   UNL     1      54.189 -46.066  48.621  0.00  0.00    +0.000 OA
ATOM     37  H   UNL     1      54.314 -46.706  49.353  0.00  0.00    +0.000 HD
ENDBRANCH  35  36
ENDBRANCH  32  35
ENDBRANCH  31  32
ENDBRANCH   8  30
BRANCH  20  38
ATOM     38  C   UNL     1      46.435 -46.976  47.887  0.00  0.00    +0.000 C 
ATOM     39  C   UNL     1      46.268 -47.402  46.420  0.00  0.00    +0.000 C 
BRANCH  39  40
ATOM     40  C   UNL     1      46.138 -47.745  45.177  0.00  0.00    +0.000 C 
ATOM     41  C   UNL     1      46.818 -48.985  44.681  0.00  0.00    +0.000 C 
ATOM     42  C   UNL     1      45.127 -47.051  44.317  0.00  0.00    +0.000 C 
ENDBRANCH  39  40
ENDBRANCH  20  38
BRANCH  25  43
ATOM     43  C   UNL     1      43.685 -49.796  50.801  0.00  0.00    +0.000 C 
BRANCH  43  44
ATOM     44  C   UNL     1      42.196 -50.077  50.564  0.00  0.00    +0.000 C 
ATOM     45  C   UNL     1      40.706 -50.361  50.327  0.00  0.00    +0.000 C 
BRANCH  45  46
ATOM     46  C   UNL     1      39.449 -50.604  50.121  0.00  0.00    +0.000 C 
ATOM     47  C   UNL     1      39.047 -51.521  49.007  0.00  0.00    +0.000 C 
ATOM     48  C   UNL     1      38.405 -49.837  50.871  0.00  0.00    +0.000 C 
ENDBRANCH  45  46
ENDBRANCH  43  44
ENDBRANCH  25  43
TORSDOF 10
ENDMDL
MODEL 2
REMARK VINA RESULT:      -6.6      2.612      9.060
REMARK  Name = 9852185_GambogicAcid.pdbqt.pdb
REMARK  10 active torsions:
REMARK  status: ('A' for Active; 'I' for Inactive)
REMARK    1  A    between atoms: C_8  and  C_30
REMARK    2  A    between atoms: C_20  and  C_38
REMARK    3  A    between atoms: C_21  and  O_28
REMARK    4  A    between atoms: C_25  and  C_43
REMARK    5  A    between atoms: C_31  and  C_32
REMARK    6  A    between atoms: C_32  and  C_35
REMARK    7  A    between atoms: C_35  and  O_36
REMARK    8  A    between atoms: C_39  and  C_40
REMARK    9  A    between atoms: C_43  and  C_44
REMARK   10  A    between atoms: C_45  and  C_46
REMARK                            x       y       z     vdW  Elec       q    Type
REMARK                         _______ _______ _______ _____ _____    ______ ____
ROOT
ATOM      1  O   UNL     1      46.399 -49.748  49.208  0.00  0.00    +0.000 OA
ATOM      2  O   UNL     1      46.857 -46.907  49.341  0.00  0.00    +0.000 OA
ATOM      3  O   UNL     1      45.997 -50.899  52.138  0.00  0.00    +0.000 OA
ATOM      4  O   UNL     1      48.278 -45.274  52.844  0.00  0.00    +0.000 OA
ATOM      5  O   UNL     1      47.439 -42.822  46.984  0.00  0.00    +0.000 OA
ATOM      6  C   UNL     1      47.229 -47.823  50.362  0.00  0.00    +0.000 C 
ATOM      7  C   UNL     1      48.422 -48.753  49.937  0.00  0.00    +0.000 C 
ATOM      8  C   UNL     1      46.221 -49.038  50.444  0.00  0.00    +0.000 C 
ATOM      9  C   UNL     1      47.785 -49.619  48.845  0.00  0.00    +0.000 C 
ATOM     10  C   UNL     1      48.890 -49.425  51.150  0.00  0.00    +0.000 C 
ATOM     11  C   UNL     1      47.997 -49.507  52.293  0.00  0.00    +0.000 C 
ATOM     12  C   UNL     1      47.431 -47.176  51.743  0.00  0.00    +0.000 C 
ATOM     13  C   UNL     1      46.630 -49.952  51.700  0.00  0.00    +0.000 C 
ATOM     14  C   UNL     1      47.785 -48.150  52.726  0.00  0.00    +0.000 C 
ATOM     15  C   UNL     1      48.399 -51.025  48.792  0.00  0.00    +0.000 C 
ATOM     16  C   UNL     1      47.907 -48.925  47.480  0.00  0.00    +0.000 C 
ATOM     17  C   UNL     1      47.855 -45.779  51.812  0.00  0.00    +0.000 C 
ATOM     18  C   UNL     1      47.286 -45.609  49.403  0.00  0.00    +0.000 A 
ATOM     19  C   UNL     1      47.779 -45.003  50.567  0.00  0.00    +0.000 A 
ATOM     20  C   UNL     1      47.169 -44.859  48.213  0.00  0.00    +0.000 A 
ATOM     21  C   UNL     1      48.186 -43.658  50.553  0.00  0.00    +0.000 A 
ATOM     22  C   UNL     1      47.566 -43.517  48.189  0.00  0.00    +0.000 A 
ATOM     23  C   UNL     1      48.080 -42.929  49.372  0.00  0.00    +0.000 A 
ATOM     24  C   UNL     1      48.441 -41.567  49.222  0.00  0.00    +0.000 C 
ATOM     25  C   UNL     1      47.772 -41.379  46.911  0.00  0.00    +0.000 C 
ATOM     26  C   UNL     1      48.301 -40.956  48.208  0.00  0.00    +0.000 C 
ATOM     27  C   UNL     1      46.461 -40.637  46.547  0.00  0.00    +0.000 C 
ENDROOT
BRANCH  21  28
ATOM     28  O   UNL     1      48.686 -43.024  51.658  0.00  0.00    +0.000 OA
ATOM     29  H   UNL     1      47.971 -42.894  52.321  0.00  0.00    +0.000 HD
ENDBRANCH  21  28
BRANCH   8  30
ATOM     30  C   UNL     1      44.823 -48.600  50.558  0.00  0.00    +0.000 C 
ATOM     31  C   UNL     1      43.379 -48.093  50.694  0.00  0.00    +0.000 C 
BRANCH  31  32
ATOM     32  C   UNL     1      42.173 -47.625  50.846  0.00  0.00    +0.000 C 
ATOM     33  C   UNL     1      41.097 -48.680  51.022  0.00  0.00    +0.000 C 
BRANCH  32  35
ATOM     34  O   UNL     1      42.446 -45.354  51.621  0.00  0.00    +0.000 OA
ATOM     35  C   UNL     1      41.933 -46.156  50.855  0.00  0.00    +0.000 C 
BRANCH  35  36
ATOM     36  O   UNL     1      41.065 -45.730  49.912  0.00  0.00    +0.000 OA
ATOM     37  H   UNL     1      40.279 -46.308  50.007  0.00  0.00    +0.000 HD
ENDBRANCH  35  36
ENDBRANCH  32  35
ENDBRANCH  31  32
ENDBRANCH   8  30
BRANCH  20  38
ATOM     38  C   UNL     1      46.645 -45.473  47.027  0.00  0.00    +0.000 C 
ATOM     39  C   UNL     1      46.112 -46.148  45.755  0.00  0.00    +0.000 C 
BRANCH  39  40
ATOM     40  C   UNL     1      45.676 -46.733  44.683  0.00  0.00    +0.000 C 
ATOM     41  C   UNL     1      46.623 -47.546  43.853  0.00  0.00    +0.000 C 
ATOM     42  C   UNL     1      44.203 -46.797  44.417  0.00  0.00    +0.000 C 
ENDBRANCH  39  40
ENDBRANCH  20  38
BRANCH  25  43
ATOM     43  C   UNL     1      48.772 -41.222  45.838  0.00  0.00    +0.000 C 
BRANCH  43  44
ATOM     44  C   UNL     1      49.811 -41.051  44.723  0.00  0.00    +0.000 C 
ATOM     45  C   UNL     1      50.853 -40.880  43.608  0.00  0.00    +0.000 C 
BRANCH  45  46
ATOM     46  C   UNL     1      51.734 -40.728  42.669  0.00  0.00    +0.000 C 
ATOM     47  C   UNL     1      52.920 -41.640  42.613  0.00  0.00    +0.000 C 
ATOM     48  C   UNL     1      51.660 -39.542  41.759  0.00  0.00    +0.000 C 
ENDBRANCH  45  46
ENDBRANCH  43  44
ENDBRANCH  25  43
TORSDOF 10
ENDMDL
MODEL 3
REMARK VINA RESULT:      -6.6     15.789     19.189
REMARK  Name = 9852185_GambogicAcid.pdbqt.pdb
REMARK  10 active torsions:
REMARK  status: ('A' for Active; 'I' for Inactive)
REMARK    1  A    between atoms: C_8  and  C_30
REMARK    2  A    between atoms: C_20  and  C_38
REMARK    3  A    between atoms: C_21  and  O_28
REMARK    4  A    between atoms: C_25  and  C_43
REMARK    5  A    between atoms: C_31  and  C_32
REMARK    6  A    between atoms: C_32  and  C_35
REMARK    7  A    between atoms: C_35  and  O_36
REMARK    8  A    between atoms: C_39  and  C_40
REMARK    9  A    between atoms: C_43  and  C_44
REMARK   10  A    between atoms: C_45  and  C_46
REMARK                            x       y       z     vdW  Elec       q    Type
REMARK                         _______ _______ _______ _____ _____    ______ ____
ROOT
ATOM      1  O   UNL     1      64.319 -47.789  60.255  0.00  0.00    +0.000 OA
ATOM      2  O   UNL     1      61.768 -49.056  60.680  0.00  0.00    +0.000 OA
ATOM      3  O   UNL     1      64.399 -45.013  61.791  0.00  0.00    +0.000 OA
ATOM      4  O   UNL     1      58.536 -46.732  61.734  0.00  0.00    +0.000 OA
ATOM      5  O   UNL     1      59.037 -52.893  60.046  0.00  0.00    +0.000 OA
ATOM      6  C   UNL     1      61.966 -47.649  60.663  0.00  0.00    +0.000 C 
ATOM      7  C   UNL     1      62.298 -47.100  59.229  0.00  0.00    +0.000 C 
ATOM      8  C   UNL     1      63.394 -47.259  61.217  0.00  0.00    +0.000 C 
ATOM      9  C   UNL     1      63.686 -47.696  58.968  0.00  0.00    +0.000 C 
ATOM     10  C   UNL     1      62.188 -45.642  59.295  0.00  0.00    +0.000 C 
ATOM     11  C   UNL     1      62.273 -44.992  60.591  0.00  0.00    +0.000 C 
ATOM     12  C   UNL     1      60.859 -46.849  61.372  0.00  0.00    +0.000 C 
ATOM     13  C   UNL     1      63.491 -45.658  61.292  0.00  0.00    +0.000 C 
ATOM     14  C   UNL     1      61.127 -45.446  61.336  0.00  0.00    +0.000 C 
ATOM     15  C   UNL     1      64.545 -46.789  58.076  0.00  0.00    +0.000 C 
ATOM     16  C   UNL     1      63.553 -49.095  58.346  0.00  0.00    +0.000 C 
ATOM     17  C   UNL     1      59.508 -47.405  61.421  0.00  0.00    +0.000 C 
ATOM     18  C   UNL     1      60.496 -49.562  60.694  0.00  0.00    +0.000 A 
ATOM     19  C   UNL     1      59.361 -48.817  61.044  0.00  0.00    +0.000 A 
ATOM     20  C   UNL     1      60.370 -50.931  60.374  0.00  0.00    +0.000 A 
ATOM     21  C   UNL     1      58.090 -49.416  61.050  0.00  0.00    +0.000 A 
ATOM     22  C   UNL     1      59.109 -51.538  60.381  0.00  0.00    +0.000 A 
ATOM     23  C   UNL     1      57.972 -50.762  60.719  0.00  0.00    +0.000 A 
ATOM     24  C   UNL     1      56.757 -51.491  60.697  0.00  0.00    +0.000 C 
ATOM     25  C   UNL     1      57.743 -53.614  60.108  0.00  0.00    +0.000 C 
ATOM     26  C   UNL     1      56.690 -52.655  60.449  0.00  0.00    +0.000 C 
ATOM     27  C   UNL     1      57.897 -54.716  61.185  0.00  0.00    +0.000 C 
ENDROOT
BRANCH  21  28
ATOM     28  O   UNL     1      56.949 -48.729  61.371  0.00  0.00    +0.000 OA
ATOM     29  H   UNL     1      57.106 -48.175  62.168  0.00  0.00    +0.000 HD
ENDBRANCH  21  28
BRANCH   8  30
ATOM     30  C   UNL     1      63.666 -47.854  62.534  0.00  0.00    +0.000 C 
ATOM     31  C   UNL     1      63.978 -48.430  63.923  0.00  0.00    +0.000 C 
BRANCH  31  32
ATOM     32  C   UNL     1      64.290 -48.887  65.103  0.00  0.00    +0.000 C 
ATOM     33  C   UNL     1      65.696 -49.447  65.218  0.00  0.00    +0.000 C 
BRANCH  32  35
ATOM     34  O   UNL     1      62.235 -49.407  66.258  0.00  0.00    +0.000 OA
ATOM     35  C   UNL     1      63.307 -48.823  66.218  0.00  0.00    +0.000 C 
BRANCH  35  36
ATOM     36  O   UNL     1      63.686 -48.036  67.248  0.00  0.00    +0.000 OA
ATOM     37  H   UNL     1      64.273 -47.359  66.850  0.00  0.00    +0.000 HD
ENDBRANCH  35  36
ENDBRANCH  32  35
ENDBRANCH  31  32
ENDBRANCH   8  30
BRANCH  20  38
ATOM     38  C   UNL     1      61.534 -51.698  60.036  0.00  0.00    +0.000 C 
ATOM     39  C   UNL     1      62.761 -52.543  59.663  0.00  0.00    +0.000 C 
BRANCH  39  40
ATOM     40  C   UNL     1      63.785 -53.268  59.338  0.00  0.00    +0.000 C 
ATOM     41  C   UNL     1      64.918 -52.643  58.582  0.00  0.00    +0.000 C 
ATOM     42  C   UNL     1      63.942 -54.638  59.924  0.00  0.00    +0.000 C 
ENDBRANCH  39  40
ENDBRANCH  20  38
BRANCH  25  43
ATOM     43  C   UNL     1      57.522 -54.215  58.779  0.00  0.00    +0.000 C 
BRANCH  43  44
ATOM     44  C   UNL     1      57.300 -54.841  57.397  0.00  0.00    +0.000 C 
ATOM     45  C   UNL     1      57.080 -55.466  56.012  0.00  0.00    +0.000 C 
BRANCH  45  46
ATOM     46  C   UNL     1      56.890 -55.988  54.840  0.00  0.00    +0.000 C 
ATOM     47  C   UNL     1      55.552 -55.854  54.180  0.00  0.00    +0.000 C 
ATOM     48  C   UNL     1      57.937 -56.868  54.233  0.00  0.00    +0.000 C 
ENDBRANCH  45  46
ENDBRANCH  43  44
ENDBRANCH  25  43
TORSDOF 10
ENDMDL
MODEL 4
REMARK VINA RESULT:      -6.3     23.449     27.357
REMARK  Name = 9852185_GambogicAcid.pdbqt.pdb
REMARK  10 active torsions:
REMARK  status: ('A' for Active; 'I' for Inactive)
REMARK    1  A    between atoms: C_8  and  C_30
REMARK    2  A    between atoms: C_20  and  C_38
REMARK    3  A    between atoms: C_21  and  O_28
REMARK    4  A    between atoms: C_25  and  C_43
REMARK    5  A    between atoms: C_31  and  C_32
REMARK    6  A    between atoms: C_32  and  C_35
REMARK    7  A    between atoms: C_35  and  O_36
REMARK    8  A    between atoms: C_39  and  C_40
REMARK    9  A    between atoms: C_43  and  C_44
REMARK   10  A    between atoms: C_45  and  C_46
REMARK                            x       y       z     vdW  Elec       q    Type
REMARK                         _______ _______ _______ _____ _____    ______ ____
ROOT
ATOM      1  O   UNL     1      49.882 -20.362  64.232  0.00  0.00    +0.000 OA
ATOM      2  O   UNL     1      48.120 -22.464  63.356  0.00  0.00    +0.000 OA
ATOM      3  O   UNL     1      51.517 -19.241  61.753  0.00  0.00    +0.000 OA
ATOM      4  O   UNL     1      48.986 -24.474  59.868  0.00  0.00    +0.000 OA
ATOM      5  O   UNL     1      44.646 -25.512  64.467  0.00  0.00    +0.000 OA
ATOM      6  C   UNL     1      49.365 -22.162  62.743  0.00  0.00    +0.000 C 
ATOM      7  C   UNL     1      50.594 -22.544  63.644  0.00  0.00    +0.000 C 
ATOM      8  C   UNL     1      49.693 -20.618  62.832  0.00  0.00    +0.000 C 
ATOM      9  C   UNL     1      50.471 -21.545  64.799  0.00  0.00    +0.000 C 
ATOM     10  C   UNL     1      51.785 -22.459  62.797  0.00  0.00    +0.000 C 
ATOM     11  C   UNL     1      51.723 -21.668  61.580  0.00  0.00    +0.000 C 
ATOM     12  C   UNL     1      49.495 -22.674  61.298  0.00  0.00    +0.000 C 
ATOM     13  C   UNL     1      51.041 -20.336  62.004  0.00  0.00    +0.000 C 
ATOM     14  C   UNL     1      50.759 -22.321  60.733  0.00  0.00    +0.000 C 
ATOM     15  C   UNL     1      51.840 -21.165  65.382  0.00  0.00    +0.000 C 
ATOM     16  C   UNL     1      49.557 -22.113  65.896  0.00  0.00    +0.000 C 
ATOM     17  C   UNL     1      48.745 -23.864  60.902  0.00  0.00    +0.000 C 
ATOM     18  C   UNL     1      47.444 -23.599  62.997  0.00  0.00    +0.000 A 
ATOM     19  C   UNL     1      47.697 -24.322  61.823  0.00  0.00    +0.000 A 
ATOM     20  C   UNL     1      46.408 -24.007  63.867  0.00  0.00    +0.000 A 
ATOM     21  C   UNL     1      46.947 -25.470  61.517  0.00  0.00    +0.000 A 
ATOM     22  C   UNL     1      45.652 -25.145  63.569  0.00  0.00    +0.000 A 
ATOM     23  C   UNL     1      45.938 -25.873  62.386  0.00  0.00    +0.000 A 
ATOM     24  C   UNL     1      45.100 -27.000  62.194  0.00  0.00    +0.000 C 
ATOM     25  C   UNL     1      43.761 -26.664  64.172  0.00  0.00    +0.000 C 
ATOM     26  C   UNL     1      44.216 -27.299  62.935  0.00  0.00    +0.000 C 
ATOM     27  C   UNL     1      42.324 -26.099  64.043  0.00  0.00    +0.000 C 
ENDROOT
BRANCH  21  28
ATOM     28  O   UNL     1      47.163 -26.218  60.391  0.00  0.00    +0.000 OA
ATOM     29  H   UNL     1      46.321 -26.326  59.894  0.00  0.00    +0.000 HD
ENDBRANCH  21  28
BRANCH   8  30
ATOM     30  C   UNL     1      48.595 -19.781  62.327  0.00  0.00    +0.000 C 
ATOM     31  C   UNL     1      47.412 -18.935  61.832  0.00  0.00    +0.000 C 
BRANCH  31  32
ATOM     32  C   UNL     1      46.375 -18.260  61.425  0.00  0.00    +0.000 C 
ATOM     33  C   UNL     1      46.452 -16.764  61.669  0.00  0.00    +0.000 C 
BRANCH  32  35
ATOM     34  O   UNL     1      44.054 -18.771  60.997  0.00  0.00    +0.000 OA
ATOM     35  C   UNL     1      45.239 -18.955  60.761  0.00  0.00    +0.000 C 
BRANCH  35  36
ATOM     36  O   UNL     1      45.609 -19.856  59.826  0.00  0.00    +0.000 OA
ATOM     37  H   UNL     1      46.228 -20.462  60.285  0.00  0.00    +0.000 HD
ENDBRANCH  35  36
ENDBRANCH  32  35
ENDBRANCH  31  32
ENDBRANCH   8  30
BRANCH  20  38
ATOM     38  C   UNL     1      46.136 -23.255  65.057  0.00  0.00    +0.000 C 
ATOM     39  C   UNL     1      45.854 -22.475  66.350  0.00  0.00    +0.000 C 
BRANCH  39  40
ATOM     40  C   UNL     1      45.627 -21.830  67.452  0.00  0.00    +0.000 C 
ATOM     41  C   UNL     1      46.513 -20.681  67.827  0.00  0.00    +0.000 C 
ATOM     42  C   UNL     1      44.356 -22.073  68.206  0.00  0.00    +0.000 C 
ENDBRANCH  39  40
ENDBRANCH  20  38
BRANCH  25  43
ATOM     43  C   UNL     1      43.855 -27.583  65.322  0.00  0.00    +0.000 C 
BRANCH  43  44
ATOM     44  C   UNL     1      43.945 -28.537  66.521  0.00  0.00    +0.000 C 
ATOM     45  C   UNL     1      44.036 -29.493  67.719  0.00  0.00    +0.000 C 
BRANCH  45  46
ATOM     46  C   UNL     1      44.105 -30.303  68.728  0.00  0.00    +0.000 C 
ATOM     47  C   UNL     1      43.023 -31.316  68.939  0.00  0.00    +0.000 C 
ATOM     48  C   UNL     1      45.161 -30.109  69.772  0.00  0.00    +0.000 C 
ENDBRANCH  45  46
ENDBRANCH  43  44
ENDBRANCH  25  43
TORSDOF 10
ENDMDL
MODEL 5
REMARK VINA RESULT:      -6.2     27.616     31.220
REMARK  Name = 9852185_GambogicAcid.pdbqt.pdb
REMARK  10 active torsions:
REMARK  status: ('A' for Active; 'I' for Inactive)
REMARK    1  A    between atoms: C_8  and  C_30
REMARK    2  A    between atoms: C_20  and  C_38
REMARK    3  A    between atoms: C_21  and  O_28
REMARK    4  A    between atoms: C_25  and  C_43
REMARK    5  A    between atoms: C_31  and  C_32
REMARK    6  A    between atoms: C_32  and  C_35
REMARK    7  A    between atoms: C_35  and  O_36
REMARK    8  A    between atoms: C_39  and  C_40
REMARK    9  A    between atoms: C_43  and  C_44
REMARK   10  A    between atoms: C_45  and  C_46
REMARK                            x       y       z     vdW  Elec       q    Type
REMARK                         _______ _______ _______ _____ _____    ______ ____
ROOT
ATOM      1  O   UNL     1      58.551 -33.320  77.279  0.00  0.00    +0.000 OA
ATOM      2  O   UNL     1      59.769 -34.625  75.019  0.00  0.00    +0.000 OA
ATOM      3  O   UNL     1      58.215 -30.224  76.666  0.00  0.00    +0.000 OA
ATOM      4  O   UNL     1      61.994 -32.384  72.377  0.00  0.00    +0.000 OA
ATOM      5  O   UNL     1      61.136 -38.703  72.998  0.00  0.00    +0.000 OA
ATOM      6  C   UNL     1      60.003 -33.271  75.378  0.00  0.00    +0.000 C 
ATOM      7  C   UNL     1      60.841 -33.129  76.699  0.00  0.00    +0.000 C 
ATOM      8  C   UNL     1      58.724 -32.618  76.038  0.00  0.00    +0.000 C 
ATOM      9  C   UNL     1      59.865 -33.654  77.759  0.00  0.00    +0.000 C 
ATOM     10  C   UNL     1      61.255 -31.729  76.793  0.00  0.00    +0.000 C 
ATOM     11  C   UNL     1      60.520 -30.730  76.036  0.00  0.00    +0.000 C 
ATOM     12  C   UNL     1      60.539 -32.400  74.229  0.00  0.00    +0.000 C 
ATOM     13  C   UNL     1      59.022 -31.060  76.290  0.00  0.00    +0.000 C 
ATOM     14  C   UNL     1      60.735 -31.048  74.648  0.00  0.00    +0.000 C 
ATOM     15  C   UNL     1      60.067 -32.969  79.118  0.00  0.00    +0.000 C 
ATOM     16  C   UNL     1      60.002 -35.178  77.896  0.00  0.00    +0.000 C 
ATOM     17  C   UNL     1      61.328 -33.033  73.173  0.00  0.00    +0.000 C 
ATOM     18  C   UNL     1      60.536 -35.214  74.050  0.00  0.00    +0.000 A 
ATOM     19  C   UNL     1      61.312 -34.500  73.126  0.00  0.00    +0.000 A 
ATOM     20  C   UNL     1      60.480 -36.623  73.985  0.00  0.00    +0.000 A 
ATOM     21  C   UNL     1      62.061 -35.179  72.150  0.00  0.00    +0.000 A 
ATOM     22  C   UNL     1      61.217 -37.309  73.013  0.00  0.00    +0.000 A 
ATOM     23  C   UNL     1      62.011 -36.569  72.101  0.00  0.00    +0.000 A 
ATOM     24  C   UNL     1      62.704 -37.375  71.164  0.00  0.00    +0.000 C 
ATOM     25  C   UNL     1      61.833 -39.485  71.948  0.00  0.00    +0.000 C 
ATOM     26  C   UNL     1      62.611 -38.563  71.119  0.00  0.00    +0.000 C 
ATOM     27  C   UNL     1      60.736 -40.215  71.134  0.00  0.00    +0.000 C 
ENDROOT
BRANCH  21  28
ATOM     28  O   UNL     1      62.845 -34.530  71.233  0.00  0.00    +0.000 OA
ATOM     29  H   UNL     1      63.641 -34.161  71.677  0.00  0.00    +0.000 HD
ENDBRANCH  21  28
BRANCH   8  30
ATOM     30  C   UNL     1      57.519 -32.785  75.212  0.00  0.00    +0.000 C 
ATOM     31  C   UNL     1      56.259 -33.012  74.364  0.00  0.00    +0.000 C 
BRANCH  31  32
ATOM     32  C   UNL     1      55.203 -33.259  73.642  0.00  0.00    +0.000 C 
ATOM     33  C   UNL     1      54.340 -32.048  73.338  0.00  0.00    +0.000 C 
BRANCH  32  35
ATOM     34  O   UNL     1      53.922 -35.003  72.569  0.00  0.00    +0.000 OA
ATOM     35  C   UNL     1      54.926 -34.641  73.165  0.00  0.00    +0.000 C 
BRANCH  35  36
ATOM     36  O   UNL     1      55.904 -35.530  73.441  0.00  0.00    +0.000 OA
ATOM     37  H   UNL     1      56.649 -34.994  73.783  0.00  0.00    +0.000 HD
ENDBRANCH  35  36
ENDBRANCH  32  35
ENDBRANCH  31  32
ENDBRANCH   8  30
BRANCH  20  38
ATOM     38  C   UNL     1      59.670 -37.352  74.917  0.00  0.00    +0.000 C 
ATOM     39  C   UNL     1      58.778 -38.131  75.896  0.00  0.00    +0.000 C 
BRANCH  39  40
ATOM     40  C   UNL     1      58.012 -38.791  76.707  0.00  0.00    +0.000 C 
ATOM     41  C   UNL     1      56.634 -39.181  76.262  0.00  0.00    +0.000 C 
ATOM     42  C   UNL     1      58.582 -39.366  77.967  0.00  0.00    +0.000 C 
ENDBRANCH  39  40
ENDBRANCH  20  38
BRANCH  25  43
ATOM     43  C   UNL     1      62.699 -40.458  72.640  0.00  0.00    +0.000 C 
BRANCH  43  44
ATOM     44  C   UNL     1      63.599 -41.474  73.354  0.00  0.00    +0.000 C 
ATOM     45  C   UNL     1      64.501 -42.492  74.066  0.00  0.00    +0.000 C 
BRANCH  45  46
ATOM     46  C   UNL     1      65.260 -43.357  74.663  0.00  0.00    +0.000 C 
ATOM     47  C   UNL     1      66.730 -43.093  74.784  0.00  0.00    +0.000 C 
ATOM     48  C   UNL     1      64.705 -44.687  75.068  0.00  0.00    +0.000 C 
ENDBRANCH  45  46
ENDBRANCH  43  44
ENDBRANCH  25  43
TORSDOF 10
ENDMDL
MODEL 6
REMARK VINA RESULT:      -6.0      3.692      9.774
REMARK  Name = 9852185_GambogicAcid.pdbqt.pdb
REMARK  10 active torsions:
REMARK  status: ('A' for Active; 'I' for Inactive)
REMARK    1  A    between atoms: C_8  and  C_30
REMARK    2  A    between atoms: C_20  and  C_38
REMARK    3  A    between atoms: C_21  and  O_28
REMARK    4  A    between atoms: C_25  and  C_43
REMARK    5  A    between atoms: C_31  and  C_32
REMARK    6  A    between atoms: C_32  and  C_35
REMARK    7  A    between atoms: C_35  and  O_36
REMARK    8  A    between atoms: C_39  and  C_40
REMARK    9  A    between atoms: C_43  and  C_44
REMARK   10  A    between atoms: C_45  and  C_46
REMARK                            x       y       z     vdW  Elec       q    Type
REMARK                         _______ _______ _______ _____ _____    ______ ____
ROOT
ATOM      1  O   UNL     1      44.299 -52.171  49.714  0.00  0.00    +0.000 OA
ATOM      2  O   UNL     1      46.403 -50.223  49.979  0.00  0.00    +0.000 OA
ATOM      3  O   UNL     1      42.699 -52.388  52.447  0.00  0.00    +0.000 OA
ATOM      4  O   UNL     1      47.816 -49.305  53.736  0.00  0.00    +0.000 OA
ATOM      5  O   UNL     1      49.871 -47.750  47.869  0.00  0.00    +0.000 OA
ATOM      6  C   UNL     1      45.909 -51.012  51.052  0.00  0.00    +0.000 C 
ATOM      7  C   UNL     1      46.304 -52.526  50.924  0.00  0.00    +0.000 C 
ATOM      8  C   UNL     1      44.370 -51.329  50.875  0.00  0.00    +0.000 C 
ATOM      9  C   UNL     1      45.493 -52.971  49.702  0.00  0.00    +0.000 C 
ATOM     10  C   UNL     1      45.997 -53.156  52.209  0.00  0.00    +0.000 C 
ATOM     11  C   UNL     1      45.050 -52.506  53.098  0.00  0.00    +0.000 C 
ATOM     12  C   UNL     1      46.198 -50.429  52.446  0.00  0.00    +0.000 C 
ATOM     13  C   UNL     1      43.857 -52.103  52.186  0.00  0.00    +0.000 C 
ATOM     14  C   UNL     1      45.659 -51.257  53.477  0.00  0.00    +0.000 C 
ATOM     15  C   UNL     1      45.081 -54.448  49.790  0.00  0.00    +0.000 C 
ATOM     16  C   UNL     1      46.289 -52.708  48.414  0.00  0.00    +0.000 C 
ATOM     17  C   UNL     1      47.382 -49.591  52.628  0.00  0.00    +0.000 C 
ATOM     18  C   UNL     1      47.531 -49.467  50.154  0.00  0.00    +0.000 A 
ATOM     19  C   UNL     1      48.056 -49.126  51.409  0.00  0.00    +0.000 A 
ATOM     20  C   UNL     1      48.147 -48.987  48.978  0.00  0.00    +0.000 A 
ATOM     21  C   UNL     1      49.210 -48.331  51.506  0.00  0.00    +0.000 A 
ATOM     22  C   UNL     1      49.294 -48.191  49.063  0.00  0.00    +0.000 A 
ATOM     23  C   UNL     1      49.819 -47.873  50.341  0.00  0.00    +0.000 A 
ATOM     24  C   UNL     1      50.977 -47.057  50.295  0.00  0.00    +0.000 C 
ATOM     25  C   UNL     1      51.043 -46.843  47.892  0.00  0.00    +0.000 C 
ATOM     26  C   UNL     1      51.454 -46.646  49.283  0.00  0.00    +0.000 C 
ATOM     27  C   UNL     1      50.594 -45.519  47.225  0.00  0.00    +0.000 C 
ENDROOT
BRANCH  21  28
ATOM     28  O   UNL     1      49.770 -47.980  52.705  0.00  0.00    +0.000 OA
ATOM     29  H   UNL     1      50.059 -48.787  53.187  0.00  0.00    +0.000 HD
ENDBRANCH  21  28
BRANCH   8  30
ATOM     30  C   UNL     1      43.570 -50.116  50.648  0.00  0.00    +0.000 C 
ATOM     31  C   UNL     1      42.708 -48.875  50.370  0.00  0.00    +0.000 C 
BRANCH  31  32
ATOM     32  C   UNL     1      41.970 -47.841  50.081  0.00  0.00    +0.000 C 
ATOM     33  C   UNL     1      40.612 -48.172  49.491  0.00  0.00    +0.000 C 
BRANCH  32  35
ATOM     34  O   UNL     1      42.009 -45.687  51.171  0.00  0.00    +0.000 OA
ATOM     35  C   UNL     1      42.468 -46.465  50.348  0.00  0.00    +0.000 C 
BRANCH  35  36
ATOM     36  O   UNL     1      43.521 -46.097  49.587  0.00  0.00    +0.000 OA
ATOM     37  H   UNL     1      44.132 -46.863  49.608  0.00  0.00    +0.000 HD
ENDBRANCH  35  36
ENDBRANCH  32  35
ENDBRANCH  31  32
ENDBRANCH   8  30
BRANCH  20  38
ATOM     38  C   UNL     1      47.598 -49.320  47.695  0.00  0.00    +0.000 C 
ATOM     39  C   UNL     1      47.004 -49.646  46.317  0.00  0.00    +0.000 C 
BRANCH  39  40
ATOM     40  C   UNL     1      46.503 -49.901  45.148  0.00  0.00    +0.000 C 
ATOM     41  C   UNL     1      47.256 -49.486  43.920  0.00  0.00    +0.000 C 
ATOM     42  C   UNL     1      45.320 -50.811  45.030  0.00  0.00    +0.000 C 
ENDBRANCH  39  40
ENDBRANCH  20  38
BRANCH  25  43
ATOM     43  C   UNL     1      52.103 -47.490  47.097  0.00  0.00    +0.000 C 
BRANCH  43  44
ATOM     44  C   UNL     1      53.211 -48.163  46.277  0.00  0.00    +0.000 C 
ATOM     45  C   UNL     1      54.321 -48.834  45.455  0.00  0.00    +0.000 C 
BRANCH  45  46
ATOM     46  C   UNL     1      55.252 -49.403  44.755  0.00  0.00    +0.000 C 
ATOM     47  C   UNL     1      55.130 -50.853  44.401  0.00  0.00    +0.000 C 
ATOM     48  C   UNL     1      56.521 -48.666  44.457  0.00  0.00    +0.000 C 
ENDBRANCH  45  46
ENDBRANCH  43  44
ENDBRANCH  25  43
TORSDOF 10
ENDMDL
MODEL 7
REMARK VINA RESULT:      -5.9      3.083     10.294
REMARK  Name = 9852185_GambogicAcid.pdbqt.pdb
REMARK  10 active torsions:
REMARK  status: ('A' for Active; 'I' for Inactive)
REMARK    1  A    between atoms: C_8  and  C_30
REMARK    2  A    between atoms: C_20  and  C_38
REMARK    3  A    between atoms: C_21  and  O_28
REMARK    4  A    between atoms: C_25  and  C_43
REMARK    5  A    between atoms: C_31  and  C_32
REMARK    6  A    between atoms: C_32  and  C_35
REMARK    7  A    between atoms: C_35  and  O_36
REMARK    8  A    between atoms: C_39  and  C_40
REMARK    9  A    between atoms: C_43  and  C_44
REMARK   10  A    between atoms: C_45  and  C_46
REMARK                            x       y       z     vdW  Elec       q    Type
REMARK                         _______ _______ _______ _____ _____    ______ ____
ROOT
ATOM      1  O   UNL     1      43.591 -53.160  48.999  0.00  0.00    +0.000 OA
ATOM      2  O   UNL     1      45.039 -51.004  50.242  0.00  0.00    +0.000 OA
ATOM      3  O   UNL     1      41.920 -54.728  51.196  0.00  0.00    +0.000 OA
ATOM      4  O   UNL     1      45.859 -51.211  54.272  0.00  0.00    +0.000 OA
ATOM      5  O   UNL     1      47.820 -47.191  49.685  0.00  0.00    +0.000 OA
ATOM      6  C   UNL     1      44.709 -52.222  50.895  0.00  0.00    +0.000 C 
ATOM      7  C   UNL     1      45.521 -53.447  50.341  0.00  0.00    +0.000 C 
ATOM      8  C   UNL     1      43.337 -52.807  50.367  0.00  0.00    +0.000 C 
ATOM      9  C   UNL     1      44.959 -53.595  48.923  0.00  0.00    +0.000 C 
ATOM     10  C   UNL     1      45.309 -54.555  51.274  0.00  0.00    +0.000 C 
ATOM     11  C   UNL     1      44.156 -54.515  52.156  0.00  0.00    +0.000 C 
ATOM     12  C   UNL     1      44.720 -52.136  52.431  0.00  0.00    +0.000 C 
ATOM     13  C   UNL     1      42.968 -54.102  51.242  0.00  0.00    +0.000 C 
ATOM     14  C   UNL     1      44.361 -53.385  53.024  0.00  0.00    +0.000 C 
ATOM     15  C   UNL     1      44.972 -55.055  48.447  0.00  0.00    +0.000 C 
ATOM     16  C   UNL     1      45.741 -52.701  47.948  0.00  0.00    +0.000 C 
ATOM     17  C   UNL     1      45.605 -51.168  53.076  0.00  0.00    +0.000 C 
ATOM     18  C   UNL     1      45.894 -50.121  50.845  0.00  0.00    +0.000 A 
ATOM     19  C   UNL     1      46.209 -50.146  52.211  0.00  0.00    +0.000 A 
ATOM     20  C   UNL     1      46.435 -49.115  50.015  0.00  0.00    +0.000 A 
ATOM     21  C   UNL     1      47.084 -49.193  52.758  0.00  0.00    +0.000 A 
ATOM     22  C   UNL     1      47.304 -48.158  50.551  0.00  0.00    +0.000 A 
ATOM     23  C   UNL     1      47.624 -48.212  51.931  0.00  0.00    +0.000 A 
ATOM     24  C   UNL     1      48.507 -47.187  52.352  0.00  0.00    +0.000 C 
ATOM     25  C   UNL     1      48.686 -46.104  50.203  0.00  0.00    +0.000 C 
ATOM     26  C   UNL     1      48.922 -46.336  51.629  0.00  0.00    +0.000 C 
ATOM     27  C   UNL     1      47.934 -44.774  49.946  0.00  0.00    +0.000 C 
ENDROOT
BRANCH  21  28
ATOM     28  O   UNL     1      47.433 -49.181  54.082  0.00  0.00    +0.000 OA
ATOM     29  H   UNL     1      47.499 -48.253  54.402  0.00  0.00    +0.000 HD
ENDBRANCH  21  28
BRANCH   8  30
ATOM     30  C   UNL     1      42.249 -51.820  50.423  0.00  0.00    +0.000 C 
ATOM     31  C   UNL     1      41.144 -50.756  50.510  0.00  0.00    +0.000 C 
BRANCH  31  32
ATOM     32  C   UNL     1      40.231 -49.835  50.633  0.00  0.00    +0.000 C 
ATOM     33  C   UNL     1      38.968 -50.080  49.828  0.00  0.00    +0.000 C 
BRANCH  32  35
ATOM     34  O   UNL     1      41.460 -47.963  51.536  0.00  0.00    +0.000 OA
ATOM     35  C   UNL     1      40.459 -48.664  51.522  0.00  0.00    +0.000 C 
BRANCH  35  36
ATOM     36  O   UNL     1      39.438 -48.400  52.365  0.00  0.00    +0.000 OA
ATOM     37  H   UNL     1      39.600 -48.965  53.149  0.00  0.00    +0.000 HD
ENDBRANCH  35  36
ENDBRANCH  32  35
ENDBRANCH  31  32
ENDBRANCH   8  30
BRANCH  20  38
ATOM     38  C   UNL     1      46.097 -49.078  48.622  0.00  0.00    +0.000 C 
ATOM     39  C   UNL     1      45.705 -49.036  47.138  0.00  0.00    +0.000 C 
BRANCH  39  40
ATOM     40  C   UNL     1      45.355 -48.994  45.890  0.00  0.00    +0.000 C 
ATOM     41  C   UNL     1      45.745 -47.811  45.056  0.00  0.00    +0.000 C 
ATOM     42  C   UNL     1      44.788 -50.216  45.235  0.00  0.00    +0.000 C 
ENDBRANCH  39  40
ENDBRANCH  20  38
BRANCH  25  43
ATOM     43  C   UNL     1      49.941 -46.149  49.429  0.00  0.00    +0.000 C 
BRANCH  43  44
ATOM     44  C   UNL     1      51.246 -46.203  48.625  0.00  0.00    +0.000 C 
ATOM     45  C   UNL     1      52.553 -46.258  47.821  0.00  0.00    +0.000 C 
BRANCH  45  46
ATOM     46  C   UNL     1      53.660 -46.302  47.149  0.00  0.00    +0.000 C 
ATOM     47  C   UNL     1      54.356 -47.614  46.954  0.00  0.00    +0.000 C 
ATOM     48  C   UNL     1      54.330 -45.032  46.725  0.00  0.00    +0.000 C 
ENDBRANCH  45  46
ENDBRANCH  43  44
ENDBRANCH  25  43
TORSDOF 10
ENDMDL
MODEL 8
REMARK VINA RESULT:      -5.8      3.713      9.269
REMARK  Name = 9852185_GambogicAcid.pdbqt.pdb
REMARK  10 active torsions:
REMARK  status: ('A' for Active; 'I' for Inactive)
REMARK    1  A    between atoms: C_8  and  C_30
REMARK    2  A    between atoms: C_20  and  C_38
REMARK    3  A    between atoms: C_21  and  O_28
REMARK    4  A    between atoms: C_25  and  C_43
REMARK    5  A    between atoms: C_31  and  C_32
REMARK    6  A    between atoms: C_32  and  C_35
REMARK    7  A    between atoms: C_35  and  O_36
REMARK    8  A    between atoms: C_39  and  C_40
REMARK    9  A    between atoms: C_43  and  C_44
REMARK   10  A    between atoms: C_45  and  C_46
REMARK                            x       y       z     vdW  Elec       q    Type
REMARK                         _______ _______ _______ _____ _____    ______ ____
ROOT
ATOM      1  O   UNL     1      41.022 -48.546  47.632  0.00  0.00    +0.000 OA
ATOM      2  O   UNL     1      43.294 -47.019  48.527  0.00  0.00    +0.000 OA
ATOM      3  O   UNL     1      38.650 -48.248  49.719  0.00  0.00    +0.000 OA
ATOM      4  O   UNL     1      43.637 -46.106  52.528  0.00  0.00    +0.000 OA
ATOM      5  O   UNL     1      47.671 -45.418  47.598  0.00  0.00    +0.000 OA
ATOM      6  C   UNL     1      42.343 -47.616  49.398  0.00  0.00    +0.000 C 
ATOM      7  C   UNL     1      42.441 -49.184  49.419  0.00  0.00    +0.000 C 
ATOM      8  C   UNL     1      40.903 -47.647  48.746  0.00  0.00    +0.000 C 
ATOM      9  C   UNL     1      41.973 -49.557  48.009  0.00  0.00    +0.000 C 
ATOM     10  C   UNL     1      41.630 -49.645  50.547  0.00  0.00    +0.000 C 
ATOM     11  C   UNL     1      40.610 -48.761  51.083  0.00  0.00    +0.000 C 
ATOM     12  C   UNL     1      42.301 -46.995  50.804  0.00  0.00    +0.000 C 
ATOM     13  C   UNL     1      39.865 -48.209  49.835  0.00  0.00    +0.000 C 
ATOM     14  C   UNL     1      41.314 -47.626  51.622  0.00  0.00    +0.000 C 
ATOM     15  C   UNL     1      41.261 -50.918  47.978  0.00  0.00    +0.000 C 
ATOM     16  C   UNL     1      43.162 -49.548  47.036  0.00  0.00    +0.000 C 
ATOM     17  C   UNL     1      43.516 -46.387  51.343  0.00  0.00    +0.000 C 
ATOM     18  C   UNL     1      44.442 -46.480  49.043  0.00  0.00    +0.000 A 
ATOM     19  C   UNL     1      44.613 -46.151  50.395  0.00  0.00    +0.000 A 
ATOM     20  C   UNL     1      45.475 -46.217  48.117  0.00  0.00    +0.000 A 
ATOM     21  C   UNL     1      45.818 -45.585  50.843  0.00  0.00    +0.000 A 
ATOM     22  C   UNL     1      46.677 -45.649  48.552  0.00  0.00    +0.000 A 
ATOM     23  C   UNL     1      46.837 -45.341  49.927  0.00  0.00    +0.000 A 
ATOM     24  C   UNL     1      48.093 -44.766  50.241  0.00  0.00    +0.000 C 
ATOM     25  C   UNL     1      48.939 -44.750  47.980  0.00  0.00    +0.000 C 
ATOM     26  C   UNL     1      48.933 -44.531  49.427  0.00  0.00    +0.000 C 
ATOM     27  C   UNL     1      48.998 -43.419  47.190  0.00  0.00    +0.000 C 
ENDROOT
BRANCH  21  28
ATOM     28  O   UNL     1      46.041 -45.258  52.154  0.00  0.00    +0.000 OA
ATOM     29  H   UNL     1      46.329 -44.320  52.220  0.00  0.00    +0.000 HD
ENDBRANCH  21  28
BRANCH   8  30
ATOM     30  C   UNL     1      40.478 -46.326  48.262  0.00  0.00    +0.000 C 
ATOM     31  C   UNL     1      39.995 -44.969  47.727  0.00  0.00    +0.000 C 
BRANCH  31  32
ATOM     32  C   UNL     1      39.566 -43.845  47.227  0.00  0.00    +0.000 C 
ATOM     33  C   UNL     1      40.574 -43.101  46.372  0.00  0.00    +0.000 C 
BRANCH  32  35
ATOM     34  O   UNL     1      37.678 -42.344  47.094  0.00  0.00    +0.000 OA
ATOM     35  C   UNL     1      38.176 -43.385  47.496  0.00  0.00    +0.000 C 
BRANCH  35  36
ATOM     36  O   UNL     1      37.448 -44.233  48.254  0.00  0.00    +0.000 OA
ATOM     37  H   UNL     1      38.082 -44.609  48.899  0.00  0.00    +0.000 HD
ENDBRANCH  35  36
ENDBRANCH  32  35
ENDBRANCH  31  32
ENDBRANCH   8  30
BRANCH  20  38
ATOM     38  C   UNL     1      45.292 -46.535  46.730  0.00  0.00    +0.000 C 
ATOM     39  C   UNL     1      45.106 -46.906  45.252  0.00  0.00    +0.000 C 
BRANCH  39  40
ATOM     40  C   UNL     1      44.950 -47.239  44.008  0.00  0.00    +0.000 C 
ATOM     41  C   UNL     1      44.510 -48.631  43.670  0.00  0.00    +0.000 C 
ATOM     42  C   UNL     1      44.970 -46.181  42.947  0.00  0.00    +0.000 C 
ENDBRANCH  39  40
ENDBRANCH  20  38
BRANCH  25  43
ATOM     43  C   UNL     1      50.037 -45.646  47.570  0.00  0.00    +0.000 C 
BRANCH  43  44
ATOM     44  C   UNL     1      51.180 -46.572  47.138  0.00  0.00    +0.000 C 
ATOM     45  C   UNL     1      52.326 -47.498  46.705  0.00  0.00    +0.000 C 
BRANCH  45  46
ATOM     46  C   UNL     1      53.292 -48.277  46.331  0.00  0.00    +0.000 C 
ATOM     47  C   UNL     1      52.976 -49.568  45.641  0.00  0.00    +0.000 C 
ATOM     48  C   UNL     1      54.699 -47.978  46.745  0.00  0.00    +0.000 C 
ENDBRANCH  45  46
ENDBRANCH  43  44
ENDBRANCH  25  43
TORSDOF 10
ENDMDL
MODEL 9
REMARK VINA RESULT:      -5.8     20.160     26.285
REMARK  Name = 9852185_GambogicAcid.pdbqt.pdb
REMARK  10 active torsions:
REMARK  status: ('A' for Active; 'I' for Inactive)
REMARK    1  A    between atoms: C_8  and  C_30
REMARK    2  A    between atoms: C_20  and  C_38
REMARK    3  A    between atoms: C_21  and  O_28
REMARK    4  A    between atoms: C_25  and  C_43
REMARK    5  A    between atoms: C_31  and  C_32
REMARK    6  A    between atoms: C_32  and  C_35
REMARK    7  A    between atoms: C_35  and  O_36
REMARK    8  A    between atoms: C_39  and  C_40
REMARK    9  A    between atoms: C_43  and  C_44
REMARK   10  A    between atoms: C_45  and  C_46
REMARK                            x       y       z     vdW  Elec       q    Type
REMARK                         _______ _______ _______ _____ _____    ______ ____
ROOT
ATOM      1  O   UNL     1      50.297 -23.831  47.288  0.00  0.00    +0.000 OA
ATOM      2  O   UNL     1      50.918 -22.561  49.798  0.00  0.00    +0.000 OA
ATOM      3  O   UNL     1      49.137 -26.737  47.824  0.00  0.00    +0.000 OA
ATOM      4  O   UNL     1      51.598 -24.910  53.110  0.00  0.00    +0.000 OA
ATOM      5  O   UNL     1      52.334 -18.632  52.064  0.00  0.00    +0.000 OA
ATOM      6  C   UNL     1      50.974 -23.964  49.579  0.00  0.00    +0.000 C 
ATOM      7  C   UNL     1      52.161 -24.386  48.641  0.00  0.00    +0.000 C 
ATOM      8  C   UNL     1      49.888 -24.429  48.528  0.00  0.00    +0.000 C 
ATOM      9  C   UNL     1      51.734 -23.795  47.293  0.00  0.00    +0.000 C 
ATOM     10  C   UNL     1      52.281 -25.841  48.736  0.00  0.00    +0.000 C 
ATOM     11  C   UNL     1      51.143 -26.608  49.211  0.00  0.00    +0.000 C 
ATOM     12  C   UNL     1      50.894 -24.804  50.866  0.00  0.00    +0.000 C 
ATOM     13  C   UNL     1      49.923 -26.033  48.437  0.00  0.00    +0.000 C 
ATOM     14  C   UNL     1      50.936 -26.202  50.577  0.00  0.00    +0.000 C 
ATOM     15  C   UNL     1      52.238 -24.633  46.110  0.00  0.00    +0.000 C 
ATOM     16  C   UNL     1      52.223 -22.343  47.173  0.00  0.00    +0.000 C 
ATOM     17  C   UNL     1      51.392 -24.230  52.115  0.00  0.00    +0.000 C 
ATOM     18  C   UNL     1      51.416 -22.034  50.959  0.00  0.00    +0.000 A 
ATOM     19  C   UNL     1      51.666 -22.787  52.115  0.00  0.00    +0.000 A 
ATOM     20  C   UNL     1      51.635 -20.639  50.964  0.00  0.00    +0.000 A 
ATOM     21  C   UNL     1      52.163 -22.168  53.274  0.00  0.00    +0.000 A 
ATOM     22  C   UNL     1      52.124 -20.012  52.115  0.00  0.00    +0.000 A 
ATOM     23  C   UNL     1      52.389 -20.794  53.267  0.00  0.00    +0.000 A 
ATOM     24  C   UNL     1      52.875 -20.044  54.367  0.00  0.00    +0.000 C 
ATOM     25  C   UNL     1      52.779 -17.896  53.272  0.00  0.00    +0.000 C 
ATOM     26  C   UNL     1      53.021 -18.861  54.345  0.00  0.00    +0.000 C 
ATOM     27  C   UNL     1      51.648 -16.899  53.629  0.00  0.00    +0.000 C 
ENDROOT
BRANCH  21  28
ATOM     28  O   UNL     1      52.436 -22.859  54.424  0.00  0.00    +0.000 OA
ATOM     29  H   UNL     1      53.270 -22.525  54.824  0.00  0.00    +0.000 HD
ENDBRANCH  21  28
BRANCH   8  30
ATOM     30  C   UNL     1      48.538 -23.962  48.873  0.00  0.00    +0.000 C 
ATOM     31  C   UNL     1      47.109 -23.492  49.185  0.00  0.00    +0.000 C 
BRANCH  31  32
ATOM     32  C   UNL     1      45.887 -23.089  49.394  0.00  0.00    +0.000 C 
ATOM     33  C   UNL     1      44.919 -23.375  48.261  0.00  0.00    +0.000 C 
BRANCH  32  35
ATOM     34  O   UNL     1      44.468 -21.853  50.907  0.00  0.00    +0.000 OA
ATOM     35  C   UNL     1      45.525 -22.420  50.673  0.00  0.00    +0.000 C 
BRANCH  35  36
ATOM     36  O   UNL     1      46.485 -22.477  51.620  0.00  0.00    +0.000 OA
ATOM     37  H   UNL     1      46.494 -23.410  51.920  0.00  0.00    +0.000 HD
ENDBRANCH  35  36
ENDBRANCH  32  35
ENDBRANCH  31  32
ENDBRANCH   8  30
BRANCH  20  38
ATOM     38  C   UNL     1      51.359 -19.867  49.787  0.00  0.00    +0.000 C 
ATOM     39  C   UNL     1      51.056 -19.066  48.512  0.00  0.00    +0.000 C 
BRANCH  39  40
ATOM     40  C   UNL     1      50.790 -18.407  47.428  0.00  0.00    +0.000 C 
ATOM     41  C   UNL     1      49.872 -19.009  46.408  0.00  0.00    +0.000 C 
ATOM     42  C   UNL     1      51.195 -16.969  47.315  0.00  0.00    +0.000 C 
ENDBRANCH  39  40
ENDBRANCH  20  38
BRANCH  25  43
ATOM     43  C   UNL     1      54.011 -17.172  52.903  0.00  0.00    +0.000 C 
BRANCH  43  44
ATOM     44  C   UNL     1      55.288 -16.412  52.522  0.00  0.00    +0.000 C 
ATOM     45  C   UNL     1      56.566 -15.652  52.139  0.00  0.00    +0.000 C 
BRANCH  45  46
ATOM     46  C   UNL     1      57.648 -15.017  51.813  0.00  0.00    +0.000 C 
ATOM     47  C   UNL     1      57.560 -13.817  50.920  0.00  0.00    +0.000 C 
ATOM     48  C   UNL     1      58.986 -15.581  52.176  0.00  0.00    +0.000 C 
ENDBRANCH  45  46
ENDBRANCH  43  44
ENDBRANCH  25  43
TORSDOF 10
ENDMDL
