MODEL 1
REMARK VINA RESULT:      -7.6      0.000      0.000
REMARK  Name = AFLATOXIN.pdbqt.pdb
REMARK  1 active torsions:
REMARK  status: ('A' for Active; 'I' for Inactive)
REMARK    1  A    between atoms: C_15  and  O_23
REMARK                            x       y       z     vdW  Elec       q    Type
REMARK                         _______ _______ _______ _____ _____    ______ ____
ROOT
ATOM      1  O   UNL     1      50.015 -48.043  50.306  0.00  0.00    +0.000 OA
ATOM      2  O   UNL     1      48.209 -49.241  51.494  0.00  0.00    +0.000 OA
ATOM      3  O   UNL     1      47.889 -43.964  51.315  0.00  0.00    +0.000 OA
ATOM      4  O   UNL     1      48.334 -39.723  48.731  0.00  0.00    +0.000 OA
ATOM      5  O   UNL     1      46.931 -42.058  52.040  0.00  0.00    +0.000 OA
ATOM      6  O   UNL     1      46.987 -39.868  50.526  0.00  0.00    +0.000 OA
ATOM      7  C   UNL     1      48.523 -46.929  51.719  0.00  0.00    +0.000 C 
ATOM      8  C   UNL     1      49.033 -45.977  50.753  0.00  0.00    +0.000 A 
ATOM      9  C   UNL     1      49.179 -48.224  51.413  0.00  0.00    +0.000 C 
ATOM     10  C   UNL     1      49.937 -46.701  49.968  0.00  0.00    +0.000 A 
ATOM     11  C   UNL     1      48.790 -44.642  50.491  0.00  0.00    +0.000 A 
ATOM     12  C   UNL     1      49.446 -43.993  49.446  0.00  0.00    +0.000 A 
ATOM     13  C   UNL     1      47.175 -47.240  52.034  0.00  0.00    +0.000 C 
ATOM     14  C   UNL     1      49.081 -42.585  49.216  0.00  0.00    +0.000 A 
ATOM     15  C   UNL     1      50.392 -44.744  48.691  0.00  0.00    +0.000 A 
ATOM     16  C   UNL     1      50.620 -46.112  48.929  0.00  0.00    +0.000 A 
ATOM     17  C   UNL     1      49.592 -41.852  48.120  0.00  0.00    +0.000 A 
ATOM     18  C   UNL     1      48.216 -41.904  50.024  0.00  0.00    +0.000 A 
ATOM     19  C   UNL     1      47.229 -48.424  51.879  0.00  0.00    +0.000 C 
ATOM     20  C   UNL     1      49.149 -40.449  48.003  0.00  0.00    +0.000 A 
ATOM     21  C   UNL     1      47.626 -42.605  51.196  0.00  0.00    +0.000 A 
ATOM     22  C   UNL     1      47.796 -40.431  49.798  0.00  0.00    +0.000 A 
ENDROOT
BRANCH  15  23
ATOM     23  O   UNL     1      51.063 -44.173  47.631  0.00  0.00    +0.000 OA
ATOM     24  C   UNL     1      51.976 -45.083  47.072  0.00  0.00    +0.000 C 
ENDBRANCH  15  23
TORSDOF 1
ENDMDL
MODEL 2
REMARK VINA RESULT:      -6.9      1.699      2.491
REMARK  Name = AFLATOXIN.pdbqt.pdb
REMARK  1 active torsions:
REMARK  status: ('A' for Active; 'I' for Inactive)
REMARK    1  A    between atoms: C_15  and  O_23
REMARK                            x       y       z     vdW  Elec       q    Type
REMARK                         _______ _______ _______ _____ _____    ______ ____
ROOT
ATOM      1  O   UNL     1      49.027 -50.343  50.502  0.00  0.00    +0.000 OA
ATOM      2  O   UNL     1      47.705 -51.438  52.280  0.00  0.00    +0.000 OA
ATOM      3  O   UNL     1      48.064 -46.163  52.445  0.00  0.00    +0.000 OA
ATOM      4  O   UNL     1      48.009 -41.782  50.065  0.00  0.00    +0.000 OA
ATOM      5  O   UNL     1      47.748 -44.236  53.569  0.00  0.00    +0.000 OA
ATOM      6  O   UNL     1      47.490 -41.939  52.248  0.00  0.00    +0.000 OA
ATOM      7  C   UNL     1      48.396 -49.204  52.443  0.00  0.00    +0.000 C 
ATOM      8  C   UNL     1      48.599 -48.231  51.389  0.00  0.00    +0.000 A 
ATOM      9  C   UNL     1      48.690 -50.531  51.846  0.00  0.00    +0.000 C 
ATOM     10  C   UNL     1      49.004 -48.976  50.276  0.00  0.00    +0.000 A 
ATOM     11  C   UNL     1      48.457 -46.859  51.300  0.00  0.00    +0.000 A 
ATOM     12  C   UNL     1      48.720 -46.195  50.102  0.00  0.00    +0.000 A 
ATOM     13  C   UNL     1      47.259 -49.392  53.271  0.00  0.00    +0.000 C 
ATOM     14  C   UNL     1      48.489 -44.740  50.094  0.00  0.00    +0.000 A 
ATOM     15  C   UNL     1      49.171 -46.973  48.999  0.00  0.00    +0.000 A 
ATOM     16  C   UNL     1      49.286 -48.375  49.071  0.00  0.00    +0.000 A 
ATOM     17  C   UNL     1      48.612 -43.973  48.914  0.00  0.00    +0.000 A 
ATOM     18  C   UNL     1      48.123 -44.044  51.211  0.00  0.00    +0.000 A 
ATOM     19  C   UNL     1      47.084 -50.556  53.063  0.00  0.00    +0.000 C 
ATOM     20  C   UNL     1      48.355 -42.524  49.040  0.00  0.00    +0.000 A 
ATOM     21  C   UNL     1      47.964 -44.778  52.495  0.00  0.00    +0.000 A 
ATOM     22  C   UNL     1      47.854 -42.519  51.232  0.00  0.00    +0.000 A 
ENDROOT
BRANCH  15  23
ATOM     23  O   UNL     1      49.430 -46.387  47.779  0.00  0.00    +0.000 OA
ATOM     24  C   UNL     1      50.680 -46.797  47.285  0.00  0.00    +0.000 C 
ENDBRANCH  15  23
TORSDOF 1
ENDMDL
MODEL 3
REMARK VINA RESULT:      -6.8     11.052     14.844
REMARK  Name = AFLATOXIN.pdbqt.pdb
REMARK  1 active torsions:
REMARK  status: ('A' for Active; 'I' for Inactive)
REMARK    1  A    between atoms: C_15  and  O_23
REMARK                            x       y       z     vdW  Elec       q    Type
REMARK                         _______ _______ _______ _____ _____    ______ ____
ROOT
ATOM      1  O   UNL     1      41.183 -56.848  59.040  0.00  0.00    +0.000 OA
ATOM      2  O   UNL     1      41.010 -57.052  61.497  0.00  0.00    +0.000 OA
ATOM      3  O   UNL     1      45.726 -55.708  59.516  0.00  0.00    +0.000 OA
ATOM      4  O   UNL     1      48.418 -53.031  56.282  0.00  0.00    +0.000 OA
ATOM      5  O   UNL     1      47.937 -55.400  59.821  0.00  0.00    +0.000 OA
ATOM      6  O   UNL     1      49.302 -53.776  58.211  0.00  0.00    +0.000 OA
ATOM      7  C   UNL     1      43.080 -56.960  60.400  0.00  0.00    +0.000 C 
ATOM      8  C   UNL     1      43.436 -56.271  59.177  0.00  0.00    +0.000 A 
ATOM      9  C   UNL     1      41.647 -57.323  60.271  0.00  0.00    +0.000 C 
ATOM     10  C   UNL     1      42.270 -56.271  58.404  0.00  0.00    +0.000 A 
ATOM     11  C   UNL     1      44.587 -55.666  58.709  0.00  0.00    +0.000 A 
ATOM     12  C   UNL     1      44.607 -55.052  57.457  0.00  0.00    +0.000 A 
ATOM     13  C   UNL     1      43.254 -56.534  61.743  0.00  0.00    +0.000 C 
ATOM     14  C   UNL     1      45.866 -54.391  57.070  0.00  0.00    +0.000 A 
ATOM     15  C   UNL     1      43.419 -55.105  56.675  0.00  0.00    +0.000 A 
ATOM     16  C   UNL     1      42.232 -55.688  57.158  0.00  0.00    +0.000 A 
ATOM     17  C   UNL     1      45.977 -53.640  55.878  0.00  0.00    +0.000 A 
ATOM     18  C   UNL     1      46.993 -54.439  57.840  0.00  0.00    +0.000 A 
ATOM     19  C   UNL     1      42.127 -56.667  62.116  0.00  0.00    +0.000 C 
ATOM     20  C   UNL     1      47.294 -53.029  55.605  0.00  0.00    +0.000 A 
ATOM     21  C   UNL     1      46.958 -55.203  59.116  0.00  0.00    +0.000 A 
ATOM     22  C   UNL     1      48.324 -53.740  57.473  0.00  0.00    +0.000 A 
ENDROOT
BRANCH  15  23
ATOM     23  O   UNL     1      43.360 -54.502  55.437  0.00  0.00    +0.000 OA
ATOM     24  C   UNL     1      42.144 -53.816  55.274  0.00  0.00    +0.000 C 
ENDBRANCH  15  23
TORSDOF 1
ENDMDL
MODEL 4
REMARK VINA RESULT:      -6.7      9.246     14.428
REMARK  Name = AFLATOXIN.pdbqt.pdb
REMARK  1 active torsions:
REMARK  status: ('A' for Active; 'I' for Inactive)
REMARK    1  A    between atoms: C_15  and  O_23
REMARK                            x       y       z     vdW  Elec       q    Type
REMARK                         _______ _______ _______ _____ _____    ______ ____
ROOT
ATOM      1  O   UNL     1      48.087 -52.653  56.110  0.00  0.00    +0.000 OA
ATOM      2  O   UNL     1      47.254 -51.003  54.470  0.00  0.00    +0.000 OA
ATOM      3  O   UNL     1      43.808 -54.616  56.216  0.00  0.00    +0.000 OA
ATOM      4  O   UNL     1      41.899 -57.253  59.993  0.00  0.00    +0.000 OA
ATOM      5  O   UNL     1      41.804 -55.629  56.028  0.00  0.00    +0.000 OA
ATOM      6  O   UNL     1      40.704 -56.831  58.135  0.00  0.00    +0.000 OA
ATOM      7  C   UNL     1      46.061 -52.954  54.984  0.00  0.00    +0.000 C 
ATOM      8  C   UNL     1      46.002 -53.688  56.233  0.00  0.00    +0.000 A 
ATOM      9  C   UNL     1      47.403 -52.323  54.936  0.00  0.00    +0.000 C 
ATOM     10  C   UNL     1      47.251 -53.490  56.832  0.00  0.00    +0.000 A 
ATOM     11  C   UNL     1      45.031 -54.440  56.866  0.00  0.00    +0.000 A 
ATOM     12  C   UNL     1      45.282 -55.019  58.109  0.00  0.00    +0.000 A 
ATOM     13  C   UNL     1      45.156 -51.984  54.480  0.00  0.00    +0.000 C 
ATOM     14  C   UNL     1      44.166 -55.759  58.726  0.00  0.00    +0.000 A 
ATOM     15  C   UNL     1      46.575 -54.837  58.676  0.00  0.00    +0.000 A 
ATOM     16  C   UNL     1      47.558 -54.044  58.053  0.00  0.00    +0.000 A 
ATOM     17  C   UNL     1      44.259 -56.296  60.030  0.00  0.00    +0.000 A 
ATOM     18  C   UNL     1      42.972 -55.955  58.094  0.00  0.00    +0.000 A 
ATOM     19  C   UNL     1      45.939 -51.106  54.272  0.00  0.00    +0.000 C 
ATOM     20  C   UNL     1      43.072 -57.016  60.531  0.00  0.00    +0.000 A 
ATOM     21  C   UNL     1      42.789 -55.415  56.720  0.00  0.00    +0.000 A 
ATOM     22  C   UNL     1      41.774 -56.709  58.721  0.00  0.00    +0.000 A 
ENDROOT
BRANCH  15  23
ATOM     23  O   UNL     1      46.887 -55.364  59.910  0.00  0.00    +0.000 OA
ATOM     24  C   UNL     1      48.145 -55.990  59.882  0.00  0.00    +0.000 C 
ENDBRANCH  15  23
TORSDOF 1
ENDMDL
MODEL 5
REMARK VINA RESULT:      -6.6     11.366     14.682
REMARK  Name = AFLATOXIN.pdbqt.pdb
REMARK  1 active torsions:
REMARK  status: ('A' for Active; 'I' for Inactive)
REMARK    1  A    between atoms: C_15  and  O_23
REMARK                            x       y       z     vdW  Elec       q    Type
REMARK                         _______ _______ _______ _____ _____    ______ ____
ROOT
ATOM      1  O   UNL     1      48.424 -53.271  56.321  0.00  0.00    +0.000 OA
ATOM      2  O   UNL     1      50.444 -54.326  57.276  0.00  0.00    +0.000 OA
ATOM      3  O   UNL     1      45.785 -55.710  59.364  0.00  0.00    +0.000 OA
ATOM      4  O   UNL     1      40.999 -56.960  58.728  0.00  0.00    +0.000 OA
ATOM      5  O   UNL     1      44.626 -56.735  61.001  0.00  0.00    +0.000 OA
ATOM      6  O   UNL     1      42.147 -57.600  60.553  0.00  0.00    +0.000 OA
ATOM      7  C   UNL     1      48.366 -54.413  58.359  0.00  0.00    +0.000 C 
ATOM      8  C   UNL     1      47.036 -54.439  57.784  0.00  0.00    +0.000 A 
ATOM      9  C   UNL     1      49.215 -53.652  57.409  0.00  0.00    +0.000 C 
ATOM     10  C   UNL     1      47.139 -53.714  56.592  0.00  0.00    +0.000 A 
ATOM     11  C   UNL     1      45.834 -55.009  58.157  0.00  0.00    +0.000 A 
ATOM     12  C   UNL     1      44.702 -54.865  57.355  0.00  0.00    +0.000 A 
ATOM     13  C   UNL     1      49.161 -55.500  58.807  0.00  0.00    +0.000 C 
ATOM     14  C   UNL     1      43.482 -55.553  57.812  0.00  0.00    +0.000 A 
ATOM     15  C   UNL     1      44.825 -54.087  56.169  0.00  0.00    +0.000 A 
ATOM     16  C   UNL     1      46.054 -53.531  55.765  0.00  0.00    +0.000 A 
ATOM     17  C   UNL     1      42.303 -55.576  57.033  0.00  0.00    +0.000 A 
ATOM     18  C   UNL     1      43.414 -56.226  58.998  0.00  0.00    +0.000 A 
ATOM     19  C   UNL     1      50.146 -55.269  58.171  0.00  0.00    +0.000 C 
ATOM     20  C   UNL     1      41.149 -56.298  57.605  0.00  0.00    +0.000 A 
ATOM     21  C   UNL     1      44.615 -56.257  59.876  0.00  0.00    +0.000 A 
ATOM     22  C   UNL     1      42.155 -56.975  59.499  0.00  0.00    +0.000 A 
ENDROOT
BRANCH  15  23
ATOM     23  O   UNL     1      43.754 -53.919  55.319  0.00  0.00    +0.000 OA
ATOM     24  C   UNL     1      44.045 -52.960  54.334  0.00  0.00    +0.000 C 
ENDBRANCH  15  23
TORSDOF 1
ENDMDL
MODEL 6
REMARK VINA RESULT:      -6.6     14.632     16.765
REMARK  Name = AFLATOXIN.pdbqt.pdb
REMARK  1 active torsions:
REMARK  status: ('A' for Active; 'I' for Inactive)
REMARK    1  A    between atoms: C_15  and  O_23
REMARK                            x       y       z     vdW  Elec       q    Type
REMARK                         _______ _______ _______ _____ _____    ______ ____
ROOT
ATOM      1  O   UNL     1      59.680 -47.177  62.450  0.00  0.00    +0.000 OA
ATOM      2  O   UNL     1      60.017 -45.390  60.778  0.00  0.00    +0.000 OA
ATOM      3  O   UNL     1      59.188 -50.281  58.944  0.00  0.00    +0.000 OA
ATOM      4  O   UNL     1      56.691 -54.591  59.189  0.00  0.00    +0.000 OA
ATOM      5  O   UNL     1      59.198 -51.728  57.217  0.00  0.00    +0.000 OA
ATOM      6  O   UNL     1      57.670 -53.908  57.283  0.00  0.00    +0.000 OA
ATOM      7  C   UNL     1      60.131 -47.661  60.209  0.00  0.00    +0.000 C 
ATOM      8  C   UNL     1      59.417 -48.784  60.783  0.00  0.00    +0.000 A 
ATOM      9  C   UNL     1      60.290 -46.668  61.300  0.00  0.00    +0.000 C 
ATOM     10  C   UNL     1      59.212 -48.440  62.123  0.00  0.00    +0.000 A 
ATOM     11  C   UNL     1      58.942 -49.983  60.286  0.00  0.00    +0.000 A 
ATOM     12  C   UNL     1      58.257 -50.872  61.113  0.00  0.00    +0.000 A 
ATOM     13  C   UNL     1      59.820 -46.913  59.044  0.00  0.00    +0.000 C 
ATOM     14  C   UNL     1      57.746 -52.099  60.477  0.00  0.00    +0.000 A 
ATOM     15  C   UNL     1      58.100 -50.515  62.482  0.00  0.00    +0.000 A 
ATOM     16  C   UNL     1      58.551 -49.281  62.989  0.00  0.00    +0.000 A 
ATOM     17  C   UNL     1      56.941 -53.023  61.181  0.00  0.00    +0.000 A 
ATOM     18  C   UNL     1      57.994 -52.413  59.171  0.00  0.00    +0.000 A 
ATOM     19  C   UNL     1      59.825 -45.822  59.531  0.00  0.00    +0.000 C 
ATOM     20  C   UNL     1      56.495 -54.213  60.430  0.00  0.00    +0.000 A 
ATOM     21  C   UNL     1      58.827 -51.488  58.357  0.00  0.00    +0.000 A 
ATOM     22  C   UNL     1      57.456 -53.682  58.468  0.00  0.00    +0.000 A 
ENDROOT
BRANCH  15  23
ATOM     23  O   UNL     1      57.416 -51.336  63.353  0.00  0.00    +0.000 OA
ATOM     24  C   UNL     1      58.298 -51.940  64.265  0.00  0.00    +0.000 C 
ENDBRANCH  15  23
TORSDOF 1
ENDMDL
MODEL 7
REMARK VINA RESULT:      -6.5      1.742      6.112
REMARK  Name = AFLATOXIN.pdbqt.pdb
REMARK  1 active torsions:
REMARK  status: ('A' for Active; 'I' for Inactive)
REMARK    1  A    between atoms: C_15  and  O_23
REMARK                            x       y       z     vdW  Elec       q    Type
REMARK                         _______ _______ _______ _____ _____    ______ ____
ROOT
ATOM      1  O   UNL     1      51.506 -44.211  47.497  0.00  0.00    +0.000 OA
ATOM      2  O   UNL     1      52.569 -45.803  45.934  0.00  0.00    +0.000 OA
ATOM      3  O   UNL     1      50.061 -47.845  50.120  0.00  0.00    +0.000 OA
ATOM      4  O   UNL     1      46.124 -47.853  53.181  0.00  0.00    +0.000 OA
ATOM      5  O   UNL     1      49.614 -49.622  51.431  0.00  0.00    +0.000 OA
ATOM      6  O   UNL     1      47.380 -49.694  52.879  0.00  0.00    +0.000 OA
ATOM      7  C   UNL     1      51.853 -46.450  48.071  0.00  0.00    +0.000 C 
ATOM      8  C   UNL     1      50.744 -45.945  48.855  0.00  0.00    +0.000 A 
ATOM      9  C   UNL     1      52.318 -45.318  47.232  0.00  0.00    +0.000 C 
ATOM     10  C   UNL     1      50.616 -44.602  48.485  0.00  0.00    +0.000 A 
ATOM     11  C   UNL     1      49.880 -46.503  49.778  0.00  0.00    +0.000 A 
ATOM     12  C   UNL     1      48.872 -45.736  50.360  0.00  0.00    +0.000 A 
ATOM     13  C   UNL     1      51.902 -47.598  47.238  0.00  0.00    +0.000 C 
ATOM     14  C   UNL     1      47.970 -46.436  51.293  0.00  0.00    +0.000 A 
ATOM     15  C   UNL     1      48.793 -44.362  49.998  0.00  0.00    +0.000 A 
ATOM     16  C   UNL     1      49.646 -43.793  49.033  0.00  0.00    +0.000 A 
ATOM     17  C   UNL     1      46.845 -45.797  51.861  0.00  0.00    +0.000 A 
ATOM     18  C   UNL     1      48.147 -47.741  51.651  0.00  0.00    +0.000 A 
ATOM     19  C   UNL     1      52.291 -47.071  46.238  0.00  0.00    +0.000 C 
ATOM     20  C   UNL     1      46.023 -46.608  52.781  0.00  0.00    +0.000 A 
ATOM     21  C   UNL     1      49.305 -48.489  51.091  0.00  0.00    +0.000 A 
ATOM     22  C   UNL     1      47.208 -48.511  52.612  0.00  0.00    +0.000 A 
ENDROOT
BRANCH  15  23
ATOM     23  O   UNL     1      47.809 -43.549  50.518  0.00  0.00    +0.000 OA
ATOM     24  C   UNL     1      48.374 -42.477  51.230  0.00  0.00    +0.000 C 
ENDBRANCH  15  23
TORSDOF 1
ENDMDL
MODEL 8
REMARK VINA RESULT:      -6.4      2.590      4.600
REMARK  Name = AFLATOXIN.pdbqt.pdb
REMARK  1 active torsions:
REMARK  status: ('A' for Active; 'I' for Inactive)
REMARK    1  A    between atoms: C_15  and  O_23
REMARK                            x       y       z     vdW  Elec       q    Type
REMARK                         _______ _______ _______ _____ _____    ______ ____
ROOT
ATOM      1  O   UNL     1      49.656 -44.323  46.594  0.00  0.00    +0.000 OA
ATOM      2  O   UNL     1      48.872 -45.762  48.443  0.00  0.00    +0.000 OA
ATOM      3  O   UNL     1      49.371 -40.594  49.455  0.00  0.00    +0.000 OA
ATOM      4  O   UNL     1      48.732 -35.860  48.025  0.00  0.00    +0.000 OA
ATOM      5  O   UNL     1      49.427 -38.912  50.952  0.00  0.00    +0.000 OA
ATOM      6  O   UNL     1      48.852 -36.424  50.199  0.00  0.00    +0.000 OA
ATOM      7  C   UNL     1      49.626 -43.573  48.807  0.00  0.00    +0.000 C 
ATOM      8  C   UNL     1      49.542 -42.420  47.933  0.00  0.00    +0.000 A 
ATOM      9  C   UNL     1      49.711 -44.760  47.921  0.00  0.00    +0.000 C 
ATOM     10  C   UNL     1      49.598 -42.939  46.636  0.00  0.00    +0.000 A 
ATOM     11  C   UNL     1      49.408 -41.059  48.138  0.00  0.00    +0.000 A 
ATOM     12  C   UNL     1      49.334 -40.183  47.057  0.00  0.00    +0.000 A 
ATOM     13  C   UNL     1      48.768 -43.943  49.874  0.00  0.00    +0.000 C 
ATOM     14  C   UNL     1      49.140 -38.758  47.379  0.00  0.00    +0.000 A 
ATOM     15  C   UNL     1      49.436 -40.735  45.749  0.00  0.00    +0.000 A 
ATOM     16  C   UNL     1      49.538 -42.122  45.530  0.00  0.00    +0.000 A 
ATOM     17  C   UNL     1      48.938 -37.788  46.371  0.00  0.00    +0.000 A 
ATOM     18  C   UNL     1      49.121 -38.286  48.660  0.00  0.00    +0.000 A 
ATOM     19  C   UNL     1      48.517 -45.056  49.517  0.00  0.00    +0.000 C 
ATOM     20  C   UNL     1      48.758 -36.394  46.827  0.00  0.00    +0.000 A 
ATOM     21  C   UNL     1      49.318 -39.245  49.781  0.00  0.00    +0.000 A 
ATOM     22  C   UNL     1      48.900 -36.800  49.033  0.00  0.00    +0.000 A 
ENDROOT
BRANCH  15  23
ATOM     23  O   UNL     1      49.350 -39.931  44.633  0.00  0.00    +0.000 OA
ATOM     24  C   UNL     1      50.556 -39.949  43.912  0.00  0.00    +0.000 C 
ENDBRANCH  15  23
TORSDOF 1
ENDMDL
MODEL 9
REMARK VINA RESULT:      -6.4      9.781     12.984
REMARK  Name = AFLATOXIN.pdbqt.pdb
REMARK  1 active torsions:
REMARK  status: ('A' for Active; 'I' for Inactive)
REMARK    1  A    between atoms: C_15  and  O_23
REMARK                            x       y       z     vdW  Elec       q    Type
REMARK                         _______ _______ _______ _____ _____    ______ ____
ROOT
ATOM      1  O   UNL     1      46.852 -52.164  56.280  0.00  0.00    +0.000 OA
ATOM      2  O   UNL     1      45.397 -51.998  54.289  0.00  0.00    +0.000 OA
ATOM      3  O   UNL     1      50.112 -54.304  53.641  0.00  0.00    +0.000 OA
ATOM      4  O   UNL     1      53.631 -57.420  55.308  0.00  0.00    +0.000 OA
ATOM      5  O   UNL     1      51.700 -55.107  52.260  0.00  0.00    +0.000 OA
ATOM      6  O   UNL     1      53.423 -56.947  53.119  0.00  0.00    +0.000 OA
ATOM      7  C   UNL     1      47.676 -52.519  54.122  0.00  0.00    +0.000 C 
ATOM      8  C   UNL     1      48.521 -53.234  55.056  0.00  0.00    +0.000 A 
ATOM      9  C   UNL     1      46.637 -51.841  54.936  0.00  0.00    +0.000 C 
ATOM     10  C   UNL     1      47.992 -52.951  56.319  0.00  0.00    +0.000 A 
ATOM     11  C   UNL     1      49.616 -54.067  54.925  0.00  0.00    +0.000 A 
ATOM     12  C   UNL     1      50.215 -54.634  56.050  0.00  0.00    +0.000 A 
ATOM     13  C   UNL     1      47.009 -53.011  52.970  0.00  0.00    +0.000 C 
ATOM     14  C   UNL     1      51.343 -55.548  55.803  0.00  0.00    +0.000 A 
ATOM     15  C   UNL     1      49.681 -54.294  57.325  0.00  0.00    +0.000 A 
ATOM     16  C   UNL     1      48.545 -53.474  57.466  0.00  0.00    +0.000 A 
ATOM     17  C   UNL     1      51.960 -56.270  56.850  0.00  0.00    +0.000 A 
ATOM     18  C   UNL     1      51.851 -55.775  54.555  0.00  0.00    +0.000 A 
ATOM     19  C   UNL     1      45.904 -52.640  53.237  0.00  0.00    +0.000 C 
ATOM     20  C   UNL     1      53.082 -57.152  56.469  0.00  0.00    +0.000 A 
ATOM     21  C   UNL     1      51.252 -55.060  53.396  0.00  0.00    +0.000 A 
ATOM     22  C   UNL     1      53.022 -56.743  54.259  0.00  0.00    +0.000 A 
ENDROOT
BRANCH  15  23
ATOM     23  O   UNL     1      50.209 -54.833  58.479  0.00  0.00    +0.000 OA
ATOM     24  C   UNL     1      49.269 -55.657  59.120  0.00  0.00    +0.000 C 
ENDBRANCH  15  23
TORSDOF 1
ENDMDL
