MODEL 1
REMARK VINA RESULT:      -8.8      0.000      0.000
REMARK  Name = AZD4547.pdbqt.pdb
REMARK  6 active torsions:
REMARK  status: ('A' for Active; 'I' for Inactive)
REMARK    1  A    between atoms: C_3  and  C_23
REMARK    2  A    between atoms: C_8  and  C_11
REMARK    3  A    between atoms: C_12  and  C_13
REMARK    4  A    between atoms: C_15  and  O_19
REMARK    5  A    between atoms: C_17  and  O_21
REMARK    6  A    between atoms: C_26  and  N_29
REMARK                            x       y       z     vdW  Elec       q    Type
REMARK                         _______ _______ _______ _____ _____    ______ ____
ROOT
ATOM      1  O   UNL     1      46.235 -46.578  52.881  0.00  0.00    +0.000 OA
ATOM      2  N   UNL     1      47.813 -47.415  51.407  0.00  0.00    +0.000 N 
ATOM      3  C   UNL     1      46.826 -47.518  52.361  0.00  0.00    +0.000 C 
ATOM      4  H   UNL     1      48.274 -48.219  51.009  0.00  0.00    +0.000 HD
ATOM      5  C   UNL     1      48.276 -46.227  50.894  0.00  0.00    +0.000 A 
ATOM      6  N   UNL     1      49.243 -46.257  49.970  0.00  0.00    +0.000 NA
ATOM      7  N   UNL     1      49.455 -44.957  49.690  0.00  0.00    +0.000 N 
ATOM      8  C   UNL     1      48.661 -44.106  50.398  0.00  0.00    +0.000 A 
ATOM      9  H   UNL     1      50.161 -44.719  49.001  0.00  0.00    +0.000 HD
ATOM     10  C   UNL     1      47.877 -44.902  51.197  0.00  0.00    +0.000 A 
ENDROOT
BRANCH   3  11
ATOM     11  C   UNL     1      46.468 -48.897  52.778  0.00  0.00    +0.000 A 
ATOM     12  C   UNL     1      45.655 -49.657  51.938  0.00  0.00    +0.000 A 
ATOM     13  C   UNL     1      45.299 -50.955  52.297  0.00  0.00    +0.000 A 
ATOM     14  C   UNL     1      45.732 -51.519  53.505  0.00  0.00    +0.000 A 
ATOM     15  C   UNL     1      46.564 -50.747  54.328  0.00  0.00    +0.000 A 
ATOM     16  C   UNL     1      46.924 -49.447  53.974  0.00  0.00    +0.000 A 
BRANCH  14  17
ATOM     17  N   UNL     1      45.406 -52.852  53.846  0.00  0.00    +0.000 N 
ATOM     18  C   UNL     1      44.019 -53.157  54.237  0.00  0.00    +0.000 C 
ATOM     19  C   UNL     1      43.393 -53.817  55.335  0.00  0.00    +0.000 C 
ATOM     20  N   UNL     1      44.258 -54.336  56.346  0.00  0.00    +0.000 N 
ATOM     21  C   UNL     1      41.917 -53.942  55.464  0.00  0.00    +0.000 C 
ATOM     22  C   UNL     1      45.664 -54.154  56.178  0.00  0.00    +0.000 C 
ATOM     23  H   UNL     1      43.885 -54.795  57.163  0.00  0.00    +0.000 HD
ATOM     24  C   UNL     1      46.083 -53.464  55.003  0.00  0.00    +0.000 C 
ATOM     25  C   UNL     1      46.620 -54.630  57.213  0.00  0.00    +0.000 C 
ENDBRANCH  14  17
ENDBRANCH   3  11
BRANCH   8  26
ATOM     26  C   UNL     1      48.677 -42.695  50.295  0.00  0.00    +0.000 C 
ATOM     27  C   UNL     1      48.693 -41.166  50.188  0.00  0.00    +0.000 C 
BRANCH  27  28
ATOM     28  C   UNL     1      48.706 -39.745  50.097  0.00  0.00    +0.000 A 
ATOM     29  C   UNL     1      47.989 -38.984  51.016  0.00  0.00    +0.000 A 
ATOM     30  C   UNL     1      48.001 -37.590  50.935  0.00  0.00    +0.000 A 
ATOM     31  C   UNL     1      48.744 -36.969  49.927  0.00  0.00    +0.000 A 
ATOM     32  C   UNL     1      49.460 -37.728  49.000  0.00  0.00    +0.000 A 
ATOM     33  C   UNL     1      49.439 -39.121  49.092  0.00  0.00    +0.000 A 
BRANCH  30  34
ATOM     34  O   UNL     1      47.339 -36.745  51.790  0.00  0.00    +0.000 OA
ATOM     35  C   UNL     1      46.197 -36.130  51.263  0.00  0.00    +0.000 C 
ENDBRANCH  30  34
BRANCH  32  36
ATOM     36  O   UNL     1      50.152 -37.012  48.055  0.00  0.00    +0.000 OA
ATOM     37  C   UNL     1      49.420 -36.011  47.403  0.00  0.00    +0.000 C 
ENDBRANCH  32  36
ENDBRANCH  27  28
ENDBRANCH   8  26
TORSDOF 6
ENDMDL
MODEL 2
REMARK VINA RESULT:      -8.7      0.444      2.077
REMARK  Name = AZD4547.pdbqt.pdb
REMARK  6 active torsions:
REMARK  status: ('A' for Active; 'I' for Inactive)
REMARK    1  A    between atoms: C_3  and  C_23
REMARK    2  A    between atoms: C_8  and  C_11
REMARK    3  A    between atoms: C_12  and  C_13
REMARK    4  A    between atoms: C_15  and  O_19
REMARK    5  A    between atoms: C_17  and  O_21
REMARK    6  A    between atoms: C_26  and  N_29
REMARK                            x       y       z     vdW  Elec       q    Type
REMARK                         _______ _______ _______ _____ _____    ______ ____
ROOT
ATOM      1  O   UNL     1      46.227 -46.879  52.849  0.00  0.00    +0.000 OA
ATOM      2  N   UNL     1      47.857 -47.687  51.416  0.00  0.00    +0.000 N 
ATOM      3  C   UNL     1      46.844 -47.809  52.341  0.00  0.00    +0.000 C 
ATOM      4  H   UNL     1      48.338 -48.482  51.026  0.00  0.00    +0.000 HD
ATOM      5  C   UNL     1      48.319 -46.490  50.924  0.00  0.00    +0.000 A 
ATOM      6  N   UNL     1      49.312 -46.501  50.028  0.00  0.00    +0.000 NA
ATOM      7  N   UNL     1      49.516 -45.198  49.762  0.00  0.00    +0.000 N 
ATOM      8  C   UNL     1      48.691 -44.361  50.453  0.00  0.00    +0.000 A 
ATOM      9  H   UNL     1      50.238 -44.946  49.095  0.00  0.00    +0.000 HD
ATOM     10  C   UNL     1      47.895 -45.171  51.224  0.00  0.00    +0.000 A 
ENDROOT
BRANCH   3  11
ATOM     11  C   UNL     1      46.492 -49.195  52.738  0.00  0.00    +0.000 A 
ATOM     12  C   UNL     1      46.755 -49.599  54.046  0.00  0.00    +0.000 A 
ATOM     13  C   UNL     1      46.438 -50.893  54.455  0.00  0.00    +0.000 A 
ATOM     14  C   UNL     1      45.869 -51.815  53.568  0.00  0.00    +0.000 A 
ATOM     15  C   UNL     1      45.595 -51.385  52.262  0.00  0.00    +0.000 A 
ATOM     16  C   UNL     1      45.909 -50.091  51.846  0.00  0.00    +0.000 A 
BRANCH  14  17
ATOM     17  N   UNL     1      45.507 -53.114  53.996  0.00  0.00    +0.000 N 
ATOM     18  C   UNL     1      44.114 -53.352  54.414  0.00  0.00    +0.000 C 
ATOM     19  C   UNL     1      43.478 -53.921  55.555  0.00  0.00    +0.000 C 
ATOM     20  N   UNL     1      44.335 -54.400  56.592  0.00  0.00    +0.000 N 
ATOM     21  C   UNL     1      42.000 -53.994  55.700  0.00  0.00    +0.000 C 
ATOM     22  C   UNL     1      45.744 -54.271  56.406  0.00  0.00    +0.000 C 
ATOM     23  H   UNL     1      43.956 -54.795  57.439  0.00  0.00    +0.000 HD
ATOM     24  C   UNL     1      46.174 -53.669  55.186  0.00  0.00    +0.000 C 
ATOM     25  C   UNL     1      46.694 -54.707  57.463  0.00  0.00    +0.000 C 
ENDBRANCH  14  17
ENDBRANCH   3  11
BRANCH   8  26
ATOM     26  C   UNL     1      48.693 -42.949  50.360  0.00  0.00    +0.000 C 
ATOM     27  C   UNL     1      48.697 -41.420  50.255  0.00  0.00    +0.000 C 
BRANCH  27  28
ATOM     28  C   UNL     1      48.704 -40.000  50.149  0.00  0.00    +0.000 A 
ATOM     29  C   UNL     1      49.596 -39.373  49.283  0.00  0.00    +0.000 A 
ATOM     30  C   UNL     1      49.605 -37.981  49.172  0.00  0.00    +0.000 A 
ATOM     31  C   UNL     1      48.708 -37.227  49.932  0.00  0.00    +0.000 A 
ATOM     32  C   UNL     1      47.815 -37.851  50.806  0.00  0.00    +0.000 A 
ATOM     33  C   UNL     1      47.816 -39.243  50.908  0.00  0.00    +0.000 A 
BRANCH  30  34
ATOM     34  O   UNL     1      50.434 -37.262  48.346  0.00  0.00    +0.000 OA
ATOM     35  C   UNL     1      49.791 -36.377  47.472  0.00  0.00    +0.000 C 
ENDBRANCH  30  34
BRANCH  32  36
ATOM     36  O   UNL     1      46.981 -37.011  51.501  0.00  0.00    +0.000 OA
ATOM     37  C   UNL     1      47.620 -36.054  52.301  0.00  0.00    +0.000 C 
ENDBRANCH  32  36
ENDBRANCH  27  28
ENDBRANCH   8  26
TORSDOF 6
ENDMDL
MODEL 3
REMARK VINA RESULT:      -8.6      2.132      3.129
REMARK  Name = AZD4547.pdbqt.pdb
REMARK  6 active torsions:
REMARK  status: ('A' for Active; 'I' for Inactive)
REMARK    1  A    between atoms: C_3  and  C_23
REMARK    2  A    between atoms: C_8  and  C_11
REMARK    3  A    between atoms: C_12  and  C_13
REMARK    4  A    between atoms: C_15  and  O_19
REMARK    5  A    between atoms: C_17  and  O_21
REMARK    6  A    between atoms: C_26  and  N_29
REMARK                            x       y       z     vdW  Elec       q    Type
REMARK                         _______ _______ _______ _____ _____    ______ ____
ROOT
ATOM      1  O   UNL     1      48.320 -47.505  50.470  0.00  0.00    +0.000 OA
ATOM      2  N   UNL     1      47.944 -46.527  52.534  0.00  0.00    +0.000 N 
ATOM      3  C   UNL     1      48.071 -47.589  51.667  0.00  0.00    +0.000 C 
ATOM      4  H   UNL     1      47.734 -46.645  53.514  0.00  0.00    +0.000 HD
ATOM      5  C   UNL     1      48.087 -45.208  52.174  0.00  0.00    +0.000 A 
ATOM      6  N   UNL     1      47.938 -44.265  53.109  0.00  0.00    +0.000 NA
ATOM      7  N   UNL     1      48.138 -43.116  52.438  0.00  0.00    +0.000 N 
ATOM      8  C   UNL     1      48.410 -43.295  51.114  0.00  0.00    +0.000 A 
ATOM      9  H   UNL     1      48.076 -42.240  52.945  0.00  0.00    +0.000 HD
ATOM     10  C   UNL     1      48.384 -44.651  50.906  0.00  0.00    +0.000 A 
ENDROOT
BRANCH   3  11
ATOM     11  C   UNL     1      47.881 -48.937  52.260  0.00  0.00    +0.000 A 
ATOM     12  C   UNL     1      48.713 -49.972  51.837  0.00  0.00    +0.000 A 
ATOM     13  C   UNL     1      48.564 -51.251  52.371  0.00  0.00    +0.000 A 
ATOM     14  C   UNL     1      47.576 -51.528  53.324  0.00  0.00    +0.000 A 
ATOM     15  C   UNL     1      46.761 -50.470  53.750  0.00  0.00    +0.000 A 
ATOM     16  C   UNL     1      46.905 -49.188  53.220  0.00  0.00    +0.000 A 
BRANCH  14  17
ATOM     17  N   UNL     1      47.455 -52.815  53.898  0.00  0.00    +0.000 N 
ATOM     18  C   UNL     1      46.132 -53.246  54.381  0.00  0.00    +0.000 C 
ATOM     19  C   UNL     1      45.620 -53.791  55.595  0.00  0.00    +0.000 C 
ATOM     20  N   UNL     1      46.562 -53.997  56.649  0.00  0.00    +0.000 N 
ATOM     21  C   UNL     1      44.181 -54.105  55.793  0.00  0.00    +0.000 C 
ATOM     22  C   UNL     1      47.923 -53.644  56.406  0.00  0.00    +0.000 C 
ATOM     23  H   UNL     1      46.268 -54.358  57.544  0.00  0.00    +0.000 HD
ATOM     24  C   UNL     1      48.225 -53.113  55.118  0.00  0.00    +0.000 C 
ATOM     25  C   UNL     1      48.948 -53.790  57.473  0.00  0.00    +0.000 C 
ENDBRANCH  14  17
ENDBRANCH   3  11
BRANCH   8  26
ATOM     26  C   UNL     1      48.663 -42.259  50.183  0.00  0.00    +0.000 C 
ATOM     27  C   UNL     1      48.940 -41.136  49.178  0.00  0.00    +0.000 C 
BRANCH  27  28
ATOM     28  C   UNL     1      49.205 -40.090  48.248  0.00  0.00    +0.000 A 
ATOM     29  C   UNL     1      49.665 -40.396  46.971  0.00  0.00    +0.000 A 
ATOM     30  C   UNL     1      49.922 -39.374  46.054  0.00  0.00    +0.000 A 
ATOM     31  C   UNL     1      49.707 -38.046  46.430  0.00  0.00    +0.000 A 
ATOM     32  C   UNL     1      49.250 -37.734  47.712  0.00  0.00    +0.000 A 
ATOM     33  C   UNL     1      48.998 -38.765  48.620  0.00  0.00    +0.000 A 
BRANCH  30  34
ATOM     34  O   UNL     1      50.369 -39.562  44.769  0.00  0.00    +0.000 OA
ATOM     35  C   UNL     1      50.147 -38.494  43.893  0.00  0.00    +0.000 C 
ENDBRANCH  30  34
BRANCH  32  36
ATOM     36  O   UNL     1      49.075 -36.397  47.970  0.00  0.00    +0.000 OA
ATOM     37  C   UNL     1      49.318 -35.538  46.889  0.00  0.00    +0.000 C 
ENDBRANCH  32  36
ENDBRANCH  27  28
ENDBRANCH   8  26
TORSDOF 6
ENDMDL
MODEL 4
REMARK VINA RESULT:      -8.6      5.039      9.245
REMARK  Name = AZD4547.pdbqt.pdb
REMARK  6 active torsions:
REMARK  status: ('A' for Active; 'I' for Inactive)
REMARK    1  A    between atoms: C_3  and  C_23
REMARK    2  A    between atoms: C_8  and  C_11
REMARK    3  A    between atoms: C_12  and  C_13
REMARK    4  A    between atoms: C_15  and  O_19
REMARK    5  A    between atoms: C_17  and  O_21
REMARK    6  A    between atoms: C_26  and  N_29
REMARK                            x       y       z     vdW  Elec       q    Type
REMARK                         _______ _______ _______ _____ _____    ______ ____
ROOT
ATOM      1  O   UNL     1      50.506 -39.341  48.844  0.00  0.00    +0.000 OA
ATOM      2  N   UNL     1      48.726 -39.260  47.366  0.00  0.00    +0.000 N 
ATOM      3  C   UNL     1      49.548 -39.867  48.288  0.00  0.00    +0.000 C 
ATOM      4  H   UNL     1      47.949 -39.735  46.931  0.00  0.00    +0.000 HD
ATOM      5  C   UNL     1      48.862 -37.961  46.940  0.00  0.00    +0.000 A 
ATOM      6  N   UNL     1      47.998 -37.484  46.037  0.00  0.00    +0.000 NA
ATOM      7  N   UNL     1      48.405 -36.216  45.845  0.00  0.00    +0.000 N 
ATOM      8  C   UNL     1      49.491 -35.869  46.592  0.00  0.00    +0.000 A 
ATOM      9  H   UNL     1      47.894 -35.637  45.187  0.00  0.00    +0.000 HD
ATOM     10  C   UNL     1      49.818 -36.986  47.320  0.00  0.00    +0.000 A 
ENDROOT
BRANCH   3  11
ATOM     11  C   UNL     1      49.227 -41.279  48.615  0.00  0.00    +0.000 A 
ATOM     12  C   UNL     1      48.707 -41.569  49.875  0.00  0.00    +0.000 A 
ATOM     13  C   UNL     1      48.394 -42.882  50.217  0.00  0.00    +0.000 A 
ATOM     14  C   UNL     1      48.605 -43.936  49.318  0.00  0.00    +0.000 A 
ATOM     15  C   UNL     1      49.111 -43.623  48.049  0.00  0.00    +0.000 A 
ATOM     16  C   UNL     1      49.426 -42.310  47.700  0.00  0.00    +0.000 A 
BRANCH  14  17
ATOM     17  N   UNL     1      48.244 -45.263  49.651  0.00  0.00    +0.000 N 
ATOM     18  C   UNL     1      47.308 -45.476  50.768  0.00  0.00    +0.000 C 
ATOM     19  C   UNL     1      47.297 -46.277  51.947  0.00  0.00    +0.000 C 
ATOM     20  N   UNL     1      48.441 -47.103  52.169  0.00  0.00    +0.000 N 
ATOM     21  C   UNL     1      46.181 -46.249  52.929  0.00  0.00    +0.000 C 
ATOM     22  C   UNL     1      49.493 -47.058  51.205  0.00  0.00    +0.000 C 
ATOM     23  H   UNL     1      48.514 -47.679  52.994  0.00  0.00    +0.000 HD
ATOM     24  C   UNL     1      49.303 -46.186  50.093  0.00  0.00    +0.000 C 
ATOM     25  C   UNL     1      50.732 -47.857  51.396  0.00  0.00    +0.000 C 
ENDBRANCH  14  17
ENDBRANCH   3  11
BRANCH   8  26
ATOM     26  C   UNL     1      50.118 -34.601  46.585  0.00  0.00    +0.000 C 
ATOM     27  C   UNL     1      50.801 -33.229  46.576  0.00  0.00    +0.000 C 
BRANCH  27  28
ATOM     28  C   UNL     1      51.444 -31.958  46.566  0.00  0.00    +0.000 A 
ATOM     29  C   UNL     1      50.692 -30.798  46.736  0.00  0.00    +0.000 A 
ATOM     30  C   UNL     1      51.318 -29.549  46.731  0.00  0.00    +0.000 A 
ATOM     31  C   UNL     1      52.702 -29.478  46.559  0.00  0.00    +0.000 A 
ATOM     32  C   UNL     1      53.459 -30.637  46.383  0.00  0.00    +0.000 A 
ATOM     33  C   UNL     1      52.822 -31.879  46.390  0.00  0.00    +0.000 A 
BRANCH  30  34
ATOM     34  O   UNL     1      50.676 -28.347  46.897  0.00  0.00    +0.000 OA
ATOM     35  C   UNL     1      51.404 -27.367  47.583  0.00  0.00    +0.000 C 
ENDBRANCH  30  34
BRANCH  32  36
ATOM     36  O   UNL     1      54.809 -30.446  46.224  0.00  0.00    +0.000 OA
ATOM     37  C   UNL     1      55.627 -31.450  46.760  0.00  0.00    +0.000 C 
ENDBRANCH  32  36
ENDBRANCH  27  28
ENDBRANCH   8  26
TORSDOF 6
ENDMDL
MODEL 5
REMARK VINA RESULT:      -8.4      5.142      9.363
REMARK  Name = AZD4547.pdbqt.pdb
REMARK  6 active torsions:
REMARK  status: ('A' for Active; 'I' for Inactive)
REMARK    1  A    between atoms: C_3  and  C_23
REMARK    2  A    between atoms: C_8  and  C_11
REMARK    3  A    between atoms: C_12  and  C_13
REMARK    4  A    between atoms: C_15  and  O_19
REMARK    5  A    between atoms: C_17  and  O_21
REMARK    6  A    between atoms: C_26  and  N_29
REMARK                            x       y       z     vdW  Elec       q    Type
REMARK                         _______ _______ _______ _____ _____    ______ ____
ROOT
ATOM      1  O   UNL     1      49.967 -38.730  50.063  0.00  0.00    +0.000 OA
ATOM      2  N   UNL     1      48.678 -39.107  48.176  0.00  0.00    +0.000 N 
ATOM      3  C   UNL     1      49.215 -39.437  49.401  0.00  0.00    +0.000 C 
ATOM      4  H   UNL     1      48.065 -39.724  47.666  0.00  0.00    +0.000 HD
ATOM      5  C   UNL     1      48.910 -37.922  47.521  0.00  0.00    +0.000 A 
ATOM      6  N   UNL     1      48.331 -37.719  46.332  0.00  0.00    +0.000 NA
ATOM      7  N   UNL     1      48.756 -36.492  45.977  0.00  0.00    +0.000 N 
ATOM      8  C   UNL     1      49.579 -35.910  46.893  0.00  0.00    +0.000 A 
ATOM      9  H   UNL     1      48.444 -36.109  45.091  0.00  0.00    +0.000 HD
ATOM     10  C   UNL     1      49.703 -36.817  47.916  0.00  0.00    +0.000 A 
ENDROOT
BRANCH   3  11
ATOM     11  C   UNL     1      48.835 -40.767  49.938  0.00  0.00    +0.000 A 
ATOM     12  C   UNL     1      48.041 -40.821  51.083  0.00  0.00    +0.000 A 
ATOM     13  C   UNL     1      47.665 -42.052  51.616  0.00  0.00    +0.000 A 
ATOM     14  C   UNL     1      48.085 -43.254  51.031  0.00  0.00    +0.000 A 
ATOM     15  C   UNL     1      48.868 -43.181  49.871  0.00  0.00    +0.000 A 
ATOM     16  C   UNL     1      49.247 -41.952  49.332  0.00  0.00    +0.000 A 
BRANCH  14  17
ATOM     17  N   UNL     1      47.666 -44.503  51.548  0.00  0.00    +0.000 N 
ATOM     18  C   UNL     1      48.670 -45.569  51.703  0.00  0.00    +0.000 C 
ATOM     19  C   UNL     1      48.772 -46.936  51.309  0.00  0.00    +0.000 C 
ATOM     20  N   UNL     1      47.669 -47.474  50.578  0.00  0.00    +0.000 N 
ATOM     21  C   UNL     1      49.968 -47.770  51.599  0.00  0.00    +0.000 C 
ATOM     22  C   UNL     1      46.566 -46.611  50.304  0.00  0.00    +0.000 C 
ATOM     23  H   UNL     1      47.681 -48.426  50.247  0.00  0.00    +0.000 HD
ATOM     24  C   UNL     1      46.665 -45.274  50.790  0.00  0.00    +0.000 C 
ATOM     25  C   UNL     1      45.405 -47.091  49.510  0.00  0.00    +0.000 C 
ENDBRANCH  14  17
ENDBRANCH   3  11
BRANCH   8  26
ATOM     26  C   UNL     1      50.163 -34.626  46.770  0.00  0.00    +0.000 C 
ATOM     27  C   UNL     1      50.798 -33.238  46.640  0.00  0.00    +0.000 C 
BRANCH  27  28
ATOM     28  C   UNL     1      51.395 -31.949  46.525  0.00  0.00    +0.000 A 
ATOM     29  C   UNL     1      52.781 -31.828  46.488  0.00  0.00    +0.000 A 
ATOM     30  C   UNL     1      53.372 -30.567  46.371  0.00  0.00    +0.000 A 
ATOM     31  C   UNL     1      52.558 -29.435  46.286  0.00  0.00    +0.000 A 
ATOM     32  C   UNL     1      51.168 -29.552  46.327  0.00  0.00    +0.000 A 
ATOM     33  C   UNL     1      50.590 -30.817  46.445  0.00  0.00    +0.000 A 
BRANCH  30  34
ATOM     34  O   UNL     1      54.724 -30.333  46.317  0.00  0.00    +0.000 OA
ATOM     35  C   UNL     1      55.536 -31.437  46.599  0.00  0.00    +0.000 C 
ENDBRANCH  30  34
BRANCH  32  36
ATOM     36  O   UNL     1      50.470 -28.373  46.235  0.00  0.00    +0.000 OA
ATOM     37  C   UNL     1      49.174 -28.398  46.767  0.00  0.00    +0.000 C 
ENDBRANCH  32  36
ENDBRANCH  27  28
ENDBRANCH   8  26
TORSDOF 6
ENDMDL
MODEL 6
REMARK VINA RESULT:      -8.4      5.184      9.204
REMARK  Name = AZD4547.pdbqt.pdb
REMARK  6 active torsions:
REMARK  status: ('A' for Active; 'I' for Inactive)
REMARK    1  A    between atoms: C_3  and  C_23
REMARK    2  A    between atoms: C_8  and  C_11
REMARK    3  A    between atoms: C_12  and  C_13
REMARK    4  A    between atoms: C_15  and  O_19
REMARK    5  A    between atoms: C_17  and  O_21
REMARK    6  A    between atoms: C_26  and  N_29
REMARK                            x       y       z     vdW  Elec       q    Type
REMARK                         _______ _______ _______ _____ _____    ______ ____
ROOT
ATOM      1  O   UNL     1      50.089 -38.774  50.037  0.00  0.00    +0.000 OA
ATOM      2  N   UNL     1      48.764 -39.172  48.180  0.00  0.00    +0.000 N 
ATOM      3  C   UNL     1      49.331 -39.491  49.394  0.00  0.00    +0.000 C 
ATOM      4  H   UNL     1      48.147 -39.797  47.685  0.00  0.00    +0.000 HD
ATOM      5  C   UNL     1      48.968 -37.986  47.515  0.00  0.00    +0.000 A 
ATOM      6  N   UNL     1      48.361 -37.794  46.339  0.00  0.00    +0.000 NA
ATOM      7  N   UNL     1      48.764 -36.564  45.970  0.00  0.00    +0.000 N 
ATOM      8  C   UNL     1      49.600 -35.969  46.867  0.00  0.00    +0.000 A 
ATOM      9  H   UNL     1      48.428 -36.187  45.090  0.00  0.00    +0.000 HD
ATOM     10  C   UNL     1      49.757 -36.871  47.890  0.00  0.00    +0.000 A 
ENDROOT
BRANCH   3  11
ATOM     11  C   UNL     1      48.979 -40.824  49.944  0.00  0.00    +0.000 A 
ATOM     12  C   UNL     1      48.254 -40.882  51.134  0.00  0.00    +0.000 A 
ATOM     13  C   UNL     1      47.906 -42.116  51.680  0.00  0.00    +0.000 A 
ATOM     14  C   UNL     1      48.284 -43.315  51.063  0.00  0.00    +0.000 A 
ATOM     15  C   UNL     1      48.995 -43.237  49.858  0.00  0.00    +0.000 A 
ATOM     16  C   UNL     1      49.347 -42.005  49.305  0.00  0.00    +0.000 A 
BRANCH  14  17
ATOM     17  N   UNL     1      47.891 -44.566  51.595  0.00  0.00    +0.000 N 
ATOM     18  C   UNL     1      48.519 -45.785  51.057  0.00  0.00    +0.000 C 
ATOM     19  C   UNL     1      48.049 -47.026  50.536  0.00  0.00    +0.000 C 
ATOM     20  N   UNL     1      46.633 -47.205  50.492  0.00  0.00    +0.000 N 
ATOM     21  C   UNL     1      48.962 -48.083  50.027  0.00  0.00    +0.000 C 
ATOM     22  C   UNL     1      45.811 -46.139  50.966  0.00  0.00    +0.000 C 
ATOM     23  H   UNL     1      46.228 -48.048  50.115  0.00  0.00    +0.000 HD
ATOM     24  C   UNL     1      46.485 -44.978  51.448  0.00  0.00    +0.000 C 
ATOM     25  C   UNL     1      44.329 -46.239  50.908  0.00  0.00    +0.000 C 
ENDBRANCH  14  17
ENDBRANCH   3  11
BRANCH   8  26
ATOM     26  C   UNL     1      50.167 -34.680  46.726  0.00  0.00    +0.000 C 
ATOM     27  C   UNL     1      50.777 -33.282  46.577  0.00  0.00    +0.000 C 
BRANCH  27  28
ATOM     28  C   UNL     1      51.338 -31.979  46.444  0.00  0.00    +0.000 A 
ATOM     29  C   UNL     1      50.502 -30.871  46.340  0.00  0.00    +0.000 A 
ATOM     30  C   UNL     1      51.046 -29.591  46.214  0.00  0.00    +0.000 A 
ATOM     31  C   UNL     1      52.434 -29.435  46.200  0.00  0.00    +0.000 A 
ATOM     32  C   UNL     1      53.276 -30.544  46.299  0.00  0.00    +0.000 A 
ATOM     33  C   UNL     1      52.720 -31.819  46.424  0.00  0.00    +0.000 A 
BRANCH  30  34
ATOM     34  O   UNL     1      50.317 -28.432  46.112  0.00  0.00    +0.000 OA
ATOM     35  C   UNL     1      49.179 -28.364  46.924  0.00  0.00    +0.000 C 
ENDBRANCH  30  34
BRANCH  32  36
ATOM     36  O   UNL     1      54.622 -30.271  46.274  0.00  0.00    +0.000 OA
ATOM     37  C   UNL     1      55.461 -31.357  46.560  0.00  0.00    +0.000 C 
ENDBRANCH  32  36
ENDBRANCH  27  28
ENDBRANCH   8  26
TORSDOF 6
ENDMDL
MODEL 7
REMARK VINA RESULT:      -8.3      2.597      3.412
REMARK  Name = AZD4547.pdbqt.pdb
REMARK  6 active torsions:
REMARK  status: ('A' for Active; 'I' for Inactive)
REMARK    1  A    between atoms: C_3  and  C_23
REMARK    2  A    between atoms: C_8  and  C_11
REMARK    3  A    between atoms: C_12  and  C_13
REMARK    4  A    between atoms: C_15  and  O_19
REMARK    5  A    between atoms: C_17  and  O_21
REMARK    6  A    between atoms: C_26  and  N_29
REMARK                            x       y       z     vdW  Elec       q    Type
REMARK                         _______ _______ _______ _____ _____    ______ ____
ROOT
ATOM      1  O   UNL     1      48.468 -47.456  50.355  0.00  0.00    +0.000 OA
ATOM      2  N   UNL     1      48.064 -46.465  52.408  0.00  0.00    +0.000 N 
ATOM      3  C   UNL     1      48.222 -47.533  51.554  0.00  0.00    +0.000 C 
ATOM      4  H   UNL     1      47.859 -46.577  53.389  0.00  0.00    +0.000 HD
ATOM      5  C   UNL     1      48.166 -45.147  52.031  0.00  0.00    +0.000 A 
ATOM      6  N   UNL     1      47.989 -44.197  52.955  0.00  0.00    +0.000 NA
ATOM      7  N   UNL     1      48.154 -43.051  52.269  0.00  0.00    +0.000 N 
ATOM      8  C   UNL     1      48.430 -43.238  50.947  0.00  0.00    +0.000 A 
ATOM      9  H   UNL     1      48.066 -42.171  52.766  0.00  0.00    +0.000 HD
ATOM     10  C   UNL     1      48.445 -44.597  50.756  0.00  0.00    +0.000 A 
ENDROOT
BRANCH   3  11
ATOM     11  C   UNL     1      48.075 -48.878  52.163  0.00  0.00    +0.000 A 
ATOM     12  C   UNL     1      48.884 -49.913  51.695  0.00  0.00    +0.000 A 
ATOM     13  C   UNL     1      48.772 -51.189  52.243  0.00  0.00    +0.000 A 
ATOM     14  C   UNL     1      47.845 -51.465  53.256  0.00  0.00    +0.000 A 
ATOM     15  C   UNL     1      47.053 -50.409  53.726  0.00  0.00    +0.000 A 
ATOM     16  C   UNL     1      47.159 -49.129  53.182  0.00  0.00    +0.000 A 
BRANCH  14  17
ATOM     17  N   UNL     1      47.765 -52.751  53.842  0.00  0.00    +0.000 N 
ATOM     18  C   UNL     1      47.548 -52.846  55.296  0.00  0.00    +0.000 C 
ATOM     19  C   UNL     1      48.181 -53.528  56.376  0.00  0.00    +0.000 C 
ATOM     20  N   UNL     1      49.310 -54.338  56.046  0.00  0.00    +0.000 N 
ATOM     21  C   UNL     1      47.730 -53.395  57.787  0.00  0.00    +0.000 C 
ATOM     22  C   UNL     1      49.711 -54.397  54.678  0.00  0.00    +0.000 C 
ATOM     23  H   UNL     1      49.821 -54.832  56.761  0.00  0.00    +0.000 HD
ATOM     24  C   UNL     1      48.939 -53.636  53.752  0.00  0.00    +0.000 C 
ATOM     25  C   UNL     1      50.904 -55.184  54.270  0.00  0.00    +0.000 C 
ENDBRANCH  14  17
ENDBRANCH   3  11
BRANCH   8  26
ATOM     26  C   UNL     1      48.650 -42.206  50.004  0.00  0.00    +0.000 C 
ATOM     27  C   UNL     1      48.892 -41.088  48.984  0.00  0.00    +0.000 C 
BRANCH  27  28
ATOM     28  C   UNL     1      49.124 -40.046  48.041  0.00  0.00    +0.000 A 
ATOM     29  C   UNL     1      48.941 -38.718  48.415  0.00  0.00    +0.000 A 
ATOM     30  C   UNL     1      49.172 -37.691  47.496  0.00  0.00    +0.000 A 
ATOM     31  C   UNL     1      49.592 -38.012  46.203  0.00  0.00    +0.000 A 
ATOM     32  C   UNL     1      49.771 -39.343  45.822  0.00  0.00    +0.000 A 
ATOM     33  C   UNL     1      49.537 -40.359  46.749  0.00  0.00    +0.000 A 
BRANCH  30  34
ATOM     34  O   UNL     1      49.031 -36.351  47.760  0.00  0.00    +0.000 OA
ATOM     35  C   UNL     1      49.702 -35.492  46.882  0.00  0.00    +0.000 C 
ENDBRANCH  30  34
BRANCH  32  36
ATOM     36  O   UNL     1      50.186 -39.538  44.527  0.00  0.00    +0.000 OA
ATOM     37  C   UNL     1      50.397 -38.371  43.780  0.00  0.00    +0.000 C 
ENDBRANCH  32  36
ENDBRANCH  27  28
ENDBRANCH   8  26
TORSDOF 6
ENDMDL
MODEL 8
REMARK VINA RESULT:      -8.0      3.000     13.896
REMARK  Name = AZD4547.pdbqt.pdb
REMARK  6 active torsions:
REMARK  status: ('A' for Active; 'I' for Inactive)
REMARK    1  A    between atoms: C_3  and  C_23
REMARK    2  A    between atoms: C_8  and  C_11
REMARK    3  A    between atoms: C_12  and  C_13
REMARK    4  A    between atoms: C_15  and  O_19
REMARK    5  A    between atoms: C_17  and  O_21
REMARK    6  A    between atoms: C_26  and  N_29
REMARK                            x       y       z     vdW  Elec       q    Type
REMARK                         _______ _______ _______ _____ _____    ______ ____
ROOT
ATOM      1  O   UNL     1      48.117 -44.703  52.618  0.00  0.00    +0.000 OA
ATOM      2  N   UNL     1      47.681 -45.442  50.468  0.00  0.00    +0.000 N 
ATOM      3  C   UNL     1      48.083 -44.519  51.407  0.00  0.00    +0.000 C 
ATOM      4  H   UNL     1      47.666 -45.244  49.479  0.00  0.00    +0.000 HD
ATOM      5  C   UNL     1      47.263 -46.718  50.762  0.00  0.00    +0.000 A 
ATOM      6  N   UNL     1      46.895 -47.523  49.760  0.00  0.00    +0.000 NA
ATOM      7  N   UNL     1      46.552 -48.667  50.381  0.00  0.00    +0.000 N 
ATOM      8  C   UNL     1      46.690 -48.619  51.736  0.00  0.00    +0.000 A 
ATOM      9  H   UNL     1      46.231 -49.447  49.817  0.00  0.00    +0.000 HD
ATOM     10  C   UNL     1      47.152 -47.358  52.021  0.00  0.00    +0.000 A 
ENDROOT
BRANCH   3  11
ATOM     11  C   UNL     1      48.501 -43.196  50.878  0.00  0.00    +0.000 A 
ATOM     12  C   UNL     1      48.175 -42.054  51.609  0.00  0.00    +0.000 A 
ATOM     13  C   UNL     1      48.551 -40.796  51.144  0.00  0.00    +0.000 A 
ATOM     14  C   UNL     1      49.245 -40.647  49.936  0.00  0.00    +0.000 A 
ATOM     15  C   UNL     1      49.579 -41.807  49.224  0.00  0.00    +0.000 A 
ATOM     16  C   UNL     1      49.207 -43.069  49.684  0.00  0.00    +0.000 A 
BRANCH  14  17
ATOM     17  N   UNL     1      49.664 -39.372  49.487  0.00  0.00    +0.000 N 
ATOM     18  C   UNL     1      49.160 -38.180  50.191  0.00  0.00    +0.000 C 
ATOM     19  C   UNL     1      48.527 -36.963  49.804  0.00  0.00    +0.000 C 
ATOM     20  N   UNL     1      48.289 -36.782  48.408  0.00  0.00    +0.000 N 
ATOM     21  C   UNL     1      48.096 -35.933  50.786  0.00  0.00    +0.000 C 
ATOM     22  C   UNL     1      48.697 -37.823  47.521  0.00  0.00    +0.000 C 
ATOM     23  H   UNL     1      47.825 -35.956  48.063  0.00  0.00    +0.000 HD
ATOM     24  C   UNL     1      49.315 -38.963  48.116  0.00  0.00    +0.000 C 
ATOM     25  C   UNL     1      48.440 -37.722  46.061  0.00  0.00    +0.000 C 
ENDBRANCH  14  17
ENDBRANCH   3  11
BRANCH   8  26
ATOM     26  C   UNL     1      46.402 -49.681  52.626  0.00  0.00    +0.000 C 
ATOM     27  C   UNL     1      46.090 -50.833  53.586  0.00  0.00    +0.000 C 
BRANCH  27  28
ATOM     28  C   UNL     1      45.799 -51.911  54.472  0.00  0.00    +0.000 A 
ATOM     29  C   UNL     1      46.728 -52.285  55.439  0.00  0.00    +0.000 A 
ATOM     30  C   UNL     1      46.446 -53.337  56.313  0.00  0.00    +0.000 A 
ATOM     31  C   UNL     1      45.223 -54.004  56.210  0.00  0.00    +0.000 A 
ATOM     32  C   UNL     1      44.291 -53.636  55.238  0.00  0.00    +0.000 A 
ATOM     33  C   UNL     1      44.585 -52.582  54.370  0.00  0.00    +0.000 A 
BRANCH  30  34
ATOM     34  O   UNL     1      47.284 -53.783  57.305  0.00  0.00    +0.000 OA
ATOM     35  C   UNL     1      46.650 -54.341  58.421  0.00  0.00    +0.000 C 
ENDBRANCH  30  34
BRANCH  32  36
ATOM     36  O   UNL     1      43.125 -54.360  55.230  0.00  0.00    +0.000 OA
ATOM     37  C   UNL     1      42.671 -54.785  56.487  0.00  0.00    +0.000 C 
ENDBRANCH  32  36
ENDBRANCH  27  28
ENDBRANCH   8  26
TORSDOF 6
ENDMDL
MODEL 9
REMARK VINA RESULT:      -8.0      1.849      2.278
REMARK  Name = AZD4547.pdbqt.pdb
REMARK  6 active torsions:
REMARK  status: ('A' for Active; 'I' for Inactive)
REMARK    1  A    between atoms: C_3  and  C_23
REMARK    2  A    between atoms: C_8  and  C_11
REMARK    3  A    between atoms: C_12  and  C_13
REMARK    4  A    between atoms: C_15  and  O_19
REMARK    5  A    between atoms: C_17  and  O_21
REMARK    6  A    between atoms: C_26  and  N_29
REMARK                            x       y       z     vdW  Elec       q    Type
REMARK                         _______ _______ _______ _____ _____    ______ ____
ROOT
ATOM      1  O   UNL     1      46.970 -47.730  50.559  0.00  0.00    +0.000 OA
ATOM      2  N   UNL     1      47.273 -46.836  52.673  0.00  0.00    +0.000 N 
ATOM      3  C   UNL     1      46.977 -47.841  51.780  0.00  0.00    +0.000 C 
ATOM      4  H   UNL     1      47.263 -46.973  53.672  0.00  0.00    +0.000 HD
ATOM      5  C   UNL     1      47.612 -45.553  52.314  0.00  0.00    +0.000 A 
ATOM      6  N   UNL     1      47.876 -44.663  53.276  0.00  0.00    +0.000 NA
ATOM      7  N   UNL     1      48.165 -43.537  52.598  0.00  0.00    +0.000 N 
ATOM      8  C   UNL     1      48.095 -43.679  51.244  0.00  0.00    +0.000 A 
ATOM      9  H   UNL     1      48.403 -42.702  53.122  0.00  0.00    +0.000 HD
ATOM     10  C   UNL     1      47.734 -44.985  51.022  0.00  0.00    +0.000 A 
ENDROOT
BRANCH   3  11
ATOM     11  C   UNL     1      46.639 -49.158  52.375  0.00  0.00    +0.000 A 
ATOM     12  C   UNL     1      45.749 -49.988  51.694  0.00  0.00    +0.000 A 
ATOM     13  C   UNL     1      45.409 -51.231  52.222  0.00  0.00    +0.000 A 
ATOM     14  C   UNL     1      45.935 -51.668  53.445  0.00  0.00    +0.000 A 
ATOM     15  C   UNL     1      46.843 -50.829  54.106  0.00  0.00    +0.000 A 
ATOM     16  C   UNL     1      47.188 -49.583  53.582  0.00  0.00    +0.000 A 
BRANCH  14  17
ATOM     17  N   UNL     1      45.623 -52.949  53.957  0.00  0.00    +0.000 N 
ATOM     18  C   UNL     1      44.217 -53.255  54.272  0.00  0.00    +0.000 C 
ATOM     19  C   UNL     1      43.516 -53.772  55.401  0.00  0.00    +0.000 C 
ATOM     20  N   UNL     1      44.303 -54.095  56.548  0.00  0.00    +0.000 N 
ATOM     21  C   UNL     1      42.039 -53.944  55.422  0.00  0.00    +0.000 C 
ATOM     22  C   UNL     1      45.711 -53.876  56.474  0.00  0.00    +0.000 C 
ATOM     23  H   UNL     1      43.873 -54.443  57.391  0.00  0.00    +0.000 HD
ATOM     24  C   UNL     1      46.212 -53.350  55.247  0.00  0.00    +0.000 C 
ATOM     25  C   UNL     1      46.585 -54.147  57.646  0.00  0.00    +0.000 C 
ENDBRANCH  14  17
ENDBRANCH   3  11
BRANCH   8  26
ATOM     26  C   UNL     1      48.352 -42.657  50.300  0.00  0.00    +0.000 C 
ATOM     27  C   UNL     1      48.627 -41.547  49.279  0.00  0.00    +0.000 C 
BRANCH  27  28
ATOM     28  C   UNL     1      48.878 -40.510  48.335  0.00  0.00    +0.000 A 
ATOM     29  C   UNL     1      49.017 -39.195  48.769  0.00  0.00    +0.000 A 
ATOM     30  C   UNL     1      49.267 -38.175  47.849  0.00  0.00    +0.000 A 
ATOM     31  C   UNL     1      49.381 -38.489  46.492  0.00  0.00    +0.000 A 
ATOM     32  C   UNL     1      49.237 -39.805  46.052  0.00  0.00    +0.000 A 
ATOM     33  C   UNL     1      48.987 -40.816  46.982  0.00  0.00    +0.000 A 
BRANCH  30  34
ATOM     34  O   UNL     1      49.429 -36.849  48.167  0.00  0.00    +0.000 OA
ATOM     35  C   UNL     1      48.656 -36.390  49.240  0.00  0.00    +0.000 C 
ENDBRANCH  30  34
BRANCH  32  36
ATOM     36  O   UNL     1      49.369 -39.996  44.698  0.00  0.00    +0.000 OA
ATOM     37  C   UNL     1      50.675 -39.899  44.201  0.00  0.00    +0.000 C 
ENDBRANCH  32  36
ENDBRANCH  27  28
ENDBRANCH   8  26
TORSDOF 6
ENDMDL
