MODEL 1
REMARK VINA RESULT:      -7.9      0.000      0.000
REMARK  Name = Belinostat.pdbqt.pdb
REMARK  6 active torsions:
REMARK  status: ('A' for Active; 'I' for Inactive)
REMARK    1  A    between atoms: C_1  and  S_7
REMARK    2  A    between atoms: C_3  and  C_18
REMARK    3  A    between atoms: S_7  and  N_10
REMARK    4  A    between atoms: N_10  and  C_12
REMARK    5  A    between atoms: C_19  and  C_20
REMARK    6  A    between atoms: N_22  and  O_24
REMARK                            x       y       z     vdW  Elec       q    Type
REMARK                         _______ _______ _______ _____ _____    ______ ____
ROOT
ATOM      1  C   UNL     1      49.134 -40.695  48.941  0.00  0.00    +0.000 A 
ATOM      2  C   UNL     1      48.462 -41.557  49.799  0.00  0.00    +0.000 A 
ATOM      3  C   UNL     1      48.270 -42.880  49.413  0.00  0.00    +0.000 A 
ATOM      4  C   UNL     1      49.643 -41.132  47.722  0.00  0.00    +0.000 A 
ATOM      5  C   UNL     1      48.761 -43.331  48.188  0.00  0.00    +0.000 A 
ATOM      6  C   UNL     1      49.448 -42.457  47.344  0.00  0.00    +0.000 A 
ENDROOT
BRANCH   1   7
ATOM      7  S   UNL     1      49.417 -39.034  49.436  0.00  0.00    +0.000 S 
ATOM      8  O   UNL     1      49.089 -38.192  48.305  0.00  0.00    +0.000 OA
ATOM      9  O   UNL     1      50.717 -38.965  50.067  0.00  0.00    +0.000 OA
BRANCH   7  10
ATOM     10  N   UNL     1      48.230 -38.764  50.587  0.00  0.00    +0.000 N 
ATOM     11  H   UNL     1      47.860 -39.610  51.018  0.00  0.00    +0.000 HD
BRANCH  10  12
ATOM     12  C   UNL     1      48.031 -37.507  51.224  0.00  0.00    +0.000 A 
ATOM     13  C   UNL     1      46.812 -36.834  51.201  0.00  0.00    +0.000 A 
ATOM     14  C   UNL     1      46.647 -35.646  51.910  0.00  0.00    +0.000 A 
ATOM     15  C   UNL     1      47.697 -35.141  52.670  0.00  0.00    +0.000 A 
ATOM     16  C   UNL     1      48.907 -35.827  52.728  0.00  0.00    +0.000 A 
ATOM     17  C   UNL     1      49.068 -37.014  52.017  0.00  0.00    +0.000 A 
ENDBRANCH  10  12
ENDBRANCH   7  10
ENDBRANCH   1   7
BRANCH   3  18
ATOM     18  C   UNL     1      47.571 -43.777  50.274  0.00  0.00    +0.000 C 
ATOM     19  C   UNL     1      46.984 -44.532  51.001  0.00  0.00    +0.000 C 
BRANCH  19  20
ATOM     20  C   UNL     1      46.281 -45.438  51.874  0.00  0.00    +0.000 C 
ATOM     21  O   UNL     1      45.208 -45.923  51.533  0.00  0.00    +0.000 OA
ATOM     22  N   UNL     1      46.889 -45.712  53.067  0.00  0.00    +0.000 N 
ATOM     23  H   UNL     1      47.802 -45.365  53.340  0.00  0.00    +0.000 HD
BRANCH  22  24
ATOM     24  O   UNL     1      46.253 -46.633  53.928  0.00  0.00    +0.000 OA
ATOM     25  H   UNL     1      45.303 -46.410  53.820  0.00  0.00    +0.000 HD
ENDBRANCH  22  24
ENDBRANCH  19  20
ENDBRANCH   3  18
TORSDOF 6
ENDMDL
MODEL 2
REMARK VINA RESULT:      -7.6      3.540      4.256
REMARK  Name = Belinostat.pdbqt.pdb
REMARK  6 active torsions:
REMARK  status: ('A' for Active; 'I' for Inactive)
REMARK    1  A    between atoms: C_1  and  S_7
REMARK    2  A    between atoms: C_3  and  C_18
REMARK    3  A    between atoms: S_7  and  N_10
REMARK    4  A    between atoms: N_10  and  C_12
REMARK    5  A    between atoms: C_19  and  C_20
REMARK    6  A    between atoms: N_22  and  O_24
REMARK                            x       y       z     vdW  Elec       q    Type
REMARK                         _______ _______ _______ _____ _____    ______ ____
ROOT
ATOM      1  C   UNL     1      48.050 -41.172  49.023  0.00  0.00    +0.000 A 
ATOM      2  C   UNL     1      49.050 -42.116  49.226  0.00  0.00    +0.000 A 
ATOM      3  C   UNL     1      49.496 -42.870  48.145  0.00  0.00    +0.000 A 
ATOM      4  C   UNL     1      47.509 -40.945  47.761  0.00  0.00    +0.000 A 
ATOM      5  C   UNL     1      48.954 -42.666  46.876  0.00  0.00    +0.000 A 
ATOM      6  C   UNL     1      47.962 -41.703  46.685  0.00  0.00    +0.000 A 
ENDROOT
BRANCH   1   7
ATOM      7  S   UNL     1      47.508 -40.187  50.372  0.00  0.00    +0.000 S 
ATOM      8  O   UNL     1      48.200 -40.662  51.550  0.00  0.00    +0.000 OA
ATOM      9  O   UNL     1      46.063 -40.118  50.330  0.00  0.00    +0.000 OA
BRANCH   7  10
ATOM     10  N   UNL     1      48.142 -38.675  50.028  0.00  0.00    +0.000 N 
ATOM     11  H   UNL     1      48.221 -38.467  49.033  0.00  0.00    +0.000 HD
BRANCH  10  12
ATOM     12  C   UNL     1      48.184 -37.611  50.973  0.00  0.00    +0.000 A 
ATOM     13  C   UNL     1      49.350 -37.240  51.639  0.00  0.00    +0.000 A 
ATOM     14  C   UNL     1      49.354 -36.139  52.492  0.00  0.00    +0.000 A 
ATOM     15  C   UNL     1      48.196 -35.387  52.662  0.00  0.00    +0.000 A 
ATOM     16  C   UNL     1      47.037 -35.731  51.971  0.00  0.00    +0.000 A 
ATOM     17  C   UNL     1      47.036 -36.833  51.120  0.00  0.00    +0.000 A 
ENDBRANCH  10  12
ENDBRANCH   7  10
ENDBRANCH   1   7
BRANCH   3  18
ATOM     18  C   UNL     1      50.511 -43.854  48.337  0.00  0.00    +0.000 C 
ATOM     19  C   UNL     1      51.367 -44.680  48.501  0.00  0.00    +0.000 C 
BRANCH  19  20
ATOM     20  C   UNL     1      52.396 -45.671  48.697  0.00  0.00    +0.000 C 
ATOM     21  O   UNL     1      52.200 -46.634  49.429  0.00  0.00    +0.000 OA
ATOM     22  N   UNL     1      53.564 -45.463  48.018  0.00  0.00    +0.000 N 
ATOM     23  H   UNL     1      53.721 -44.705  47.364  0.00  0.00    +0.000 HD
BRANCH  22  24
ATOM     24  O   UNL     1      54.577 -46.439  48.147  0.00  0.00    +0.000 OA
ATOM     25  H   UNL     1      54.070 -47.280  48.127  0.00  0.00    +0.000 HD
ENDBRANCH  22  24
ENDBRANCH  19  20
ENDBRANCH   3  18
TORSDOF 6
ENDMDL
MODEL 3
REMARK VINA RESULT:      -7.6      4.268      8.147
REMARK  Name = Belinostat.pdbqt.pdb
REMARK  6 active torsions:
REMARK  status: ('A' for Active; 'I' for Inactive)
REMARK    1  A    between atoms: C_1  and  S_7
REMARK    2  A    between atoms: C_3  and  C_18
REMARK    3  A    between atoms: S_7  and  N_10
REMARK    4  A    between atoms: N_10  and  C_12
REMARK    5  A    between atoms: C_19  and  C_20
REMARK    6  A    between atoms: N_22  and  O_24
REMARK                            x       y       z     vdW  Elec       q    Type
REMARK                         _______ _______ _______ _____ _____    ______ ____
ROOT
ATOM      1  C   UNL     1      49.213 -38.407  48.132  0.00  0.00    +0.000 A 
ATOM      2  C   UNL     1      49.529 -37.056  48.054  0.00  0.00    +0.000 A 
ATOM      3  C   UNL     1      49.392 -36.399  46.836  0.00  0.00    +0.000 A 
ATOM      4  C   UNL     1      48.737 -39.107  47.027  0.00  0.00    +0.000 A 
ATOM      5  C   UNL     1      48.930 -37.089  45.715  0.00  0.00    +0.000 A 
ATOM      6  C   UNL     1      48.601 -38.442  45.812  0.00  0.00    +0.000 A 
ENDROOT
BRANCH   1   7
ATOM      7  S   UNL     1      49.344 -39.237  49.674  0.00  0.00    +0.000 S 
ATOM      8  O   UNL     1      50.456 -38.641  50.383  0.00  0.00    +0.000 OA
ATOM      9  O   UNL     1      49.290 -40.661  49.427  0.00  0.00    +0.000 OA
BRANCH   7  10
ATOM     10  N   UNL     1      47.957 -38.765  50.487  0.00  0.00    +0.000 N 
ATOM     11  H   UNL     1      47.313 -39.526  50.700  0.00  0.00    +0.000 HD
BRANCH  10  12
ATOM     12  C   UNL     1      47.844 -37.533  51.189  0.00  0.00    +0.000 A 
ATOM     13  C   UNL     1      46.829 -36.612  50.938  0.00  0.00    +0.000 A 
ATOM     14  C   UNL     1      46.716 -35.458  51.711  0.00  0.00    +0.000 A 
ATOM     15  C   UNL     1      47.604 -35.235  52.758  0.00  0.00    +0.000 A 
ATOM     16  C   UNL     1      48.598 -36.168  53.038  0.00  0.00    +0.000 A 
ATOM     17  C   UNL     1      48.708 -37.320  52.263  0.00  0.00    +0.000 A 
ENDBRANCH  10  12
ENDBRANCH   7  10
ENDBRANCH   1   7
BRANCH   3  18
ATOM     18  C   UNL     1      49.725 -35.015  46.734  0.00  0.00    +0.000 C 
ATOM     19  C   UNL     1      50.002 -33.850  46.647  0.00  0.00    +0.000 C 
BRANCH  19  20
ATOM     20  C   UNL     1      50.335 -32.451  46.542  0.00  0.00    +0.000 C 
ATOM     21  O   UNL     1      51.480 -32.067  46.749  0.00  0.00    +0.000 OA
ATOM     22  N   UNL     1      49.309 -31.617  46.197  0.00  0.00    +0.000 N 
ATOM     23  H   UNL     1      48.371 -31.925  45.967  0.00  0.00    +0.000 HD
BRANCH  22  24
ATOM     24  O   UNL     1      49.607 -30.246  46.038  0.00  0.00    +0.000 OA
ATOM     25  H   UNL     1      48.986 -29.971  45.329  0.00  0.00    +0.000 HD
ENDBRANCH  22  24
ENDBRANCH  19  20
ENDBRANCH   3  18
TORSDOF 6
ENDMDL
MODEL 4
REMARK VINA RESULT:      -7.6      3.244      8.322
REMARK  Name = Belinostat.pdbqt.pdb
REMARK  6 active torsions:
REMARK  status: ('A' for Active; 'I' for Inactive)
REMARK    1  A    between atoms: C_1  and  S_7
REMARK    2  A    between atoms: C_3  and  C_18
REMARK    3  A    between atoms: S_7  and  N_10
REMARK    4  A    between atoms: N_10  and  C_12
REMARK    5  A    between atoms: C_19  and  C_20
REMARK    6  A    between atoms: N_22  and  O_24
REMARK                            x       y       z     vdW  Elec       q    Type
REMARK                         _______ _______ _______ _____ _____    ______ ____
ROOT
ATOM      1  C   UNL     1      48.181 -42.861  50.684  0.00  0.00    +0.000 A 
ATOM      2  C   UNL     1      47.777 -41.583  51.053  0.00  0.00    +0.000 A 
ATOM      3  C   UNL     1      48.281 -40.488  50.359  0.00  0.00    +0.000 A 
ATOM      4  C   UNL     1      49.054 -43.068  49.620  0.00  0.00    +0.000 A 
ATOM      5  C   UNL     1      49.168 -40.677  49.300  0.00  0.00    +0.000 A 
ATOM      6  C   UNL     1      49.552 -41.966  48.930  0.00  0.00    +0.000 A 
ENDROOT
BRANCH   1   7
ATOM      7  S   UNL     1      47.520 -44.252  51.526  0.00  0.00    +0.000 S 
ATOM      8  O   UNL     1      46.084 -44.075  51.575  0.00  0.00    +0.000 OA
ATOM      9  O   UNL     1      48.289 -44.457  52.734  0.00  0.00    +0.000 OA
BRANCH   7  10
ATOM     10  N   UNL     1      47.806 -45.519  50.468  0.00  0.00    +0.000 N 
ATOM     11  H   UNL     1      47.576 -45.317  49.496  0.00  0.00    +0.000 HD
BRANCH  10  12
ATOM     12  C   UNL     1      48.661 -46.614  50.774  0.00  0.00    +0.000 A 
ATOM     13  C   UNL     1      50.011 -46.638  50.428  0.00  0.00    +0.000 A 
ATOM     14  C   UNL     1      50.823 -47.698  50.823  0.00  0.00    +0.000 A 
ATOM     15  C   UNL     1      50.292 -48.729  51.593  0.00  0.00    +0.000 A 
ATOM     16  C   UNL     1      48.953 -48.694  51.973  0.00  0.00    +0.000 A 
ATOM     17  C   UNL     1      48.145 -47.633  51.575  0.00  0.00    +0.000 A 
ENDBRANCH  10  12
ENDBRANCH   7  10
ENDBRANCH   1   7
BRANCH   3  18
ATOM     18  C   UNL     1      47.888 -39.169  50.734  0.00  0.00    +0.000 C 
ATOM     19  C   UNL     1      47.554 -38.059  51.050  0.00  0.00    +0.000 C 
BRANCH  19  20
ATOM     20  C   UNL     1      47.154 -36.728  51.431  0.00  0.00    +0.000 C 
ATOM     21  O   UNL     1      47.903 -36.019  52.093  0.00  0.00    +0.000 OA
ATOM     22  N   UNL     1      45.919 -36.329  51.003  0.00  0.00    +0.000 N 
ATOM     23  H   UNL     1      45.312 -36.881  50.407  0.00  0.00    +0.000 HD
BRANCH  22  24
ATOM     24  O   UNL     1      45.512 -35.013  51.316  0.00  0.00    +0.000 OA
ATOM     25  H   UNL     1      45.006 -34.748  50.517  0.00  0.00    +0.000 HD
ENDBRANCH  22  24
ENDBRANCH  19  20
ENDBRANCH   3  18
TORSDOF 6
ENDMDL
MODEL 5
REMARK VINA RESULT:      -7.5      2.773      3.463
REMARK  Name = Belinostat.pdbqt.pdb
REMARK  6 active torsions:
REMARK  status: ('A' for Active; 'I' for Inactive)
REMARK    1  A    between atoms: C_1  and  S_7
REMARK    2  A    between atoms: C_3  and  C_18
REMARK    3  A    between atoms: S_7  and  N_10
REMARK    4  A    between atoms: N_10  and  C_12
REMARK    5  A    between atoms: C_19  and  C_20
REMARK    6  A    between atoms: N_22  and  O_24
REMARK                            x       y       z     vdW  Elec       q    Type
REMARK                         _______ _______ _______ _____ _____    ______ ____
ROOT
ATOM      1  C   UNL     1      48.492 -42.864  50.285  0.00  0.00    +0.000 A 
ATOM      2  C   UNL     1      48.300 -44.097  50.899  0.00  0.00    +0.000 A 
ATOM      3  C   UNL     1      49.015 -45.198  50.439  0.00  0.00    +0.000 A 
ATOM      4  C   UNL     1      49.402 -42.704  49.245  0.00  0.00    +0.000 A 
ATOM      5  C   UNL     1      49.920 -45.058  49.387  0.00  0.00    +0.000 A 
ATOM      6  C   UNL     1      50.114 -43.811  48.792  0.00  0.00    +0.000 A 
ENDROOT
BRANCH   1   7
ATOM      7  S   UNL     1      47.626 -41.459  50.884  0.00  0.00    +0.000 S 
ATOM      8  O   UNL     1      47.010 -41.842  52.136  0.00  0.00    +0.000 OA
ATOM      9  O   UNL     1      46.838 -40.917  49.798  0.00  0.00    +0.000 OA
BRANCH   7  10
ATOM     10  N   UNL     1      48.850 -40.382  51.268  0.00  0.00    +0.000 N 
ATOM     11  H   UNL     1      49.634 -40.796  51.770  0.00  0.00    +0.000 HD
BRANCH  10  12
ATOM     12  C   UNL     1      49.016 -39.125  50.622  0.00  0.00    +0.000 A 
ATOM     13  C   UNL     1      49.815 -38.955  49.494  0.00  0.00    +0.000 A 
ATOM     14  C   UNL     1      49.877 -37.720  48.852  0.00  0.00    +0.000 A 
ATOM     15  C   UNL     1      49.117 -36.654  49.323  0.00  0.00    +0.000 A 
ATOM     16  C   UNL     1      48.288 -36.826  50.428  0.00  0.00    +0.000 A 
ATOM     17  C   UNL     1      48.229 -38.062  51.067  0.00  0.00    +0.000 A 
ENDBRANCH  10  12
ENDBRANCH   7  10
ENDBRANCH   1   7
BRANCH   3  18
ATOM     18  C   UNL     1      48.820 -46.474  51.047  0.00  0.00    +0.000 C 
ATOM     19  C   UNL     1      48.657 -47.547  51.562  0.00  0.00    +0.000 C 
BRANCH  19  20
ATOM     20  C   UNL     1      48.461 -48.834  52.181  0.00  0.00    +0.000 C 
ATOM     21  O   UNL     1      49.090 -49.812  51.794  0.00  0.00    +0.000 OA
ATOM     22  N   UNL     1      47.556 -48.874  53.204  0.00  0.00    +0.000 N 
ATOM     23  H   UNL     1      47.070 -48.064  53.573  0.00  0.00    +0.000 HD
BRANCH  22  24
ATOM     24  O   UNL     1      47.372 -50.108  53.866  0.00  0.00    +0.000 OA
ATOM     25  H   UNL     1      48.169 -50.616  53.599  0.00  0.00    +0.000 HD
ENDBRANCH  22  24
ENDBRANCH  19  20
ENDBRANCH   3  18
TORSDOF 6
ENDMDL
MODEL 6
REMARK VINA RESULT:      -7.3      3.305      3.947
REMARK  Name = Belinostat.pdbqt.pdb
REMARK  6 active torsions:
REMARK  status: ('A' for Active; 'I' for Inactive)
REMARK    1  A    between atoms: C_1  and  S_7
REMARK    2  A    between atoms: C_3  and  C_18
REMARK    3  A    between atoms: S_7  and  N_10
REMARK    4  A    between atoms: N_10  and  C_12
REMARK    5  A    between atoms: C_19  and  C_20
REMARK    6  A    between atoms: N_22  and  O_24
REMARK                            x       y       z     vdW  Elec       q    Type
REMARK                         _______ _______ _______ _____ _____    ______ ____
ROOT
ATOM      1  C   UNL     1      48.652 -41.070  50.084  0.00  0.00    +0.000 A 
ATOM      2  C   UNL     1      49.531 -41.999  49.540  0.00  0.00    +0.000 A 
ATOM      3  C   UNL     1      49.413 -43.336  49.908  0.00  0.00    +0.000 A 
ATOM      4  C   UNL     1      47.643 -41.451  50.963  0.00  0.00    +0.000 A 
ATOM      5  C   UNL     1      48.417 -43.732  50.800  0.00  0.00    +0.000 A 
ATOM      6  C   UNL     1      47.532 -42.790  51.326  0.00  0.00    +0.000 A 
ENDROOT
BRANCH   1   7
ATOM      7  S   UNL     1      48.765 -39.387  49.595  0.00  0.00    +0.000 S 
ATOM      8  O   UNL     1      48.465 -39.335  48.181  0.00  0.00    +0.000 OA
ATOM      9  O   UNL     1      50.002 -38.846  50.117  0.00  0.00    +0.000 OA
BRANCH   7  10
ATOM     10  N   UNL     1      47.474 -38.666  50.381  0.00  0.00    +0.000 N 
ATOM     11  H   UNL     1      46.673 -39.280  50.528  0.00  0.00    +0.000 HD
BRANCH  10  12
ATOM     12  C   UNL     1      47.592 -37.472  51.146  0.00  0.00    +0.000 A 
ATOM     13  C   UNL     1      46.730 -36.388  50.991  0.00  0.00    +0.000 A 
ATOM     14  C   UNL     1      46.838 -35.276  51.823  0.00  0.00    +0.000 A 
ATOM     15  C   UNL     1      47.795 -35.255  52.833  0.00  0.00    +0.000 A 
ATOM     16  C   UNL     1      48.635 -36.350  53.017  0.00  0.00    +0.000 A 
ATOM     17  C   UNL     1      48.524 -37.459  52.183  0.00  0.00    +0.000 A 
ENDBRANCH  10  12
ENDBRANCH   7  10
ENDBRANCH   1   7
BRANCH   3  18
ATOM     18  C   UNL     1      50.315 -44.302  49.370  0.00  0.00    +0.000 C 
ATOM     19  C   UNL     1      51.076 -45.112  48.917  0.00  0.00    +0.000 C 
BRANCH  19  20
ATOM     20  C   UNL     1      51.990 -46.086  48.374  0.00  0.00    +0.000 C 
ATOM     21  O   UNL     1      53.085 -46.269  48.894  0.00  0.00    +0.000 OA
ATOM     22  N   UNL     1      51.551 -46.770  47.276  0.00  0.00    +0.000 N 
ATOM     23  H   UNL     1      50.628 -46.672  46.869  0.00  0.00    +0.000 HD
BRANCH  22  24
ATOM     24  O   UNL     1      52.401 -47.766  46.744  0.00  0.00    +0.000 OA
ATOM     25  H   UNL     1      51.769 -48.468  46.476  0.00  0.00    +0.000 HD
ENDBRANCH  22  24
ENDBRANCH  19  20
ENDBRANCH   3  18
TORSDOF 6
ENDMDL
MODEL 7
REMARK VINA RESULT:      -7.2     14.251     18.009
REMARK  Name = Belinostat.pdbqt.pdb
REMARK  6 active torsions:
REMARK  status: ('A' for Active; 'I' for Inactive)
REMARK    1  A    between atoms: C_1  and  S_7
REMARK    2  A    between atoms: C_3  and  C_18
REMARK    3  A    between atoms: S_7  and  N_10
REMARK    4  A    between atoms: N_10  and  C_12
REMARK    5  A    between atoms: C_19  and  C_20
REMARK    6  A    between atoms: N_22  and  O_24
REMARK                            x       y       z     vdW  Elec       q    Type
REMARK                         _______ _______ _______ _____ _____    ______ ____
ROOT
ATOM      1  C   UNL     1      38.338 -25.816  55.779  0.00  0.00    +0.000 A 
ATOM      2  C   UNL     1      39.033 -26.599  54.864  0.00  0.00    +0.000 A 
ATOM      3  C   UNL     1      39.066 -27.978  55.045  0.00  0.00    +0.000 A 
ATOM      4  C   UNL     1      37.653 -26.383  56.849  0.00  0.00    +0.000 A 
ATOM      5  C   UNL     1      38.397 -28.561  56.121  0.00  0.00    +0.000 A 
ATOM      6  C   UNL     1      37.690 -27.763  57.021  0.00  0.00    +0.000 A 
ENDROOT
BRANCH   1   7
ATOM      7  S   UNL     1      38.255 -24.078  55.538  0.00  0.00    +0.000 S 
ATOM      8  O   UNL     1      38.434 -23.462  56.835  0.00  0.00    +0.000 OA
ATOM      9  O   UNL     1      37.093 -23.789  54.726  0.00  0.00    +0.000 OA
BRANCH   7  10
ATOM     10  N   UNL     1      39.640 -23.742  54.659  0.00  0.00    +0.000 N 
ATOM     11  H   UNL     1      40.347 -24.475  54.688  0.00  0.00    +0.000 HD
BRANCH  10  12
ATOM     12  C   UNL     1      39.696 -22.753  53.636  0.00  0.00    +0.000 A 
ATOM     13  C   UNL     1      39.863 -21.397  53.907  0.00  0.00    +0.000 A 
ATOM     14  C   UNL     1      39.994 -20.481  52.865  0.00  0.00    +0.000 A 
ATOM     15  C   UNL     1      39.984 -20.923  51.546  0.00  0.00    +0.000 A 
ATOM     16  C   UNL     1      39.854 -22.281  51.270  0.00  0.00    +0.000 A 
ATOM     17  C   UNL     1      39.723 -23.194  52.313  0.00  0.00    +0.000 A 
ENDBRANCH  10  12
ENDBRANCH   7  10
ENDBRANCH   1   7
BRANCH   3  18
ATOM     18  C   UNL     1      39.786 -28.797  54.124  0.00  0.00    +0.000 C 
ATOM     19  C   UNL     1      40.395 -29.485  53.351  0.00  0.00    +0.000 C 
BRANCH  19  20
ATOM     20  C   UNL     1      41.126 -30.312  52.424  0.00  0.00    +0.000 C 
ATOM     21  O   UNL     1      42.269 -30.015  52.094  0.00  0.00    +0.000 OA
ATOM     22  N   UNL     1      40.471 -31.419  51.964  0.00  0.00    +0.000 N 
ATOM     23  H   UNL     1      39.549 -31.710  52.271  0.00  0.00    +0.000 HD
BRANCH  22  24
ATOM     24  O   UNL     1      41.173 -32.279  51.091  0.00  0.00    +0.000 OA
ATOM     25  H   UNL     1      41.444 -33.014  51.684  0.00  0.00    +0.000 HD
ENDBRANCH  22  24
ENDBRANCH  19  20
ENDBRANCH   3  18
TORSDOF 6
ENDMDL
MODEL 8
REMARK VINA RESULT:      -6.8      3.623      7.247
REMARK  Name = Belinostat.pdbqt.pdb
REMARK  6 active torsions:
REMARK  status: ('A' for Active; 'I' for Inactive)
REMARK    1  A    between atoms: C_1  and  S_7
REMARK    2  A    between atoms: C_3  and  C_18
REMARK    3  A    between atoms: S_7  and  N_10
REMARK    4  A    between atoms: N_10  and  C_12
REMARK    5  A    between atoms: C_19  and  C_20
REMARK    6  A    between atoms: N_22  and  O_24
REMARK                            x       y       z     vdW  Elec       q    Type
REMARK                         _______ _______ _______ _____ _____    ______ ____
ROOT
ATOM      1  C   UNL     1      49.443 -39.917  48.171  0.00  0.00    +0.000 A 
ATOM      2  C   UNL     1      49.673 -39.037  47.119  0.00  0.00    +0.000 A 
ATOM      3  C   UNL     1      49.706 -39.533  45.820  0.00  0.00    +0.000 A 
ATOM      4  C   UNL     1      49.217 -41.271  47.949  0.00  0.00    +0.000 A 
ATOM      5  C   UNL     1      49.497 -40.891  45.581  0.00  0.00    +0.000 A 
ATOM      6  C   UNL     1      49.251 -41.759  46.646  0.00  0.00    +0.000 A 
ENDROOT
BRANCH   1   7
ATOM      7  S   UNL     1      49.359 -39.296  49.811  0.00  0.00    +0.000 S 
ATOM      8  O   UNL     1      50.705 -38.929  50.196  0.00  0.00    +0.000 OA
ATOM      9  O   UNL     1      48.581 -40.221  50.606  0.00  0.00    +0.000 OA
BRANCH   7  10
ATOM     10  N   UNL     1      48.508 -37.864  49.641  0.00  0.00    +0.000 N 
ATOM     11  H   UNL     1      47.965 -37.794  48.781  0.00  0.00    +0.000 HD
BRANCH  10  12
ATOM     12  C   UNL     1      48.209 -36.998  50.731  0.00  0.00    +0.000 A 
ATOM     13  C   UNL     1      49.190 -36.480  51.574  0.00  0.00    +0.000 A 
ATOM     14  C   UNL     1      48.852 -35.571  52.574  0.00  0.00    +0.000 A 
ATOM     15  C   UNL     1      47.532 -35.156  52.718  0.00  0.00    +0.000 A 
ATOM     16  C   UNL     1      46.553 -35.642  51.857  0.00  0.00    +0.000 A 
ATOM     17  C   UNL     1      46.894 -36.550  50.858  0.00  0.00    +0.000 A 
ENDBRANCH  10  12
ENDBRANCH   7  10
ENDBRANCH   1   7
BRANCH   3  18
ATOM     18  C   UNL     1      49.955 -38.647  44.729  0.00  0.00    +0.000 C 
ATOM     19  C   UNL     1      50.163 -37.899  43.813  0.00  0.00    +0.000 C 
BRANCH  19  20
ATOM     20  C   UNL     1      50.414 -37.001  42.713  0.00  0.00    +0.000 C 
ATOM     21  O   UNL     1      49.977 -37.249  41.596  0.00  0.00    +0.000 OA
ATOM     22  N   UNL     1      51.144 -35.884  43.008  0.00  0.00    +0.000 N 
ATOM     23  H   UNL     1      51.463 -35.635  43.938  0.00  0.00    +0.000 HD
BRANCH  22  24
ATOM     24  O   UNL     1      51.368 -34.956  41.967  0.00  0.00    +0.000 OA
ATOM     25  H   UNL     1      50.732 -34.238  42.177  0.00  0.00    +0.000 HD
ENDBRANCH  22  24
ENDBRANCH  19  20
ENDBRANCH   3  18
TORSDOF 6
ENDMDL
MODEL 9
REMARK VINA RESULT:      -6.7      5.539      8.853
REMARK  Name = Belinostat.pdbqt.pdb
REMARK  6 active torsions:
REMARK  status: ('A' for Active; 'I' for Inactive)
REMARK    1  A    between atoms: C_1  and  S_7
REMARK    2  A    between atoms: C_3  and  C_18
REMARK    3  A    between atoms: S_7  and  N_10
REMARK    4  A    between atoms: N_10  and  C_12
REMARK    5  A    between atoms: C_19  and  C_20
REMARK    6  A    between atoms: N_22  and  O_24
REMARK                            x       y       z     vdW  Elec       q    Type
REMARK                         _______ _______ _______ _____ _____    ______ ____
ROOT
ATOM      1  C   UNL     1      51.839 -45.873  48.571  0.00  0.00    +0.000 A 
ATOM      2  C   UNL     1      51.206 -44.764  49.119  0.00  0.00    +0.000 A 
ATOM      3  C   UNL     1      49.938 -44.914  49.671  0.00  0.00    +0.000 A 
ATOM      4  C   UNL     1      51.246 -47.132  48.590  0.00  0.00    +0.000 A 
ATOM      5  C   UNL     1      49.322 -46.165  49.684  0.00  0.00    +0.000 A 
ATOM      6  C   UNL     1      49.977 -47.273  49.145  0.00  0.00    +0.000 A 
ENDROOT
BRANCH   1   7
ATOM      7  S   UNL     1      53.456 -45.704  47.909  0.00  0.00    +0.000 S 
ATOM      8  O   UNL     1      53.867 -47.014  47.451  0.00  0.00    +0.000 OA
ATOM      9  O   UNL     1      54.257 -44.957  48.855  0.00  0.00    +0.000 OA
BRANCH   7  10
ATOM     10  N   UNL     1      53.218 -44.776  46.535  0.00  0.00    +0.000 N 
ATOM     11  H   UNL     1      52.691 -43.917  46.691  0.00  0.00    +0.000 HD
BRANCH  10  12
ATOM     12  C   UNL     1      53.999 -44.914  45.353  0.00  0.00    +0.000 A 
ATOM     13  C   UNL     1      55.321 -44.485  45.267  0.00  0.00    +0.000 A 
ATOM     14  C   UNL     1      56.066 -44.719  44.114  0.00  0.00    +0.000 A 
ATOM     15  C   UNL     1      55.497 -45.410  43.048  0.00  0.00    +0.000 A 
ATOM     16  C   UNL     1      54.188 -45.874  43.141  0.00  0.00    +0.000 A 
ATOM     17  C   UNL     1      53.446 -45.637  44.295  0.00  0.00    +0.000 A 
ENDBRANCH  10  12
ENDBRANCH   7  10
ENDBRANCH   1   7
BRANCH   3  18
ATOM     18  C   UNL     1      49.267 -43.783  50.225  0.00  0.00    +0.000 C 
ATOM     19  C   UNL     1      48.699 -42.833  50.692  0.00  0.00    +0.000 C 
BRANCH  19  20
ATOM     20  C   UNL     1      48.018 -41.694  51.253  0.00  0.00    +0.000 C 
ATOM     21  O   UNL     1      46.910 -41.820  51.762  0.00  0.00    +0.000 OA
ATOM     22  N   UNL     1      48.686 -40.503  51.183  0.00  0.00    +0.000 N 
ATOM     23  H   UNL     1      49.625 -40.393  50.818  0.00  0.00    +0.000 HD
BRANCH  22  24
ATOM     24  O   UNL     1      48.071 -39.374  51.766  0.00  0.00    +0.000 OA
ATOM     25  H   UNL     1      47.290 -39.231  51.187  0.00  0.00    +0.000 HD
ENDBRANCH  22  24
ENDBRANCH  19  20
ENDBRANCH   3  18
TORSDOF 6
ENDMDL
