MODEL 1
REMARK VINA RESULT:      -7.5      0.000      0.000
REMARK  Name = Benzo[a]pyrene.pdbqt.pdb
REMARK  0 active torsions:
REMARK  status: ('A' for Active; 'I' for Inactive)
REMARK                            x       y       z     vdW  Elec       q    Type
REMARK                         _______ _______ _______ _____ _____    ______ ____
ROOT
ATOM      1  C   UNL     1      48.943 -40.256  48.913  0.00  0.00    +0.000 A 
ATOM      2  C   UNL     1      49.027 -38.889  48.565  0.00  0.00    +0.000 A 
ATOM      3  C   UNL     1      48.535 -40.640  50.211  0.00  0.00    +0.000 A 
ATOM      4  C   UNL     1      49.271 -41.231  47.948  0.00  0.00    +0.000 A 
ATOM      5  C   UNL     1      48.460 -42.017  50.532  0.00  0.00    +0.000 A 
ATOM      6  C   UNL     1      48.703 -37.898  49.514  0.00  0.00    +0.000 A 
ATOM      7  C   UNL     1      49.434 -38.511  47.269  0.00  0.00    +0.000 A 
ATOM      8  C   UNL     1      48.793 -42.979  49.551  0.00  0.00    +0.000 A 
ATOM      9  C   UNL     1      49.193 -42.580  48.278  0.00  0.00    +0.000 A 
ATOM     10  C   UNL     1      48.220 -39.625  51.131  0.00  0.00    +0.000 A 
ATOM     11  C   UNL     1      49.672 -40.843  46.670  0.00  0.00    +0.000 A 
ATOM     12  C   UNL     1      48.302 -38.275  50.792  0.00  0.00    +0.000 A 
ATOM     13  C   UNL     1      49.754 -39.493  46.332  0.00  0.00    +0.000 A 
ATOM     14  C   UNL     1      48.789 -36.552  49.162  0.00  0.00    +0.000 A 
ATOM     15  C   UNL     1      49.513 -37.159  46.936  0.00  0.00    +0.000 A 
ATOM     16  C   UNL     1      48.064 -42.480  51.798  0.00  0.00    +0.000 A 
ATOM     17  C   UNL     1      48.727 -44.340  49.845  0.00  0.00    +0.000 A 
ATOM     18  C   UNL     1      49.192 -36.183  47.879  0.00  0.00    +0.000 A 
ATOM     19  C   UNL     1      47.999 -43.841  52.086  0.00  0.00    +0.000 A 
ATOM     20  C   UNL     1      48.331 -44.772  51.108  0.00  0.00    +0.000 A 
ENDROOT
TORSDOF 0
ENDMDL
MODEL 2
REMARK VINA RESULT:      -7.5      0.876      5.521
REMARK  Name = Benzo[a]pyrene.pdbqt.pdb
REMARK  0 active torsions:
REMARK  status: ('A' for Active; 'I' for Inactive)
REMARK                            x       y       z     vdW  Elec       q    Type
REMARK                         _______ _______ _______ _____ _____    ______ ____
ROOT
ATOM      1  C   UNL     1      48.967 -41.856  49.379  0.00  0.00    +0.000 A 
ATOM      2  C   UNL     1      48.720 -43.105  49.992  0.00  0.00    +0.000 A 
ATOM      3  C   UNL     1      48.683 -40.654  50.066  0.00  0.00    +0.000 A 
ATOM      4  C   UNL     1      49.501 -41.825  48.073  0.00  0.00    +0.000 A 
ATOM      5  C   UNL     1      48.941 -39.416  49.427  0.00  0.00    +0.000 A 
ATOM      6  C   UNL     1      48.187 -43.158  51.295  0.00  0.00    +0.000 A 
ATOM      7  C   UNL     1      49.006 -44.302  49.301  0.00  0.00    +0.000 A 
ATOM      8  C   UNL     1      49.476 -39.407  48.119  0.00  0.00    +0.000 A 
ATOM      9  C   UNL     1      49.749 -40.602  47.459  0.00  0.00    +0.000 A 
ATOM     10  C   UNL     1      48.153 -40.745  51.364  0.00  0.00    +0.000 A 
ATOM     11  C   UNL     1      49.778 -43.016  47.404  0.00  0.00    +0.000 A 
ATOM     12  C   UNL     1      47.907 -41.975  51.973  0.00  0.00    +0.000 A 
ATOM     13  C   UNL     1      49.533 -44.246  48.012  0.00  0.00    +0.000 A 
ATOM     14  C   UNL     1      47.947 -44.395  51.892  0.00  0.00    +0.000 A 
ATOM     15  C   UNL     1      48.758 -45.529  49.916  0.00  0.00    +0.000 A 
ATOM     16  C   UNL     1      48.686 -38.179  50.042  0.00  0.00    +0.000 A 
ATOM     17  C   UNL     1      49.737 -38.200  47.471  0.00  0.00    +0.000 A 
ATOM     18  C   UNL     1      48.231 -45.575  51.206  0.00  0.00    +0.000 A 
ATOM     19  C   UNL     1      48.949 -36.976  49.390  0.00  0.00    +0.000 A 
ATOM     20  C   UNL     1      49.475 -36.987  48.104  0.00  0.00    +0.000 A 
ENDROOT
TORSDOF 0
ENDMDL
MODEL 3
REMARK VINA RESULT:      -7.4      3.822      6.954
REMARK  Name = Benzo[a]pyrene.pdbqt.pdb
REMARK  0 active torsions:
REMARK  status: ('A' for Active; 'I' for Inactive)
REMARK                            x       y       z     vdW  Elec       q    Type
REMARK                         _______ _______ _______ _____ _____    ______ ____
ROOT
ATOM      1  C   UNL     1      48.716 -46.809  51.032  0.00  0.00    +0.000 A 
ATOM      2  C   UNL     1      48.751 -45.460  50.616  0.00  0.00    +0.000 A 
ATOM      3  C   UNL     1      47.684 -47.268  51.882  0.00  0.00    +0.000 A 
ATOM      4  C   UNL     1      49.724 -47.692  50.589  0.00  0.00    +0.000 A 
ATOM      5  C   UNL     1      47.673 -48.627  52.283  0.00  0.00    +0.000 A 
ATOM      6  C   UNL     1      47.755 -44.562  51.047  0.00  0.00    +0.000 A 
ATOM      7  C   UNL     1      49.784 -45.007  49.769  0.00  0.00    +0.000 A 
ATOM      8  C   UNL     1      48.691 -49.495  51.828  0.00  0.00    +0.000 A 
ATOM      9  C   UNL     1      49.700 -49.023  50.992  0.00  0.00    +0.000 A 
ATOM     10  C   UNL     1      46.706 -46.345  52.292  0.00  0.00    +0.000 A 
ATOM     11  C   UNL     1      50.738 -47.229  49.752  0.00  0.00    +0.000 A 
ATOM     12  C   UNL     1      46.737 -45.013  51.884  0.00  0.00    +0.000 A 
ATOM     13  C   UNL     1      50.769 -45.897  49.343  0.00  0.00    +0.000 A 
ATOM     14  C   UNL     1      47.798 -43.231  50.631  0.00  0.00    +0.000 A 
ATOM     15  C   UNL     1      49.809 -43.672  49.364  0.00  0.00    +0.000 A 
ATOM     16  C   UNL     1      46.682 -49.160  53.125  0.00  0.00    +0.000 A 
ATOM     17  C   UNL     1      48.700 -50.836  52.211  0.00  0.00    +0.000 A 
ATOM     18  C   UNL     1      48.820 -42.788  49.793  0.00  0.00    +0.000 A 
ATOM     19  C   UNL     1      46.696 -50.500  53.504  0.00  0.00    +0.000 A 
ATOM     20  C   UNL     1      47.706 -51.339  53.047  0.00  0.00    +0.000 A 
ENDROOT
TORSDOF 0
ENDMDL
MODEL 4
REMARK VINA RESULT:      -7.3      0.882      6.104
REMARK  Name = Benzo[a]pyrene.pdbqt.pdb
REMARK  0 active torsions:
REMARK  status: ('A' for Active; 'I' for Inactive)
REMARK                            x       y       z     vdW  Elec       q    Type
REMARK                         _______ _______ _______ _____ _____    ______ ____
ROOT
ATOM      1  C   UNL     1      48.777 -41.514  49.641  0.00  0.00    +0.000 A 
ATOM      2  C   UNL     1      48.849 -42.919  49.515  0.00  0.00    +0.000 A 
ATOM      3  C   UNL     1      49.157 -40.679  48.565  0.00  0.00    +0.000 A 
ATOM      4  C   UNL     1      48.320 -40.955  50.853  0.00  0.00    +0.000 A 
ATOM      5  C   UNL     1      49.075 -39.273  48.719  0.00  0.00    +0.000 A 
ATOM      6  C   UNL     1      49.302 -43.498  48.313  0.00  0.00    +0.000 A 
ATOM      7  C   UNL     1      48.467 -43.747  50.592  0.00  0.00    +0.000 A 
ATOM      8  C   UNL     1      48.614 -38.734  49.942  0.00  0.00    +0.000 A 
ATOM      9  C   UNL     1      48.244 -39.573  50.989  0.00  0.00    +0.000 A 
ATOM     10  C   UNL     1      49.605 -41.291  47.381  0.00  0.00    +0.000 A 
ATOM     11  C   UNL     1      47.946 -41.786  51.908  0.00  0.00    +0.000 A 
ATOM     12  C   UNL     1      49.678 -42.677  47.253  0.00  0.00    +0.000 A 
ATOM     13  C   UNL     1      48.019 -43.172  51.780  0.00  0.00    +0.000 A 
ATOM     14  C   UNL     1      49.370 -44.886  48.198  0.00  0.00    +0.000 A 
ATOM     15  C   UNL     1      48.543 -45.133  50.457  0.00  0.00    +0.000 A 
ATOM     16  C   UNL     1      49.434 -38.377  47.698  0.00  0.00    +0.000 A 
ATOM     17  C   UNL     1      48.525 -37.353  50.115  0.00  0.00    +0.000 A 
ATOM     18  C   UNL     1      48.992 -45.700  49.265  0.00  0.00    +0.000 A 
ATOM     19  C   UNL     1      49.343 -36.999  47.877  0.00  0.00    +0.000 A 
ATOM     20  C   UNL     1      48.888 -36.487  49.086  0.00  0.00    +0.000 A 
ENDROOT
TORSDOF 0
ENDMDL
MODEL 5
REMARK VINA RESULT:      -7.3     12.229     16.116
REMARK  Name = Benzo[a]pyrene.pdbqt.pdb
REMARK  0 active torsions:
REMARK  status: ('A' for Active; 'I' for Inactive)
REMARK                            x       y       z     vdW  Elec       q    Type
REMARK                         _______ _______ _______ _____ _____    ______ ____
ROOT
ATOM      1  C   UNL     1      44.815 -53.811  56.218  0.00  0.00    +0.000 A 
ATOM      2  C   UNL     1      45.301 -52.962  55.199  0.00  0.00    +0.000 A 
ATOM      3  C   UNL     1      43.510 -54.346  56.141  0.00  0.00    +0.000 A 
ATOM      4  C   UNL     1      45.650 -54.117  57.313  0.00  0.00    +0.000 A 
ATOM      5  C   UNL     1      43.048 -55.194  57.177  0.00  0.00    +0.000 A 
ATOM      6  C   UNL     1      44.483 -52.643  54.096  0.00  0.00    +0.000 A 
ATOM      7  C   UNL     1      46.605 -52.430  55.281  0.00  0.00    +0.000 A 
ATOM      8  C   UNL     1      43.901 -55.489  58.266  0.00  0.00    +0.000 A 
ATOM      9  C   UNL     1      45.184 -54.951  58.323  0.00  0.00    +0.000 A 
ATOM     10  C   UNL     1      42.722 -54.007  55.027  0.00  0.00    +0.000 A 
ATOM     11  C   UNL     1      46.937 -53.584  57.381  0.00  0.00    +0.000 A 
ATOM     12  C   UNL     1      43.197 -53.170  54.019  0.00  0.00    +0.000 A 
ATOM     13  C   UNL     1      47.412 -52.746  56.372  0.00  0.00    +0.000 A 
ATOM     14  C   UNL     1      44.971 -51.805  53.094  0.00  0.00    +0.000 A 
ATOM     15  C   UNL     1      47.074 -51.593  54.269  0.00  0.00    +0.000 A 
ATOM     16  C   UNL     1      41.765 -55.766  57.174  0.00  0.00    +0.000 A 
ATOM     17  C   UNL     1      43.468 -56.321  59.297  0.00  0.00    +0.000 A 
ATOM     18  C   UNL     1      46.261 -51.282  53.180  0.00  0.00    +0.000 A 
ATOM     19  C   UNL     1      41.338 -56.597  58.207  0.00  0.00    +0.000 A 
ATOM     20  C   UNL     1      42.190 -56.875  59.269  0.00  0.00    +0.000 A 
ENDROOT
TORSDOF 0
ENDMDL
MODEL 6
REMARK VINA RESULT:      -7.2     16.360     17.750
REMARK  Name = Benzo[a]pyrene.pdbqt.pdb
REMARK  0 active torsions:
REMARK  status: ('A' for Active; 'I' for Inactive)
REMARK                            x       y       z     vdW  Elec       q    Type
REMARK                         _______ _______ _______ _____ _____    ______ ____
ROOT
ATOM      1  C   UNL     1      58.675 -49.614  60.442  0.00  0.00    +0.000 A 
ATOM      2  C   UNL     1      59.232 -48.319  60.531  0.00  0.00    +0.000 A 
ATOM      3  C   UNL     1      58.600 -50.276  59.196  0.00  0.00    +0.000 A 
ATOM      4  C   UNL     1      58.195 -50.238  61.614  0.00  0.00    +0.000 A 
ATOM      5  C   UNL     1      58.036 -51.574  59.136  0.00  0.00    +0.000 A 
ATOM      6  C   UNL     1      59.717 -47.678  59.374  0.00  0.00    +0.000 A 
ATOM      7  C   UNL     1      59.305 -47.663  61.778  0.00  0.00    +0.000 A 
ATOM      8  C   UNL     1      57.560 -52.181  60.321  0.00  0.00    +0.000 A 
ATOM      9  C   UNL     1      57.644 -51.513  61.539  0.00  0.00    +0.000 A 
ATOM     10  C   UNL     1      59.093 -49.607  58.062  0.00  0.00    +0.000 A 
ATOM     11  C   UNL     1      58.273 -49.577  62.839  0.00  0.00    +0.000 A 
ATOM     12  C   UNL     1      59.644 -48.329  58.146  0.00  0.00    +0.000 A 
ATOM     13  C   UNL     1      58.824 -48.299  62.922  0.00  0.00    +0.000 A 
ATOM     14  C   UNL     1      60.266 -46.400  59.472  0.00  0.00    +0.000 A 
ATOM     15  C   UNL     1      59.857 -46.385  61.855  0.00  0.00    +0.000 A 
ATOM     16  C   UNL     1      57.925 -52.297  57.936  0.00  0.00    +0.000 A 
ATOM     17  C   UNL     1      57.002 -53.459  60.285  0.00  0.00    +0.000 A 
ATOM     18  C   UNL     1      60.335 -45.756  60.706  0.00  0.00    +0.000 A 
ATOM     19  C   UNL     1      57.366 -53.573  57.907  0.00  0.00    +0.000 A 
ATOM     20  C   UNL     1      56.904 -54.154  59.082  0.00  0.00    +0.000 A 
ENDROOT
TORSDOF 0
ENDMDL
MODEL 7
REMARK VINA RESULT:      -7.2     12.797     16.475
REMARK  Name = Benzo[a]pyrene.pdbqt.pdb
REMARK  0 active torsions:
REMARK  status: ('A' for Active; 'I' for Inactive)
REMARK                            x       y       z     vdW  Elec       q    Type
REMARK                         _______ _______ _______ _____ _____    ______ ____
ROOT
ATOM      1  C   UNL     1      44.299 -54.092  56.255  0.00  0.00    +0.000 A 
ATOM      2  C   UNL     1      45.229 -53.276  55.572  0.00  0.00    +0.000 A 
ATOM      3  C   UNL     1      44.644 -54.692  57.487  0.00  0.00    +0.000 A 
ATOM      4  C   UNL     1      43.023 -54.299  55.690  0.00  0.00    +0.000 A 
ATOM      5  C   UNL     1      43.692 -55.505  58.149  0.00  0.00    +0.000 A 
ATOM      6  C   UNL     1      46.509 -53.056  56.118  0.00  0.00    +0.000 A 
ATOM      7  C   UNL     1      44.880 -52.679  54.343  0.00  0.00    +0.000 A 
ATOM      8  C   UNL     1      42.418 -55.700  57.567  0.00  0.00    +0.000 A 
ATOM      9  C   UNL     1      42.098 -55.100  56.352  0.00  0.00    +0.000 A 
ATOM     10  C   UNL     1      45.929 -54.451  58.002  0.00  0.00    +0.000 A 
ATOM     11  C   UNL     1      42.692 -53.702  54.474  0.00  0.00    +0.000 A 
ATOM     12  C   UNL     1      46.850 -53.647  57.332  0.00  0.00    +0.000 A 
ATOM     13  C   UNL     1      43.613 -52.898  53.804  0.00  0.00    +0.000 A 
ATOM     14  C   UNL     1      47.421 -52.250  55.438  0.00  0.00    +0.000 A 
ATOM     15  C   UNL     1      45.805 -51.876  53.678  0.00  0.00    +0.000 A 
ATOM     16  C   UNL     1      43.957 -56.137  59.376  0.00  0.00    +0.000 A 
ATOM     17  C   UNL     1      41.466 -56.497  58.202  0.00  0.00    +0.000 A 
ATOM     18  C   UNL     1      47.071 -51.662  54.223  0.00  0.00    +0.000 A 
ATOM     19  C   UNL     1      43.002 -56.931  60.005  0.00  0.00    +0.000 A 
ATOM     20  C   UNL     1      41.755 -57.111  59.418  0.00  0.00    +0.000 A 
ENDROOT
TORSDOF 0
ENDMDL
MODEL 8
REMARK VINA RESULT:      -7.2     16.151     18.417
REMARK  Name = Benzo[a]pyrene.pdbqt.pdb
REMARK  0 active torsions:
REMARK  status: ('A' for Active; 'I' for Inactive)
REMARK                            x       y       z     vdW  Elec       q    Type
REMARK                         _______ _______ _______ _____ _____    ______ ____
ROOT
ATOM      1  C   UNL     1      58.534 -49.885  60.484  0.00  0.00    +0.000 A 
ATOM      2  C   UNL     1      57.998 -51.188  60.385  0.00  0.00    +0.000 A 
ATOM      3  C   UNL     1      59.029 -49.226  59.335  0.00  0.00    +0.000 A 
ATOM      4  C   UNL     1      58.569 -49.250  61.744  0.00  0.00    +0.000 A 
ATOM      5  C   UNL     1      59.561 -47.920  59.464  0.00  0.00    +0.000 A 
ATOM      6  C   UNL     1      57.953 -51.840  59.137  0.00  0.00    +0.000 A 
ATOM      7  C   UNL     1      57.505 -51.841  61.535  0.00  0.00    +0.000 A 
ATOM      8  C   UNL     1      59.587 -47.302  60.735  0.00  0.00    +0.000 A 
ATOM      9  C   UNL     1      59.095 -47.967  61.854  0.00  0.00    +0.000 A 
ATOM     10  C   UNL     1      58.968 -49.906  58.107  0.00  0.00    +0.000 A 
ATOM     11  C   UNL     1      58.079 -49.908  62.871  0.00  0.00    +0.000 A 
ATOM     12  C   UNL     1      58.439 -51.193  58.005  0.00  0.00    +0.000 A 
ATOM     13  C   UNL     1      57.551 -51.194  62.769  0.00  0.00    +0.000 A 
ATOM     14  C   UNL     1      57.421 -53.126  59.049  0.00  0.00    +0.000 A 
ATOM     15  C   UNL     1      56.978 -53.127  61.426  0.00  0.00    +0.000 A 
ATOM     16  C   UNL     1      60.072 -47.199  58.371  0.00  0.00    +0.000 A 
ATOM     17  C   UNL     1      60.107 -46.016  60.884  0.00  0.00    +0.000 A 
ATOM     18  C   UNL     1      56.936 -53.767  60.188  0.00  0.00    +0.000 A 
ATOM     19  C   UNL     1      60.589 -45.915  58.527  0.00  0.00    +0.000 A 
ATOM     20  C   UNL     1      60.607 -45.324  59.784  0.00  0.00    +0.000 A 
ENDROOT
TORSDOF 0
ENDMDL
MODEL 9
REMARK VINA RESULT:      -7.2     11.815     15.562
REMARK  Name = Benzo[a]pyrene.pdbqt.pdb
REMARK  0 active torsions:
REMARK  status: ('A' for Active; 'I' for Inactive)
REMARK                            x       y       z     vdW  Elec       q    Type
REMARK                         _______ _______ _______ _____ _____    ______ ____
ROOT
ATOM      1  C   UNL     1      49.591 -54.002  55.392  0.00  0.00    +0.000 A 
ATOM      2  C   UNL     1      50.305 -54.797  56.316  0.00  0.00    +0.000 A 
ATOM      3  C   UNL     1      48.446 -53.282  55.802  0.00  0.00    +0.000 A 
ATOM      4  C   UNL     1      50.037 -53.936  54.055  0.00  0.00    +0.000 A 
ATOM      5  C   UNL     1      47.750 -52.493  54.854  0.00  0.00    +0.000 A 
ATOM      6  C   UNL     1      49.877 -54.877  57.657  0.00  0.00    +0.000 A 
ATOM      7  C   UNL     1      51.448 -55.513  55.901  0.00  0.00    +0.000 A 
ATOM      8  C   UNL     1      48.212 -52.440  53.519  0.00  0.00    +0.000 A 
ATOM      9  C   UNL     1      49.343 -53.157  53.135  0.00  0.00    +0.000 A 
ATOM     10  C   UNL     1      48.048 -53.385  57.146  0.00  0.00    +0.000 A 
ATOM     11  C   UNL     1      51.168 -54.649  53.659  0.00  0.00    +0.000 A 
ATOM     12  C   UNL     1      48.749 -54.168  58.062  0.00  0.00    +0.000 A 
ATOM     13  C   UNL     1      51.869 -55.432  54.575  0.00  0.00    +0.000 A 
ATOM     14  C   UNL     1      50.588 -55.664  58.562  0.00  0.00    +0.000 A 
ATOM     15  C   UNL     1      52.145 -56.294  56.822  0.00  0.00    +0.000 A 
ATOM     16  C   UNL     1      46.604 -51.749  55.183  0.00  0.00    +0.000 A 
ATOM     17  C   UNL     1      47.542 -51.670  52.569  0.00  0.00    +0.000 A 
ATOM     18  C   UNL     1      51.716 -56.369  58.147  0.00  0.00    +0.000 A 
ATOM     19  C   UNL     1      45.939 -50.982  54.229  0.00  0.00    +0.000 A 
ATOM     20  C   UNL     1      46.408 -50.942  52.922  0.00  0.00    +0.000 A 
ENDROOT
TORSDOF 0
ENDMDL
