REMARK  Name = Benzo[a]pyrene.pdbqt.pdb
REMARK  0 active torsions:
REMARK  status: ('A' for Active; 'I' for Inactive)
REMARK                            x       y       z     vdW  Elec       q    Type
REMARK                         _______ _______ _______ _____ _____    ______ ____
ROOT
ATOM      1  C   UNL     1       0.298  -0.220   0.000  0.00  0.00    +0.000 A 
ATOM      2  C   UNL     1       1.684   0.053   0.000  0.00  0.00    +0.000 A 
ATOM      3  C   UNL     1      -0.639   0.838   0.000  0.00  0.00    +0.000 A 
ATOM      4  C   UNL     1      -0.138  -1.562   0.000  0.00  0.00    +0.000 A 
ATOM      5  C   UNL     1      -2.023   0.535   0.000  0.00  0.00    +0.000 A 
ATOM      6  C   UNL     1       2.141   1.386   0.000  0.00  0.00    +0.000 A 
ATOM      7  C   UNL     1       2.615  -1.007   0.000  0.00  0.00    +0.000 A 
ATOM      8  C   UNL     1      -2.439  -0.816   0.000  0.00  0.00    +0.000 A 
ATOM      9  C   UNL     1      -1.500  -1.844   0.000  0.00  0.00    +0.000 A 
ATOM     10  C   UNL     1      -0.148   2.155   0.000  0.00  0.00    +0.000 A 
ATOM     11  C   UNL     1       0.794  -2.599   0.000  0.00  0.00    +0.000 A 
ATOM     12  C   UNL     1       1.219   2.429   0.000  0.00  0.00    +0.000 A 
ATOM     13  C   UNL     1       2.161  -2.325   0.000  0.00  0.00    +0.000 A 
ATOM     14  C   UNL     1       3.511   1.646   0.000  0.00  0.00    +0.000 A 
ATOM     15  C   UNL     1       3.981  -0.726   0.000  0.00  0.00    +0.000 A 
ATOM     16  C   UNL     1      -3.016   1.529   0.000  0.00  0.00    +0.000 A 
ATOM     17  C   UNL     1      -3.796  -1.137   0.000  0.00  0.00    +0.000 A 
ATOM     18  C   UNL     1       4.427   0.595   0.000  0.00  0.00    +0.000 A 
ATOM     19  C   UNL     1      -4.370   1.202   0.000  0.00  0.00    +0.000 A 
ATOM     20  C   UNL     1      -4.760  -0.132   0.000  0.00  0.00    +0.000 A 
ENDROOT
TORSDOF 0
