MODEL 1
REMARK VINA RESULT:      -7.8      0.000      0.000
REMARK  Name = Bicalutamide.pdbqt.pdb
REMARK  8 active torsions:
REMARK  status: ('A' for Active; 'I' for Inactive)
REMARK    1  A    between atoms: C_2  and  N_13
REMARK    2  A    between atoms: C_5  and  C_9
REMARK    3  A    between atoms: C_6  and  C_8
REMARK    4  A    between atoms: C_14  and  C_17
REMARK    5  A    between atoms: C_17  and  O_19
REMARK    6  A    between atoms: C_17  and  C_21
REMARK    7  A    between atoms: C_21  and  S_22
REMARK    8  A    between atoms: S_22  and  C_25
REMARK                            x       y       z     vdW  Elec       q    Type
REMARK                         _______ _______ _______ _____ _____    ______ ____
ROOT
ATOM      1  N   UNL     1      48.856 -36.928  48.880  0.00  0.00    +0.000 N 
ATOM      2  C   UNL     1      49.631 -37.905  49.500  0.00  0.00    +0.000 C 
ATOM      3  O   UNL     1      50.573 -38.499  48.966  0.00  0.00    +0.000 OA
ATOM      4  H   UNL     1      48.175 -36.446  49.468  0.00  0.00    +0.000 HD
ENDROOT
BRANCH   1   5
ATOM      5  C   UNL     1      48.986 -36.493  47.551  0.00  0.00    +0.000 A 
ATOM      6  C   UNL     1      49.775 -35.369  47.309  0.00  0.00    +0.000 A 
ATOM      7  C   UNL     1      48.357 -37.124  46.483  0.00  0.00    +0.000 A 
ATOM      8  C   UNL     1      49.947 -34.866  46.014  0.00  0.00    +0.000 A 
ATOM      9  C   UNL     1      49.309 -35.514  44.946  0.00  0.00    +0.000 A 
ATOM     10  C   UNL     1      48.517 -36.638  45.187  0.00  0.00    +0.000 A 
BRANCH   8  11
ATOM     11  C   UNL     1      50.807 -33.653  45.810  0.00  0.00    +0.000 C 
ATOM     12  F   UNL     1      50.180 -32.660  45.121  0.00  0.00    +0.000 F 
ATOM     13  F   UNL     1      51.203 -33.097  46.985  0.00  0.00    +0.000 F 
ATOM     14  F   UNL     1      51.940 -33.931  45.113  0.00  0.00    +0.000 F 
ENDBRANCH   8  11
BRANCH   9  16
ATOM     15  N   UNL     1      49.551 -34.691  42.501  0.00  0.00    +0.000 NA
ATOM     16  C   UNL     1      49.435 -35.063  43.593  0.00  0.00    +0.000 C 
ENDBRANCH   9  16
ENDBRANCH   1   5
BRANCH   2  17
ATOM     17  C   UNL     1      49.200 -38.268  50.979  0.00  0.00    +0.000 C 
ATOM     18  C   UNL     1      48.388 -37.114  51.632  0.00  0.00    +0.000 C 
BRANCH  17  19
ATOM     19  O   UNL     1      50.347 -38.482  51.787  0.00  0.00    +0.000 OA
ATOM     20  H   UNL     1      50.903 -39.095  51.269  0.00  0.00    +0.000 HD
ENDBRANCH  17  19
BRANCH  17  21
ATOM     21  C   UNL     1      48.433 -39.475  50.935  0.00  0.00    +0.000 C 
BRANCH  21  22
ATOM     22  S   UNL     1      47.653 -40.999  50.726  0.00  0.00    +0.000 S 
ATOM     23  O   UNL     1      46.426 -40.516  50.147  0.00  0.00    +0.000 OA
ATOM     24  O   UNL     1      47.819 -41.459  52.084  0.00  0.00    +0.000 OA
BRANCH  22  25
ATOM     25  C   UNL     1      48.563 -41.957  49.606  0.00  0.00    +0.000 A 
ATOM     26  C   UNL     1      48.655 -41.515  48.290  0.00  0.00    +0.000 A 
ATOM     27  C   UNL     1      49.361 -42.279  47.365  0.00  0.00    +0.000 A 
ATOM     28  C   UNL     1      49.956 -43.470  47.774  0.00  0.00    +0.000 A 
ATOM     29  F   UNL     1      50.636 -44.205  46.883  0.00  0.00    +0.000 F 
ATOM     30  C   UNL     1      49.855 -43.911  49.091  0.00  0.00    +0.000 A 
ATOM     31  C   UNL     1      49.150 -43.150  50.016  0.00  0.00    +0.000 A 
ENDBRANCH  22  25
ENDBRANCH  21  22
ENDBRANCH  17  21
ENDBRANCH   2  17
TORSDOF 8
ENDMDL
MODEL 2
REMARK VINA RESULT:      -7.6      4.795      8.936
REMARK  Name = Bicalutamide.pdbqt.pdb
REMARK  8 active torsions:
REMARK  status: ('A' for Active; 'I' for Inactive)
REMARK    1  A    between atoms: C_2  and  N_13
REMARK    2  A    between atoms: C_5  and  C_9
REMARK    3  A    between atoms: C_6  and  C_8
REMARK    4  A    between atoms: C_14  and  C_17
REMARK    5  A    between atoms: C_17  and  O_19
REMARK    6  A    between atoms: C_17  and  C_21
REMARK    7  A    between atoms: C_21  and  S_22
REMARK    8  A    between atoms: S_22  and  C_25
REMARK                            x       y       z     vdW  Elec       q    Type
REMARK                         _______ _______ _______ _____ _____    ______ ____
ROOT
ATOM      1  N   UNL     1      48.672 -43.246  49.797  0.00  0.00    +0.000 N 
ATOM      2  C   UNL     1      47.995 -42.177  49.216  0.00  0.00    +0.000 C 
ATOM      3  O   UNL     1      47.662 -42.118  48.028  0.00  0.00    +0.000 OA
ATOM      4  H   UNL     1      48.796 -43.210  50.809  0.00  0.00    +0.000 HD
ENDROOT
BRANCH   1   5
ATOM      5  C   UNL     1      49.120 -44.398  49.131  0.00  0.00    +0.000 A 
ATOM      6  C   UNL     1      50.495 -44.558  48.964  0.00  0.00    +0.000 A 
ATOM      7  C   UNL     1      48.257 -45.366  48.628  0.00  0.00    +0.000 A 
ATOM      8  C   UNL     1      51.022 -45.675  48.303  0.00  0.00    +0.000 A 
ATOM      9  C   UNL     1      50.140 -46.644  47.803  0.00  0.00    +0.000 A 
ATOM     10  C   UNL     1      48.763 -46.483  47.968  0.00  0.00    +0.000 A 
BRANCH   8  11
ATOM     11  C   UNL     1      52.510 -45.798  48.151  0.00  0.00    +0.000 C 
ATOM     12  F   UNL     1      52.915 -45.842  46.852  0.00  0.00    +0.000 F 
ATOM     13  F   UNL     1      53.175 -44.753  48.711  0.00  0.00    +0.000 F 
ATOM     14  F   UNL     1      53.000 -46.925  48.731  0.00  0.00    +0.000 F 
ENDBRANCH   8  11
BRANCH   9  16
ATOM     15  N   UNL     1      50.985 -48.759  46.567  0.00  0.00    +0.000 NA
ATOM     16  C   UNL     1      50.599 -47.813  47.117  0.00  0.00    +0.000 C 
ENDBRANCH   9  16
ENDBRANCH   1   5
BRANCH   2  17
ATOM     17  C   UNL     1      47.695 -40.961  50.184  0.00  0.00    +0.000 C 
ATOM     18  C   UNL     1      47.888 -41.364  51.674  0.00  0.00    +0.000 C 
BRANCH  17  19
ATOM     19  O   UNL     1      46.351 -40.535  50.037  0.00  0.00    +0.000 OA
ATOM     20  H   UNL     1      45.830 -41.172  50.562  0.00  0.00    +0.000 HD
ENDBRANCH  17  19
BRANCH  17  21
ATOM     21  C   UNL     1      48.566 -39.884  49.827  0.00  0.00    +0.000 C 
BRANCH  21  22
ATOM     22  S   UNL     1      49.537 -38.480  49.577  0.00  0.00    +0.000 S 
ATOM     23  O   UNL     1      49.047 -38.130  48.267  0.00  0.00    +0.000 OA
ATOM     24  O   UNL     1      50.807 -39.103  49.860  0.00  0.00    +0.000 OA
BRANCH  22  25
ATOM     25  C   UNL     1      49.127 -37.285  50.760  0.00  0.00    +0.000 A 
ATOM     26  C   UNL     1      49.919 -37.191  51.899  0.00  0.00    +0.000 A 
ATOM     27  C   UNL     1      49.596 -36.253  52.876  0.00  0.00    +0.000 A 
ATOM     28  C   UNL     1      48.486 -35.433  52.696  0.00  0.00    +0.000 A 
ATOM     29  F   UNL     1      48.175 -34.530  53.637  0.00  0.00    +0.000 F 
ATOM     30  C   UNL     1      47.691 -35.535  51.557  0.00  0.00    +0.000 A 
ATOM     31  C   UNL     1      48.012 -36.472  50.581  0.00  0.00    +0.000 A 
ENDBRANCH  22  25
ENDBRANCH  21  22
ENDBRANCH  17  21
ENDBRANCH   2  17
TORSDOF 8
ENDMDL
MODEL 3
REMARK VINA RESULT:      -7.3      4.289      7.678
REMARK  Name = Bicalutamide.pdbqt.pdb
REMARK  8 active torsions:
REMARK  status: ('A' for Active; 'I' for Inactive)
REMARK    1  A    between atoms: C_2  and  N_13
REMARK    2  A    between atoms: C_5  and  C_9
REMARK    3  A    between atoms: C_6  and  C_8
REMARK    4  A    between atoms: C_14  and  C_17
REMARK    5  A    between atoms: C_17  and  O_19
REMARK    6  A    between atoms: C_17  and  C_21
REMARK    7  A    between atoms: C_21  and  S_22
REMARK    8  A    between atoms: S_22  and  C_25
REMARK                            x       y       z     vdW  Elec       q    Type
REMARK                         _______ _______ _______ _____ _____    ______ ____
ROOT
ATOM      1  N   UNL     1      48.610 -40.351  51.069  0.00  0.00    +0.000 N 
ATOM      2  C   UNL     1      47.559 -39.504  50.724  0.00  0.00    +0.000 C 
ATOM      3  O   UNL     1      46.437 -39.884  50.373  0.00  0.00    +0.000 OA
ATOM      4  H   UNL     1      49.451 -39.905  51.438  0.00  0.00    +0.000 HD
ENDROOT
BRANCH   1   5
ATOM      5  C   UNL     1      48.584 -41.754  51.033  0.00  0.00    +0.000 A 
ATOM      6  C   UNL     1      49.206 -42.388  49.958  0.00  0.00    +0.000 A 
ATOM      7  C   UNL     1      47.960 -42.526  52.008  0.00  0.00    +0.000 A 
ATOM      8  C   UNL     1      49.217 -43.783  49.844  0.00  0.00    +0.000 A 
ATOM      9  C   UNL     1      48.586 -44.549  50.836  0.00  0.00    +0.000 A 
ATOM     10  C   UNL     1      47.960 -43.915  51.911  0.00  0.00    +0.000 A 
BRANCH   8  11
ATOM     11  C   UNL     1      49.902 -44.414  48.667  0.00  0.00    +0.000 C 
ATOM     12  F   UNL     1      50.940 -45.222  49.019  0.00  0.00    +0.000 F 
ATOM     13  F   UNL     1      49.061 -45.190  47.934  0.00  0.00    +0.000 F 
ATOM     14  F   UNL     1      50.422 -43.493  47.814  0.00  0.00    +0.000 F 
ENDBRANCH   8  11
BRANCH   9  16
ATOM     15  N   UNL     1      48.541 -47.138  50.757  0.00  0.00    +0.000 NA
ATOM     16  C   UNL     1      48.553 -45.979  50.791  0.00  0.00    +0.000 C 
ENDBRANCH   9  16
ENDBRANCH   1   5
BRANCH   2  17
ATOM     17  C   UNL     1      47.897 -37.959  50.764  0.00  0.00    +0.000 C 
ATOM     18  C   UNL     1      48.837 -37.615  51.954  0.00  0.00    +0.000 C 
BRANCH  17  19
ATOM     19  O   UNL     1      46.711 -37.200  50.935  0.00  0.00    +0.000 OA
ATOM     20  H   UNL     1      46.538 -36.811  50.056  0.00  0.00    +0.000 HD
ENDBRANCH  17  19
BRANCH  17  21
ATOM     21  C   UNL     1      48.499 -37.604  49.516  0.00  0.00    +0.000 C 
BRANCH  21  22
ATOM     22  S   UNL     1      49.323 -37.376  48.018  0.00  0.00    +0.000 S 
ATOM     23  O   UNL     1      50.671 -37.510  48.511  0.00  0.00    +0.000 OA
ATOM     24  O   UNL     1      48.679 -36.136  47.660  0.00  0.00    +0.000 OA
BRANCH  22  25
ATOM     25  C   UNL     1      48.901 -38.659  46.934  0.00  0.00    +0.000 A 
ATOM     26  C   UNL     1      48.110 -38.352  45.832  0.00  0.00    +0.000 A 
ATOM     27  C   UNL     1      47.738 -39.370  44.958  0.00  0.00    +0.000 A 
ATOM     28  C   UNL     1      48.161 -40.673  45.207  0.00  0.00    +0.000 A 
ATOM     29  F   UNL     1      47.803 -41.653  44.366  0.00  0.00    +0.000 F 
ATOM     30  C   UNL     1      48.948 -40.977  46.315  0.00  0.00    +0.000 A 
ATOM     31  C   UNL     1      49.320 -39.961  47.189  0.00  0.00    +0.000 A 
ENDBRANCH  22  25
ENDBRANCH  21  22
ENDBRANCH  17  21
ENDBRANCH   2  17
TORSDOF 8
ENDMDL
MODEL 4
REMARK VINA RESULT:      -7.1      4.541      7.237
REMARK  Name = Bicalutamide.pdbqt.pdb
REMARK  8 active torsions:
REMARK  status: ('A' for Active; 'I' for Inactive)
REMARK    1  A    between atoms: C_2  and  N_13
REMARK    2  A    between atoms: C_5  and  C_9
REMARK    3  A    between atoms: C_6  and  C_8
REMARK    4  A    between atoms: C_14  and  C_17
REMARK    5  A    between atoms: C_17  and  O_19
REMARK    6  A    between atoms: C_17  and  C_21
REMARK    7  A    between atoms: C_21  and  S_22
REMARK    8  A    between atoms: S_22  and  C_25
REMARK                            x       y       z     vdW  Elec       q    Type
REMARK                         _______ _______ _______ _____ _____    ______ ____
ROOT
ATOM      1  N   UNL     1      50.201 -35.976  47.072  0.00  0.00    +0.000 N 
ATOM      2  C   UNL     1      49.426 -35.233  46.185  0.00  0.00    +0.000 C 
ATOM      3  O   UNL     1      48.196 -35.306  46.096  0.00  0.00    +0.000 OA
ATOM      4  H   UNL     1      51.195 -35.745  47.112  0.00  0.00    +0.000 HD
ENDROOT
BRANCH   1   5
ATOM      5  C   UNL     1      49.727 -36.949  47.967  0.00  0.00    +0.000 A 
ATOM      6  C   UNL     1      48.985 -36.514  49.065  0.00  0.00    +0.000 A 
ATOM      7  C   UNL     1      49.976 -38.308  47.810  0.00  0.00    +0.000 A 
ATOM      8  C   UNL     1      48.484 -37.420  50.008  0.00  0.00    +0.000 A 
ATOM      9  C   UNL     1      48.741 -38.788  49.836  0.00  0.00    +0.000 A 
ATOM     10  C   UNL     1      49.486 -39.224  48.738  0.00  0.00    +0.000 A 
BRANCH   8  11
ATOM     11  C   UNL     1      47.692 -36.899  51.171  0.00  0.00    +0.000 C 
ATOM     12  F   UNL     1      46.386 -37.284  51.147  0.00  0.00    +0.000 F 
ATOM     13  F   UNL     1      48.182 -37.326  52.364  0.00  0.00    +0.000 F 
ATOM     14  F   UNL     1      47.677 -35.541  51.222  0.00  0.00    +0.000 F 
ENDBRANCH   8  11
BRANCH   9  16
ATOM     15  N   UNL     1      47.873 -40.585  51.489  0.00  0.00    +0.000 NA
ATOM     16  C   UNL     1      48.264 -39.777  50.755  0.00  0.00    +0.000 C 
ENDBRANCH   9  16
ENDBRANCH   1   5
BRANCH   2  17
ATOM     17  C   UNL     1      50.236 -34.275  45.220  0.00  0.00    +0.000 C 
ATOM     18  C   UNL     1      51.626 -33.915  45.817  0.00  0.00    +0.000 C 
BRANCH  17  19
ATOM     19  O   UNL     1      49.534 -33.057  45.032  0.00  0.00    +0.000 OA
ATOM     20  H   UNL     1      49.266 -33.069  44.094  0.00  0.00    +0.000 HD
ENDBRANCH  17  19
BRANCH  17  21
ATOM     21  C   UNL     1      50.374 -34.931  43.957  0.00  0.00    +0.000 C 
BRANCH  21  22
ATOM     22  S   UNL     1      50.742 -35.786  42.504  0.00  0.00    +0.000 S 
ATOM     23  O   UNL     1      52.062 -35.250  42.288  0.00  0.00    +0.000 OA
ATOM     24  O   UNL     1      49.552 -35.408  41.782  0.00  0.00    +0.000 OA
BRANCH  22  25
ATOM     25  C   UNL     1      50.782 -37.485  42.837  0.00  0.00    +0.000 A 
ATOM     26  C   UNL     1      51.385 -38.322  41.904  0.00  0.00    +0.000 A 
ATOM     27  C   UNL     1      51.409 -39.694  42.138  0.00  0.00    +0.000 A 
ATOM     28  C   UNL     1      50.826 -40.200  43.296  0.00  0.00    +0.000 A 
ATOM     29  F   UNL     1      50.849 -41.521  43.521  0.00  0.00    +0.000 F 
ATOM     30  C   UNL     1      50.217 -39.360  44.224  0.00  0.00    +0.000 A 
ATOM     31  C   UNL     1      50.191 -37.989  43.992  0.00  0.00    +0.000 A 
ENDBRANCH  22  25
ENDBRANCH  21  22
ENDBRANCH  17  21
ENDBRANCH   2  17
TORSDOF 8
ENDMDL
MODEL 5
REMARK VINA RESULT:      -7.1      6.338      9.410
REMARK  Name = Bicalutamide.pdbqt.pdb
REMARK  8 active torsions:
REMARK  status: ('A' for Active; 'I' for Inactive)
REMARK    1  A    between atoms: C_2  and  N_13
REMARK    2  A    between atoms: C_5  and  C_9
REMARK    3  A    between atoms: C_6  and  C_8
REMARK    4  A    between atoms: C_14  and  C_17
REMARK    5  A    between atoms: C_17  and  O_19
REMARK    6  A    between atoms: C_17  and  C_21
REMARK    7  A    between atoms: C_21  and  S_22
REMARK    8  A    between atoms: S_22  and  C_25
REMARK                            x       y       z     vdW  Elec       q    Type
REMARK                         _______ _______ _______ _____ _____    ______ ____
ROOT
ATOM      1  N   UNL     1      47.619 -43.240  50.319  0.00  0.00    +0.000 N 
ATOM      2  C   UNL     1      47.539 -42.056  51.048  0.00  0.00    +0.000 C 
ATOM      3  O   UNL     1      47.475 -41.991  52.280  0.00  0.00    +0.000 OA
ATOM      4  H   UNL     1      47.769 -43.147  49.314  0.00  0.00    +0.000 HD
ENDROOT
BRANCH   1   5
ATOM      5  C   UNL     1      47.596 -44.539  50.852  0.00  0.00    +0.000 A 
ATOM      6  C   UNL     1      48.738 -45.324  50.701  0.00  0.00    +0.000 A 
ATOM      7  C   UNL     1      46.487 -45.070  51.504  0.00  0.00    +0.000 A 
ATOM      8  C   UNL     1      48.792 -46.633  51.195  0.00  0.00    +0.000 A 
ATOM      9  C   UNL     1      47.668 -47.155  51.852  0.00  0.00    +0.000 A 
ATOM     10  C   UNL     1      46.522 -46.371  52.002  0.00  0.00    +0.000 A 
BRANCH   8  11
ATOM     11  C   UNL     1      50.047 -47.433  51.005  0.00  0.00    +0.000 C 
ATOM     12  F   UNL     1      49.835 -48.623  50.378  0.00  0.00    +0.000 F 
ATOM     13  F   UNL     1      50.970 -46.777  50.254  0.00  0.00    +0.000 F 
ATOM     14  F   UNL     1      50.651 -47.738  52.184  0.00  0.00    +0.000 F 
ENDBRANCH   8  11
BRANCH   9  16
ATOM     15  N   UNL     1      47.611 -49.561  52.811  0.00  0.00    +0.000 NA
ATOM     16  C   UNL     1      47.643 -48.483  52.385  0.00  0.00    +0.000 C 
ENDBRANCH   9  16
ENDBRANCH   1   5
BRANCH   2  17
ATOM     17  C   UNL     1      47.489 -40.732  50.181  0.00  0.00    +0.000 C 
ATOM     18  C   UNL     1      48.674 -39.786  50.524  0.00  0.00    +0.000 C 
BRANCH  17  19
ATOM     19  O   UNL     1      46.293 -40.018  50.443  0.00  0.00    +0.000 OA
ATOM     20  H   UNL     1      46.543 -39.078  50.361  0.00  0.00    +0.000 HD
ENDBRANCH  17  19
BRANCH  17  21
ATOM     21  C   UNL     1      47.513 -41.105  48.800  0.00  0.00    +0.000 C 
BRANCH  21  22
ATOM     22  S   UNL     1      47.688 -41.714  47.195  0.00  0.00    +0.000 S 
ATOM     23  O   UNL     1      48.525 -40.663  46.675  0.00  0.00    +0.000 OA
ATOM     24  O   UNL     1      46.280 -41.878  46.926  0.00  0.00    +0.000 OA
BRANCH  22  25
ATOM     25  C   UNL     1      48.516 -43.233  47.248  0.00  0.00    +0.000 A 
ATOM     26  C   UNL     1      49.874 -43.229  47.549  0.00  0.00    +0.000 A 
ATOM     27  C   UNL     1      50.568 -44.436  47.575  0.00  0.00    +0.000 A 
ATOM     28  C   UNL     1      49.891 -45.620  47.295  0.00  0.00    +0.000 A 
ATOM     29  F   UNL     1      50.558 -46.781  47.320  0.00  0.00    +0.000 F 
ATOM     30  C   UNL     1      48.533 -45.618  46.987  0.00  0.00    +0.000 A 
ATOM     31  C   UNL     1      47.838 -44.413  46.960  0.00  0.00    +0.000 A 
ENDBRANCH  22  25
ENDBRANCH  21  22
ENDBRANCH  17  21
ENDBRANCH   2  17
TORSDOF 8
ENDMDL
MODEL 6
REMARK VINA RESULT:      -6.9      4.741      9.597
REMARK  Name = Bicalutamide.pdbqt.pdb
REMARK  8 active torsions:
REMARK  status: ('A' for Active; 'I' for Inactive)
REMARK    1  A    between atoms: C_2  and  N_13
REMARK    2  A    between atoms: C_5  and  C_9
REMARK    3  A    between atoms: C_6  and  C_8
REMARK    4  A    between atoms: C_14  and  C_17
REMARK    5  A    between atoms: C_17  and  O_19
REMARK    6  A    between atoms: C_17  and  C_21
REMARK    7  A    between atoms: C_21  and  S_22
REMARK    8  A    between atoms: S_22  and  C_25
REMARK                            x       y       z     vdW  Elec       q    Type
REMARK                         _______ _______ _______ _____ _____    ______ ____
ROOT
ATOM      1  N   UNL     1      48.153 -43.051  50.358  0.00  0.00    +0.000 N 
ATOM      2  C   UNL     1      47.568 -41.960  50.997  0.00  0.00    +0.000 C 
ATOM      3  O   UNL     1      46.994 -42.011  52.089  0.00  0.00    +0.000 OA
ATOM      4  H   UNL     1      48.683 -42.850  49.508  0.00  0.00    +0.000 HD
ENDROOT
BRANCH   1   5
ATOM      5  C   UNL     1      48.150 -44.377  50.819  0.00  0.00    +0.000 A 
ATOM      6  C   UNL     1      49.212 -45.199  50.443  0.00  0.00    +0.000 A 
ATOM      7  C   UNL     1      47.136 -44.899  51.616  0.00  0.00    +0.000 A 
ATOM      8  C   UNL     1      49.278 -46.535  50.854  0.00  0.00    +0.000 A 
ATOM      9  C   UNL     1      48.250 -47.048  51.659  0.00  0.00    +0.000 A 
ATOM     10  C   UNL     1      47.185 -46.226  52.035  0.00  0.00    +0.000 A 
BRANCH   8  11
ATOM     11  C   UNL     1      50.443 -47.375  50.420  0.00  0.00    +0.000 C 
ATOM     12  F   UNL     1      50.081 -48.446  49.660  0.00  0.00    +0.000 F 
ATOM     13  F   UNL     1      51.336 -46.675  49.672  0.00  0.00    +0.000 F 
ATOM     14  F   UNL     1      51.136 -47.885  51.472  0.00  0.00    +0.000 F 
ENDBRANCH   8  11
BRANCH   9  16
ATOM     15  N   UNL     1      48.229 -49.497  52.504  0.00  0.00    +0.000 NA
ATOM     16  C   UNL     1      48.244 -48.403  52.120  0.00  0.00    +0.000 C 
ENDBRANCH   9  16
ENDBRANCH   1   5
BRANCH   2  17
ATOM     17  C   UNL     1      47.638 -40.594  50.200  0.00  0.00    +0.000 C 
ATOM     18  C   UNL     1      48.670 -39.621  50.837  0.00  0.00    +0.000 C 
BRANCH  17  19
ATOM     19  O   UNL     1      46.378 -39.944  50.227  0.00  0.00    +0.000 OA
ATOM     20  H   UNL     1      46.029 -40.118  51.122  0.00  0.00    +0.000 HD
ENDBRANCH  17  19
BRANCH  17  21
ATOM     21  C   UNL     1      47.980 -40.889  48.843  0.00  0.00    +0.000 C 
BRANCH  21  22
ATOM     22  S   UNL     1      48.515 -41.411  47.288  0.00  0.00    +0.000 S 
ATOM     23  O   UNL     1      48.236 -42.816  47.444  0.00  0.00    +0.000 OA
ATOM     24  O   UNL     1      49.821 -40.801  47.349  0.00  0.00    +0.000 OA
BRANCH  22  25
ATOM     25  C   UNL     1      47.521 -40.686  46.070  0.00  0.00    +0.000 A 
ATOM     26  C   UNL     1      47.899 -39.445  45.569  0.00  0.00    +0.000 A 
ATOM     27  C   UNL     1      47.103 -38.831  44.605  0.00  0.00    +0.000 A 
ATOM     28  C   UNL     1      45.946 -39.469  44.166  0.00  0.00    +0.000 A 
ATOM     29  F   UNL     1      45.181 -38.878  43.239  0.00  0.00    +0.000 F 
ATOM     30  C   UNL     1      45.568 -40.708  44.676  0.00  0.00    +0.000 A 
ATOM     31  C   UNL     1      46.361 -41.323  45.639  0.00  0.00    +0.000 A 
ENDBRANCH  22  25
ENDBRANCH  21  22
ENDBRANCH  17  21
ENDBRANCH   2  17
TORSDOF 8
ENDMDL
MODEL 7
REMARK VINA RESULT:      -6.9      5.644      7.528
REMARK  Name = Bicalutamide.pdbqt.pdb
REMARK  8 active torsions:
REMARK  status: ('A' for Active; 'I' for Inactive)
REMARK    1  A    between atoms: C_2  and  N_13
REMARK    2  A    between atoms: C_5  and  C_9
REMARK    3  A    between atoms: C_6  and  C_8
REMARK    4  A    between atoms: C_14  and  C_17
REMARK    5  A    between atoms: C_17  and  O_19
REMARK    6  A    between atoms: C_17  and  C_21
REMARK    7  A    between atoms: C_21  and  S_22
REMARK    8  A    between atoms: S_22  and  C_25
REMARK                            x       y       z     vdW  Elec       q    Type
REMARK                         _______ _______ _______ _____ _____    ______ ____
ROOT
ATOM      1  N   UNL     1      47.802 -42.984  50.961  0.00  0.00    +0.000 N 
ATOM      2  C   UNL     1      48.388 -44.247  50.951  0.00  0.00    +0.000 C 
ATOM      3  O   UNL     1      49.337 -44.575  50.230  0.00  0.00    +0.000 OA
ATOM      4  H   UNL     1      47.093 -42.817  51.677  0.00  0.00    +0.000 HD
ENDROOT
BRANCH   1   5
ATOM      5  C   UNL     1      48.155 -41.903  50.137  0.00  0.00    +0.000 A 
ATOM      6  C   UNL     1      48.235 -40.639  50.721  0.00  0.00    +0.000 A 
ATOM      7  C   UNL     1      48.412 -42.040  48.777  0.00  0.00    +0.000 A 
ATOM      8  C   UNL     1      48.572 -39.510  49.966  0.00  0.00    +0.000 A 
ATOM      9  C   UNL     1      48.831 -39.663  48.596  0.00  0.00    +0.000 A 
ATOM     10  C   UNL     1      48.749 -40.927  48.010  0.00  0.00    +0.000 A 
BRANCH   8  11
ATOM     11  C   UNL     1      48.645 -38.173  50.646  0.00  0.00    +0.000 C 
ATOM     12  F   UNL     1      48.205 -38.200  51.934  0.00  0.00    +0.000 F 
ATOM     13  F   UNL     1      49.913 -37.688  50.698  0.00  0.00    +0.000 F 
ATOM     14  F   UNL     1      47.895 -37.230  50.017  0.00  0.00    +0.000 F 
ENDBRANCH   8  11
BRANCH   9  16
ATOM     15  N   UNL     1      49.465 -37.654  47.088  0.00  0.00    +0.000 NA
ATOM     16  C   UNL     1      49.182 -38.558  47.757  0.00  0.00    +0.000 C 
ENDBRANCH   9  16
ENDBRANCH   1   5
BRANCH   2  17
ATOM     17  C   UNL     1      47.724 -45.307  51.920  0.00  0.00    +0.000 C 
ATOM     18  C   UNL     1      46.186 -45.384  51.706  0.00  0.00    +0.000 C 
BRANCH  17  19
ATOM     19  O   UNL     1      47.941 -44.939  53.273  0.00  0.00    +0.000 OA
ATOM     20  H   UNL     1      47.057 -44.690  53.605  0.00  0.00    +0.000 HD
ENDBRANCH  17  19
BRANCH  17  21
ATOM     21  C   UNL     1      48.341 -46.575  51.680  0.00  0.00    +0.000 C 
BRANCH  21  22
ATOM     22  S   UNL     1      49.012 -48.084  51.180  0.00  0.00    +0.000 S 
ATOM     23  O   UNL     1      50.388 -47.806  51.503  0.00  0.00    +0.000 OA
ATOM     24  O   UNL     1      48.443 -48.087  49.854  0.00  0.00    +0.000 OA
BRANCH  22  25
ATOM     25  C   UNL     1      48.361 -49.351  52.164  0.00  0.00    +0.000 A 
ATOM     26  C   UNL     1      48.817 -50.648  51.949  0.00  0.00    +0.000 A 
ATOM     27  C   UNL     1      48.292 -51.687  52.712  0.00  0.00    +0.000 A 
ATOM     28  C   UNL     1      47.320 -51.410  53.669  0.00  0.00    +0.000 A 
ATOM     29  F   UNL     1      46.815 -52.411  54.403  0.00  0.00    +0.000 F 
ATOM     30  C   UNL     1      46.862 -50.111  53.876  0.00  0.00    +0.000 A 
ATOM     31  C   UNL     1      47.384 -49.071  53.115  0.00  0.00    +0.000 A 
ENDBRANCH  22  25
ENDBRANCH  21  22
ENDBRANCH  17  21
ENDBRANCH   2  17
TORSDOF 8
ENDMDL
MODEL 8
REMARK VINA RESULT:      -6.9     10.836     14.069
REMARK  Name = Bicalutamide.pdbqt.pdb
REMARK  8 active torsions:
REMARK  status: ('A' for Active; 'I' for Inactive)
REMARK    1  A    between atoms: C_2  and  N_13
REMARK    2  A    between atoms: C_5  and  C_9
REMARK    3  A    between atoms: C_6  and  C_8
REMARK    4  A    between atoms: C_14  and  C_17
REMARK    5  A    between atoms: C_17  and  O_19
REMARK    6  A    between atoms: C_17  and  C_21
REMARK    7  A    between atoms: C_21  and  S_22
REMARK    8  A    between atoms: S_22  and  C_25
REMARK                            x       y       z     vdW  Elec       q    Type
REMARK                         _______ _______ _______ _____ _____    ______ ____
ROOT
ATOM      1  N   UNL     1      47.514 -48.832  52.776  0.00  0.00    +0.000 N 
ATOM      2  C   UNL     1      48.735 -48.927  52.112  0.00  0.00    +0.000 C 
ATOM      3  O   UNL     1      49.257 -49.985  51.750  0.00  0.00    +0.000 OA
ATOM      4  H   UNL     1      47.150 -47.891  52.928  0.00  0.00    +0.000 HD
ENDROOT
BRANCH   1   5
ATOM      5  C   UNL     1      46.708 -49.910  53.177  0.00  0.00    +0.000 A 
ATOM      6  C   UNL     1      45.730 -50.355  52.288  0.00  0.00    +0.000 A 
ATOM      7  C   UNL     1      46.837 -50.533  54.414  0.00  0.00    +0.000 A 
ATOM      8  C   UNL     1      44.879 -51.418  52.617  0.00  0.00    +0.000 A 
ATOM      9  C   UNL     1      45.022 -52.038  53.867  0.00  0.00    +0.000 A 
ATOM     10  C   UNL     1      45.999 -51.591  54.758  0.00  0.00    +0.000 A 
BRANCH   8  11
ATOM     11  C   UNL     1      43.844 -51.858  51.623  0.00  0.00    +0.000 C 
ATOM     12  F   UNL     1      42.570 -51.750  52.091  0.00  0.00    +0.000 F 
ATOM     13  F   UNL     1      43.882 -51.125  50.479  0.00  0.00    +0.000 F 
ATOM     14  F   UNL     1      43.996 -53.158  51.256  0.00  0.00    +0.000 F 
ENDBRANCH   8  11
BRANCH   9  16
ATOM     15  N   UNL     1      43.518 -54.019  54.595  0.00  0.00    +0.000 NA
ATOM     16  C   UNL     1      44.192 -53.130  54.277  0.00  0.00    +0.000 C 
ENDBRANCH   9  16
ENDBRANCH   1   5
BRANCH   2  17
ATOM     17  C   UNL     1      49.479 -47.551  51.870  0.00  0.00    +0.000 C 
ATOM     18  C   UNL     1      50.565 -47.682  50.765  0.00  0.00    +0.000 C 
BRANCH  17  19
ATOM     19  O   UNL     1      50.136 -47.132  53.055  0.00  0.00    +0.000 OA
ATOM     20  H   UNL     1      50.324 -47.958  53.538  0.00  0.00    +0.000 HD
ENDBRANCH  17  19
BRANCH  17  21
ATOM     21  C   UNL     1      48.498 -46.573  51.512  0.00  0.00    +0.000 C 
BRANCH  21  22
ATOM     22  S   UNL     1      47.192 -45.478  51.247  0.00  0.00    +0.000 S 
ATOM     23  O   UNL     1      47.712 -44.830  50.069  0.00  0.00    +0.000 OA
ATOM     24  O   UNL     1      47.173 -44.916  52.576  0.00  0.00    +0.000 OA
BRANCH  22  25
ATOM     25  C   UNL     1      45.753 -46.378  50.906  0.00  0.00    +0.000 A 
ATOM     26  C   UNL     1      44.652 -46.194  51.737  0.00  0.00    +0.000 A 
ATOM     27  C   UNL     1      43.491 -46.924  51.497  0.00  0.00    +0.000 A 
ATOM     28  C   UNL     1      43.456 -47.825  50.436  0.00  0.00    +0.000 A 
ATOM     29  F   UNL     1      42.338 -48.527  50.206  0.00  0.00    +0.000 F 
ATOM     30  C   UNL     1      44.563 -48.011  49.612  0.00  0.00    +0.000 A 
ATOM     31  C   UNL     1      45.724 -47.283  49.850  0.00  0.00    +0.000 A 
ENDBRANCH  22  25
ENDBRANCH  21  22
ENDBRANCH  17  21
ENDBRANCH   2  17
TORSDOF 8
ENDMDL
MODEL 9
REMARK VINA RESULT:      -6.8      8.463     13.945
REMARK  Name = Bicalutamide.pdbqt.pdb
REMARK  8 active torsions:
REMARK  status: ('A' for Active; 'I' for Inactive)
REMARK    1  A    between atoms: C_2  and  N_13
REMARK    2  A    between atoms: C_5  and  C_9
REMARK    3  A    between atoms: C_6  and  C_8
REMARK    4  A    between atoms: C_14  and  C_17
REMARK    5  A    between atoms: C_17  and  O_19
REMARK    6  A    between atoms: C_17  and  C_21
REMARK    7  A    between atoms: C_21  and  S_22
REMARK    8  A    between atoms: S_22  and  C_25
REMARK                            x       y       z     vdW  Elec       q    Type
REMARK                         _______ _______ _______ _____ _____    ______ ____
ROOT
ATOM      1  N   UNL     1      47.641 -48.801  52.912  0.00  0.00    +0.000 N 
ATOM      2  C   UNL     1      48.475 -48.618  51.812  0.00  0.00    +0.000 C 
ATOM      3  O   UNL     1      48.581 -49.411  50.871  0.00  0.00    +0.000 OA
ATOM      4  H   UNL     1      47.574 -48.021  53.567  0.00  0.00    +0.000 HD
ENDROOT
BRANCH   1   5
ATOM      5  C   UNL     1      46.827 -49.920  53.153  0.00  0.00    +0.000 A 
ATOM      6  C   UNL     1      47.221 -50.806  54.155  0.00  0.00    +0.000 A 
ATOM      7  C   UNL     1      45.666 -50.181  52.433  0.00  0.00    +0.000 A 
ATOM      8  C   UNL     1      46.470 -51.950  54.450  0.00  0.00    +0.000 A 
ATOM      9  C   UNL     1      45.300 -52.199  53.717  0.00  0.00    +0.000 A 
ATOM     10  C   UNL     1      44.906 -51.314  52.713  0.00  0.00    +0.000 A 
BRANCH   8  11
ATOM     11  C   UNL     1      46.939 -52.870  55.539  0.00  0.00    +0.000 C 
ATOM     12  F   UNL     1      48.137 -52.503  56.074  0.00  0.00    +0.000 F 
ATOM     13  F   UNL     1      46.069 -52.925  56.581  0.00  0.00    +0.000 F 
ATOM     14  F   UNL     1      47.104 -54.147  55.104  0.00  0.00    +0.000 F 
ENDBRANCH   8  11
BRANCH   9  16
ATOM     15  N   UNL     1      43.812 -54.272  54.169  0.00  0.00    +0.000 NA
ATOM     16  C   UNL     1      44.477 -53.346  53.959  0.00  0.00    +0.000 C 
ENDBRANCH   9  16
ENDBRANCH   1   5
BRANCH   2  17
ATOM     17  C   UNL     1      49.356 -47.304  51.845  0.00  0.00    +0.000 C 
ATOM     18  C   UNL     1      50.306 -47.229  50.616  0.00  0.00    +0.000 C 
BRANCH  17  19
ATOM     19  O   UNL     1      50.171 -47.287  53.006  0.00  0.00    +0.000 OA
ATOM     20  H   UNL     1      50.094 -46.375  53.348  0.00  0.00    +0.000 HD
ENDBRANCH  17  19
BRANCH  17  21
ATOM     21  C   UNL     1      48.474 -46.178  51.881  0.00  0.00    +0.000 C 
BRANCH  21  22
ATOM     22  S   UNL     1      47.579 -44.710  52.019  0.00  0.00    +0.000 S 
ATOM     23  O   UNL     1      47.895 -44.414  53.393  0.00  0.00    +0.000 OA
ATOM     24  O   UNL     1      46.323 -45.235  51.539  0.00  0.00    +0.000 OA
BRANCH  22  25
ATOM     25  C   UNL     1      48.242 -43.533  50.936  0.00  0.00    +0.000 A 
ATOM     26  C   UNL     1      47.887 -42.201  51.118  0.00  0.00    +0.000 A 
ATOM     27  C   UNL     1      48.389 -41.239  50.246  0.00  0.00    +0.000 A 
ATOM     28  C   UNL     1      49.230 -41.630  49.208  0.00  0.00    +0.000 A 
ATOM     29  F   UNL     1      49.713 -40.704  48.368  0.00  0.00    +0.000 F 
ATOM     30  C   UNL     1      49.577 -42.966  49.025  0.00  0.00    +0.000 A 
ATOM     31  C   UNL     1      49.076 -43.928  49.895  0.00  0.00    +0.000 A 
ENDBRANCH  22  25
ENDBRANCH  21  22
ENDBRANCH  17  21
ENDBRANCH   2  17
TORSDOF 8
ENDMDL
