MODEL 1
REMARK VINA RESULT:      -5.6      0.000      0.000
REMARK  Name = Bisphenol_A.pdbqt.pdb
REMARK  4 active torsions:
REMARK  status: ('A' for Active; 'I' for Inactive)
REMARK    1  A    between atoms: C_1  and  C_4
REMARK    2  A    between atoms: C_1  and  C_12
REMARK    3  A    between atoms: C_7  and  O_10
REMARK    4  A    between atoms: C_15  and  O_18
REMARK                            x       y       z     vdW  Elec       q    Type
REMARK                         _______ _______ _______ _____ _____    ______ ____
ROOT
ATOM      1  C   UNL     1      49.484 -47.386  50.392  0.00  0.00    +0.000 C 
ATOM      2  C   UNL     1      48.430 -48.434  49.888  0.00  0.00    +0.000 C 
ATOM      3  C   UNL     1      50.143 -47.950  51.701  0.00  0.00    +0.000 C 
ENDROOT
BRANCH   1   4
ATOM      4  C   UNL     1      50.514 -47.214  49.266  0.00  0.00    +0.000 A 
ATOM      5  C   UNL     1      50.238 -47.711  47.980  0.00  0.00    +0.000 A 
ATOM      6  C   UNL     1      51.157 -47.589  46.939  0.00  0.00    +0.000 A 
ATOM      7  C   UNL     1      52.375 -46.966  47.180  0.00  0.00    +0.000 A 
ATOM      8  C   UNL     1      52.685 -46.470  48.440  0.00  0.00    +0.000 A 
ATOM      9  C   UNL     1      51.759 -46.601  49.473  0.00  0.00    +0.000 A 
BRANCH   7  10
ATOM     10  O   UNL     1      53.295 -46.825  46.184  0.00  0.00    +0.000 OA
ATOM     11  H   UNL     1      53.476 -47.701  45.801  0.00  0.00    +0.000 HD
ENDBRANCH   7  10
ENDBRANCH   1   4
BRANCH   1  12
ATOM     12  C   UNL     1      48.827 -46.049  50.766  0.00  0.00    +0.000 A 
ATOM     13  C   UNL     1      48.407 -45.818  52.088  0.00  0.00    +0.000 A 
ATOM     14  C   UNL     1      47.792 -44.624  52.457  0.00  0.00    +0.000 A 
ATOM     15  C   UNL     1      47.585 -43.642  51.497  0.00  0.00    +0.000 A 
ATOM     16  C   UNL     1      47.981 -43.838  50.180  0.00  0.00    +0.000 A 
ATOM     17  C   UNL     1      48.593 -45.038  49.822  0.00  0.00    +0.000 A 
BRANCH  15  18
ATOM     18  O   UNL     1      46.991 -42.459  51.825  0.00  0.00    +0.000 OA
ATOM     19  H   UNL     1      47.365 -41.758  51.262  0.00  0.00    +0.000 HD
ENDBRANCH  15  18
ENDBRANCH   1  12
TORSDOF 4
ENDMDL
MODEL 2
REMARK VINA RESULT:      -5.6      7.722     10.544
REMARK  Name = Bisphenol_A.pdbqt.pdb
REMARK  4 active torsions:
REMARK  status: ('A' for Active; 'I' for Inactive)
REMARK    1  A    between atoms: C_1  and  C_4
REMARK    2  A    between atoms: C_1  and  C_12
REMARK    3  A    between atoms: C_7  and  O_10
REMARK    4  A    between atoms: C_15  and  O_18
REMARK                            x       y       z     vdW  Elec       q    Type
REMARK                         _______ _______ _______ _____ _____    ______ ____
ROOT
ATOM      1  C   UNL     1      49.072 -38.503  49.380  0.00  0.00    +0.000 C 
ATOM      2  C   UNL     1      50.483 -39.113  49.695  0.00  0.00    +0.000 C 
ATOM      3  C   UNL     1      48.051 -39.687  49.234  0.00  0.00    +0.000 C 
ENDROOT
BRANCH   1   4
ATOM      4  C   UNL     1      48.712 -37.583  50.557  0.00  0.00    +0.000 A 
ATOM      5  C   UNL     1      49.668 -37.310  51.551  0.00  0.00    +0.000 A 
ATOM      6  C   UNL     1      49.370 -36.494  52.642  0.00  0.00    +0.000 A 
ATOM      7  C   UNL     1      48.099 -35.945  52.751  0.00  0.00    +0.000 A 
ATOM      8  C   UNL     1      47.127 -36.201  51.792  0.00  0.00    +0.000 A 
ATOM      9  C   UNL     1      47.437 -37.019  50.707  0.00  0.00    +0.000 A 
BRANCH   7  10
ATOM     10  O   UNL     1      47.775 -35.140  53.803  0.00  0.00    +0.000 OA
ATOM     11  H   UNL     1      47.787 -35.672  54.617  0.00  0.00    +0.000 HD
ENDBRANCH   7  10
ENDBRANCH   1   4
BRANCH   1  12
ATOM     12  C   UNL     1      49.063 -37.742  48.046  0.00  0.00    +0.000 A 
ATOM     13  C   UNL     1      48.759 -38.421  46.852  0.00  0.00    +0.000 A 
ATOM     14  C   UNL     1      48.759 -37.766  45.623  0.00  0.00    +0.000 A 
ATOM     15  C   UNL     1      49.071 -36.413  45.575  0.00  0.00    +0.000 A 
ATOM     16  C   UNL     1      49.383 -35.712  46.733  0.00  0.00    +0.000 A 
ATOM     17  C   UNL     1      49.382 -36.379  47.957  0.00  0.00    +0.000 A 
BRANCH  15  18
ATOM     18  O   UNL     1      49.075 -35.739  44.389  0.00  0.00    +0.000 OA
ATOM     19  H   UNL     1      48.356 -35.083  44.404  0.00  0.00    +0.000 HD
ENDBRANCH  15  18
ENDBRANCH   1  12
TORSDOF 4
ENDMDL
MODEL 3
REMARK VINA RESULT:      -5.6      2.463      5.510
REMARK  Name = Bisphenol_A.pdbqt.pdb
REMARK  4 active torsions:
REMARK  status: ('A' for Active; 'I' for Inactive)
REMARK    1  A    between atoms: C_1  and  C_4
REMARK    2  A    between atoms: C_1  and  C_12
REMARK    3  A    between atoms: C_7  and  O_10
REMARK    4  A    between atoms: C_15  and  O_18
REMARK                            x       y       z     vdW  Elec       q    Type
REMARK                         _______ _______ _______ _____ _____    ______ ____
ROOT
ATOM      1  C   UNL     1      49.596 -45.922  49.329  0.00  0.00    +0.000 C 
ATOM      2  C   UNL     1      48.872 -45.837  47.939  0.00  0.00    +0.000 C 
ATOM      3  C   UNL     1      51.139 -45.767  49.085  0.00  0.00    +0.000 C 
ENDROOT
BRANCH   1   4
ATOM      4  C   UNL     1      49.039 -44.779  50.192  0.00  0.00    +0.000 A 
ATOM      5  C   UNL     1      49.236 -43.443  49.799  0.00  0.00    +0.000 A 
ATOM      6  C   UNL     1      48.760 -42.382  50.566  0.00  0.00    +0.000 A 
ATOM      7  C   UNL     1      48.082 -42.650  51.749  0.00  0.00    +0.000 A 
ATOM      8  C   UNL     1      47.876 -43.957  52.171  0.00  0.00    +0.000 A 
ATOM      9  C   UNL     1      48.359 -45.010  51.396  0.00  0.00    +0.000 A 
BRANCH   7  10
ATOM     10  O   UNL     1      47.599 -41.636  52.522  0.00  0.00    +0.000 OA
ATOM     11  H   UNL     1      47.665 -41.899  53.456  0.00  0.00    +0.000 HD
ENDBRANCH   7  10
ENDBRANCH   1   4
BRANCH   1  12
ATOM     12  C   UNL     1      49.387 -47.288  49.999  0.00  0.00    +0.000 A 
ATOM     13  C   UNL     1      50.280 -47.727  50.993  0.00  0.00    +0.000 A 
ATOM     14  C   UNL     1      50.130 -48.968  51.608  0.00  0.00    +0.000 A 
ATOM     15  C   UNL     1      49.078 -49.792  51.228  0.00  0.00    +0.000 A 
ATOM     16  C   UNL     1      48.181 -49.393  50.245  0.00  0.00    +0.000 A 
ATOM     17  C   UNL     1      48.343 -48.151  49.634  0.00  0.00    +0.000 A 
BRANCH  15  18
ATOM     18  O   UNL     1      48.898 -51.010  51.814  0.00  0.00    +0.000 OA
ATOM     19  H   UNL     1      48.338 -51.554  51.232  0.00  0.00    +0.000 HD
ENDBRANCH  15  18
ENDBRANCH   1  12
TORSDOF 4
ENDMDL
MODEL 4
REMARK VINA RESULT:      -5.5      3.858      7.059
REMARK  Name = Bisphenol_A.pdbqt.pdb
REMARK  4 active torsions:
REMARK  status: ('A' for Active; 'I' for Inactive)
REMARK    1  A    between atoms: C_1  and  C_4
REMARK    2  A    between atoms: C_1  and  C_12
REMARK    3  A    between atoms: C_7  and  O_10
REMARK    4  A    between atoms: C_15  and  O_18
REMARK                            x       y       z     vdW  Elec       q    Type
REMARK                         _______ _______ _______ _____ _____    ______ ____
ROOT
ATOM      1  C   UNL     1      48.341 -41.413  49.007  0.00  0.00    +0.000 C 
ATOM      2  C   UNL     1      46.974 -41.266  48.250  0.00  0.00    +0.000 C 
ATOM      3  C   UNL     1      49.452 -41.739  47.947  0.00  0.00    +0.000 C 
ENDROOT
BRANCH   1   4
ATOM      4  C   UNL     1      48.605 -40.076  49.714  0.00  0.00    +0.000 A 
ATOM      5  C   UNL     1      47.555 -39.414  50.377  0.00  0.00    +0.000 A 
ATOM      6  C   UNL     1      47.755 -38.190  51.014  0.00  0.00    +0.000 A 
ATOM      7  C   UNL     1      49.016 -37.609  50.987  0.00  0.00    +0.000 A 
ATOM      8  C   UNL     1      50.074 -38.230  50.335  0.00  0.00    +0.000 A 
ATOM      9  C   UNL     1      49.861 -39.453  49.700  0.00  0.00    +0.000 A 
BRANCH   7  10
ATOM     10  O   UNL     1      49.247 -36.414  51.603  0.00  0.00    +0.000 OA
ATOM     11  H   UNL     1      48.698 -35.734  51.176  0.00  0.00    +0.000 HD
ENDBRANCH   7  10
ENDBRANCH   1   4
BRANCH   1  12
ATOM     12  C   UNL     1      48.320 -42.583  50.002  0.00  0.00    +0.000 A 
ATOM     13  C   UNL     1      48.060 -42.343  51.364  0.00  0.00    +0.000 A 
ATOM     14  C   UNL     1      48.051 -43.379  52.295  0.00  0.00    +0.000 A 
ATOM     15  C   UNL     1      48.308 -44.677  51.871  0.00  0.00    +0.000 A 
ATOM     16  C   UNL     1      48.575 -44.949  50.535  0.00  0.00    +0.000 A 
ATOM     17  C   UNL     1      48.584 -43.905  49.613  0.00  0.00    +0.000 A 
BRANCH  15  18
ATOM     18  O   UNL     1      48.300 -45.715  52.755  0.00  0.00    +0.000 OA
ATOM     19  H   UNL     1      47.569 -46.313  52.524  0.00  0.00    +0.000 HD
ENDBRANCH  15  18
ENDBRANCH   1  12
TORSDOF 4
ENDMDL
MODEL 5
REMARK VINA RESULT:      -5.5      7.020      8.983
REMARK  Name = Bisphenol_A.pdbqt.pdb
REMARK  4 active torsions:
REMARK  status: ('A' for Active; 'I' for Inactive)
REMARK    1  A    between atoms: C_1  and  C_4
REMARK    2  A    between atoms: C_1  and  C_12
REMARK    3  A    between atoms: C_7  and  O_10
REMARK    4  A    between atoms: C_15  and  O_18
REMARK                            x       y       z     vdW  Elec       q    Type
REMARK                         _______ _______ _______ _____ _____    ______ ____
ROOT
ATOM      1  C   UNL     1      47.902 -53.219  53.787  0.00  0.00    +0.000 C 
ATOM      2  C   UNL     1      47.036 -54.019  52.750  0.00  0.00    +0.000 C 
ATOM      3  C   UNL     1      49.380 -53.743  53.694  0.00  0.00    +0.000 C 
ENDROOT
BRANCH   1   4
ATOM      4  C   UNL     1      47.799 -51.736  53.402  0.00  0.00    +0.000 A 
ATOM      5  C   UNL     1      48.590 -51.226  52.357  0.00  0.00    +0.000 A 
ATOM      6  C   UNL     1      48.536 -49.881  51.993  0.00  0.00    +0.000 A 
ATOM      7  C   UNL     1      47.685 -49.026  52.682  0.00  0.00    +0.000 A 
ATOM      8  C   UNL     1      46.895 -49.494  53.724  0.00  0.00    +0.000 A 
ATOM      9  C   UNL     1      46.961 -50.840  54.080  0.00  0.00    +0.000 A 
BRANCH   7  10
ATOM     10  O   UNL     1      47.603 -47.706  52.350  0.00  0.00    +0.000 OA
ATOM     11  H   UNL     1      47.365 -47.637  51.409  0.00  0.00    +0.000 HD
ENDBRANCH   7  10
ENDBRANCH   1   4
BRANCH   1  12
ATOM     12  C   UNL     1      47.434 -53.462  55.229  0.00  0.00    +0.000 A 
ATOM     13  C   UNL     1      48.306 -53.205  56.303  0.00  0.00    +0.000 A 
ATOM     14  C   UNL     1      47.920 -53.430  57.622  0.00  0.00    +0.000 A 
ATOM     15  C   UNL     1      46.648 -53.925  57.882  0.00  0.00    +0.000 A 
ATOM     16  C   UNL     1      45.763 -54.197  56.846  0.00  0.00    +0.000 A 
ATOM     17  C   UNL     1      46.162 -53.970  55.530  0.00  0.00    +0.000 A 
BRANCH  15  18
ATOM     18  O   UNL     1      46.235 -54.152  59.162  0.00  0.00    +0.000 OA
ATOM     19  H   UNL     1      46.550 -53.422  59.723  0.00  0.00    +0.000 HD
ENDBRANCH  15  18
ENDBRANCH   1  12
TORSDOF 4
ENDMDL
MODEL 6
REMARK VINA RESULT:      -5.5      6.751      8.776
REMARK  Name = Bisphenol_A.pdbqt.pdb
REMARK  4 active torsions:
REMARK  status: ('A' for Active; 'I' for Inactive)
REMARK    1  A    between atoms: C_1  and  C_4
REMARK    2  A    between atoms: C_1  and  C_12
REMARK    3  A    between atoms: C_7  and  O_10
REMARK    4  A    between atoms: C_15  and  O_18
REMARK                            x       y       z     vdW  Elec       q    Type
REMARK                         _______ _______ _______ _____ _____    ______ ____
ROOT
ATOM      1  C   UNL     1      46.858 -52.638  54.095  0.00  0.00    +0.000 C 
ATOM      2  C   UNL     1      46.717 -53.827  53.081  0.00  0.00    +0.000 C 
ATOM      3  C   UNL     1      45.423 -52.271  54.618  0.00  0.00    +0.000 C 
ENDROOT
BRANCH   1   4
ATOM      4  C   UNL     1      47.770 -53.126  55.231  0.00  0.00    +0.000 A 
ATOM      5  C   UNL     1      47.366 -52.974  56.569  0.00  0.00    +0.000 A 
ATOM      6  C   UNL     1      48.176 -53.390  57.624  0.00  0.00    +0.000 A 
ATOM      7  C   UNL     1      49.412 -53.961  57.347  0.00  0.00    +0.000 A 
ATOM      8  C   UNL     1      49.846 -54.119  56.037  0.00  0.00    +0.000 A 
ATOM      9  C   UNL     1      49.028 -53.697  54.991  0.00  0.00    +0.000 A 
BRANCH   7  10
ATOM     10  O   UNL     1      50.228 -54.383  58.355  0.00  0.00    +0.000 OA
ATOM     11  H   UNL     1      49.781 -55.101  58.836  0.00  0.00    +0.000 HD
ENDBRANCH   7  10
ENDBRANCH   1   4
BRANCH   1  12
ATOM     12  C   UNL     1      47.420 -51.377  53.422  0.00  0.00    +0.000 A 
ATOM     13  C   UNL     1      46.942 -50.108  53.795  0.00  0.00    +0.000 A 
ATOM     14  C   UNL     1      47.417 -48.946  53.193  0.00  0.00    +0.000 A 
ATOM     15  C   UNL     1      48.382 -49.042  52.199  0.00  0.00    +0.000 A 
ATOM     16  C   UNL     1      48.873 -50.280  51.800  0.00  0.00    +0.000 A 
ATOM     17  C   UNL     1      48.387 -51.435  52.408  0.00  0.00    +0.000 A 
BRANCH  15  18
ATOM     18  O   UNL     1      48.874 -47.924  51.592  0.00  0.00    +0.000 OA
ATOM     19  H   UNL     1      49.374 -48.195  50.802  0.00  0.00    +0.000 HD
ENDBRANCH  15  18
ENDBRANCH   1  12
TORSDOF 4
ENDMDL
MODEL 7
REMARK VINA RESULT:      -5.4      6.743      8.742
REMARK  Name = Bisphenol_A.pdbqt.pdb
REMARK  4 active torsions:
REMARK  status: ('A' for Active; 'I' for Inactive)
REMARK    1  A    between atoms: C_1  and  C_4
REMARK    2  A    between atoms: C_1  and  C_12
REMARK    3  A    between atoms: C_7  and  O_10
REMARK    4  A    between atoms: C_15  and  O_18
REMARK                            x       y       z     vdW  Elec       q    Type
REMARK                         _______ _______ _______ _____ _____    ______ ____
ROOT
ATOM      1  C   UNL     1      46.841 -52.619  54.093  0.00  0.00    +0.000 C 
ATOM      2  C   UNL     1      45.411 -52.240  54.617  0.00  0.00    +0.000 C 
ATOM      3  C   UNL     1      46.690 -53.812  53.083  0.00  0.00    +0.000 C 
ENDROOT
BRANCH   1   4
ATOM      4  C   UNL     1      47.412 -51.366  53.411  0.00  0.00    +0.000 A 
ATOM      5  C   UNL     1      46.944 -50.092  53.781  0.00  0.00    +0.000 A 
ATOM      6  C   UNL     1      47.427 -48.936  53.171  0.00  0.00    +0.000 A 
ATOM      7  C   UNL     1      48.386 -49.045  52.171  0.00  0.00    +0.000 A 
ATOM      8  C   UNL     1      48.864 -50.287  51.775  0.00  0.00    +0.000 A 
ATOM      9  C   UNL     1      48.372 -51.437  52.391  0.00  0.00    +0.000 A 
BRANCH   7  10
ATOM     10  O   UNL     1      48.882 -47.934  51.556  0.00  0.00    +0.000 OA
ATOM     11  H   UNL     1      49.851 -48.014  51.506  0.00  0.00    +0.000 HD
ENDBRANCH   7  10
ENDBRANCH   1   4
BRANCH   1  12
ATOM     12  C   UNL     1      47.753 -53.110  55.226  0.00  0.00    +0.000 A 
ATOM     13  C   UNL     1      47.350 -52.963  56.566  0.00  0.00    +0.000 A 
ATOM     14  C   UNL     1      48.160 -53.381  57.619  0.00  0.00    +0.000 A 
ATOM     15  C   UNL     1      49.396 -53.952  57.340  0.00  0.00    +0.000 A 
ATOM     16  C   UNL     1      49.829 -54.107  56.029  0.00  0.00    +0.000 A 
ATOM     17  C   UNL     1      49.011 -53.682  54.984  0.00  0.00    +0.000 A 
BRANCH  15  18
ATOM     18  O   UNL     1      50.212 -54.377  58.346  0.00  0.00    +0.000 OA
ATOM     19  H   UNL     1      50.576 -53.597  58.801  0.00  0.00    +0.000 HD
ENDBRANCH  15  18
ENDBRANCH   1  12
TORSDOF 4
ENDMDL
MODEL 8
REMARK VINA RESULT:      -5.4      1.689      5.906
REMARK  Name = Bisphenol_A.pdbqt.pdb
REMARK  4 active torsions:
REMARK  status: ('A' for Active; 'I' for Inactive)
REMARK    1  A    between atoms: C_1  and  C_4
REMARK    2  A    between atoms: C_1  and  C_12
REMARK    3  A    between atoms: C_7  and  O_10
REMARK    4  A    between atoms: C_15  and  O_18
REMARK                            x       y       z     vdW  Elec       q    Type
REMARK                         _______ _______ _______ _____ _____    ______ ____
ROOT
ATOM      1  C   UNL     1      49.009 -45.334  48.417  0.00  0.00    +0.000 C 
ATOM      2  C   UNL     1      48.238 -46.664  48.733  0.00  0.00    +0.000 C 
ATOM      3  C   UNL     1      48.524 -44.810  47.019  0.00  0.00    +0.000 C 
ENDROOT
BRANCH   1   4
ATOM      4  C   UNL     1      48.670 -44.346  49.543  0.00  0.00    +0.000 A 
ATOM      5  C   UNL     1      48.284 -44.828  50.807  0.00  0.00    +0.000 A 
ATOM      6  C   UNL     1      47.952 -43.960  51.846  0.00  0.00    +0.000 A 
ATOM      7  C   UNL     1      47.998 -42.589  51.626  0.00  0.00    +0.000 A 
ATOM      8  C   UNL     1      48.367 -42.078  50.388  0.00  0.00    +0.000 A 
ATOM      9  C   UNL     1      48.694 -42.956  49.357  0.00  0.00    +0.000 A 
BRANCH   7  10
ATOM     10  O   UNL     1      47.684 -41.711  52.621  0.00  0.00    +0.000 OA
ATOM     11  H   UNL     1      46.805 -41.337  52.439  0.00  0.00    +0.000 HD
ENDBRANCH   7  10
ENDBRANCH   1   4
BRANCH   1  12
ATOM     12  C   UNL     1      50.523 -45.564  48.305  0.00  0.00    +0.000 A 
ATOM     13  C   UNL     1      51.162 -46.472  49.168  0.00  0.00    +0.000 A 
ATOM     14  C   UNL     1      52.535 -46.692  49.105  0.00  0.00    +0.000 A 
ATOM     15  C   UNL     1      53.292 -45.995  48.171  0.00  0.00    +0.000 A 
ATOM     16  C   UNL     1      52.696 -45.085  47.307  0.00  0.00    +0.000 A 
ATOM     17  C   UNL     1      51.321 -44.872  47.382  0.00  0.00    +0.000 A 
BRANCH  15  18
ATOM     18  O   UNL     1      54.639 -46.190  48.078  0.00  0.00    +0.000 OA
ATOM     19  H   UNL     1      54.799 -47.080  47.718  0.00  0.00    +0.000 HD
ENDBRANCH  15  18
ENDBRANCH   1  12
TORSDOF 4
ENDMDL
MODEL 9
REMARK VINA RESULT:      -5.4      1.747      2.491
REMARK  Name = Bisphenol_A.pdbqt.pdb
REMARK  4 active torsions:
REMARK  status: ('A' for Active; 'I' for Inactive)
REMARK    1  A    between atoms: C_1  and  C_4
REMARK    2  A    between atoms: C_1  and  C_12
REMARK    3  A    between atoms: C_7  and  O_10
REMARK    4  A    between atoms: C_15  and  O_18
REMARK                            x       y       z     vdW  Elec       q    Type
REMARK                         _______ _______ _______ _____ _____    ______ ____
ROOT
ATOM      1  C   UNL     1      49.043 -45.206  48.243  0.00  0.00    +0.000 C 
ATOM      2  C   UNL     1      48.614 -44.611  46.855  0.00  0.00    +0.000 C 
ATOM      3  C   UNL     1      48.224 -46.525  48.481  0.00  0.00    +0.000 C 
ENDROOT
BRANCH   1   4
ATOM      4  C   UNL     1      50.552 -45.480  48.163  0.00  0.00    +0.000 A 
ATOM      5  C   UNL     1      51.151 -46.380  49.064  0.00  0.00    +0.000 A 
ATOM      6  C   UNL     1      52.520 -46.637  49.031  0.00  0.00    +0.000 A 
ATOM      7  C   UNL     1      53.311 -45.987  48.093  0.00  0.00    +0.000 A 
ATOM      8  C   UNL     1      52.755 -45.086  47.193  0.00  0.00    +0.000 A 
ATOM      9  C   UNL     1      51.385 -44.834  47.238  0.00  0.00    +0.000 A 
BRANCH   7  10
ATOM     10  O   UNL     1      54.653 -46.219  48.030  0.00  0.00    +0.000 OA
ATOM     11  H   UNL     1      55.121 -45.384  48.209  0.00  0.00    +0.000 HD
ENDBRANCH   7  10
ENDBRANCH   1   4
BRANCH   1  12
ATOM     12  C   UNL     1      48.701 -44.257  49.401  0.00  0.00    +0.000 A 
ATOM     13  C   UNL     1      48.296 -44.780  50.643  0.00  0.00    +0.000 A 
ATOM     14  C   UNL     1      47.962 -43.948  51.708  0.00  0.00    +0.000 A 
ATOM     15  C   UNL     1      48.027 -42.570  51.539  0.00  0.00    +0.000 A 
ATOM     16  C   UNL     1      48.417 -42.018  50.325  0.00  0.00    +0.000 A 
ATOM     17  C   UNL     1      48.745 -42.861  49.266  0.00  0.00    +0.000 A 
BRANCH  15  18
ATOM     18  O   UNL     1      47.713 -41.725  52.563  0.00  0.00    +0.000 OA
ATOM     19  H   UNL     1      48.323 -40.968  52.538  0.00  0.00    +0.000 HD
ENDBRANCH  15  18
ENDBRANCH   1  12
TORSDOF 4
ENDMDL
