MODEL 1
REMARK VINA RESULT:      -3.2      0.000      0.000
REMARK  Name = CadmiumAcetate.pdbqt.pdb
REMARK  1 active torsions:
REMARK  status: ('A' for Active; 'I' for Inactive)
REMARK    1  A    between atoms: C_3  and  O_4
REMARK                            x       y       z     vdW  Elec       q    Type
REMARK                         _______ _______ _______ _____ _____    ______ ____
ROOT
ATOM      1  O   UNL     1      42.621 -30.520  51.251  0.00  0.00    +0.000 OA
ATOM      2  C   UNL     1      40.565 -30.381  52.272  0.00  0.00    +0.000 C 
ATOM      3  C   UNL     1      41.562 -31.082  51.442  0.00  0.00    +0.000 C 
ENDROOT
BRANCH   3   4
ATOM      4  O   UNL     1      41.202 -32.277  50.976  0.00  0.00    +0.000 OA
ATOM      5  H   UNL     1      41.242 -32.837  51.773  0.00  0.00    +0.000 HD
ENDBRANCH   3   4
TORSDOF 1
ENDMDL
MODEL 2
REMARK VINA RESULT:      -3.2      6.783      7.144
REMARK  Name = CadmiumAcetate.pdbqt.pdb
REMARK  1 active torsions:
REMARK  status: ('A' for Active; 'I' for Inactive)
REMARK    1  A    between atoms: C_3  and  O_4
REMARK                            x       y       z     vdW  Elec       q    Type
REMARK                         _______ _______ _______ _____ _____    ______ ____
ROOT
ATOM      1  O   UNL     1      47.226 -36.151  50.362  0.00  0.00    +0.000 OA
ATOM      2  C   UNL     1      47.356 -35.560  52.581  0.00  0.00    +0.000 C 
ATOM      3  C   UNL     1      46.591 -35.870  51.357  0.00  0.00    +0.000 C 
ENDROOT
BRANCH   3   4
ATOM      4  O   UNL     1      45.265 -35.810  51.464  0.00  0.00    +0.000 OA
ATOM      5  H   UNL     1      45.130 -35.004  51.995  0.00  0.00    +0.000 HD
ENDBRANCH   3   4
TORSDOF 1
ENDMDL
MODEL 3
REMARK VINA RESULT:      -2.8      2.197      2.407
REMARK  Name = CadmiumAcetate.pdbqt.pdb
REMARK  1 active torsions:
REMARK  status: ('A' for Active; 'I' for Inactive)
REMARK    1  A    between atoms: C_3  and  O_4
REMARK                            x       y       z     vdW  Elec       q    Type
REMARK                         _______ _______ _______ _____ _____    ______ ____
ROOT
ATOM      1  O   UNL     1      41.751 -29.593  52.647  0.00  0.00    +0.000 OA
ATOM      2  C   UNL     1      40.356 -29.079  54.402  0.00  0.00    +0.000 C 
ATOM      3  C   UNL     1      40.930 -30.028  53.428  0.00  0.00    +0.000 C 
ENDROOT
BRANCH   3   4
ATOM      4  O   UNL     1      40.490 -31.283  53.502  0.00  0.00    +0.000 OA
ATOM      5  H   UNL     1      39.818 -31.314  52.796  0.00  0.00    +0.000 HD
ENDBRANCH   3   4
TORSDOF 1
ENDMDL
MODEL 4
REMARK VINA RESULT:      -2.8     12.371     12.859
REMARK  Name = CadmiumAcetate.pdbqt.pdb
REMARK  1 active torsions:
REMARK  status: ('A' for Active; 'I' for Inactive)
REMARK    1  A    between atoms: C_3  and  O_4
REMARK                            x       y       z     vdW  Elec       q    Type
REMARK                         _______ _______ _______ _____ _____    ______ ____
ROOT
ATOM      1  O   UNL     1      46.816 -41.952  51.997  0.00  0.00    +0.000 OA
ATOM      2  C   UNL     1      48.608 -43.041  51.052  0.00  0.00    +0.000 C 
ATOM      3  C   UNL     1      47.971 -41.846  51.638  0.00  0.00    +0.000 C 
ENDROOT
BRANCH   3   4
ATOM      4  O   UNL     1      48.731 -40.756  51.719  0.00  0.00    +0.000 OA
ATOM      5  H   UNL     1      49.608 -41.123  51.936  0.00  0.00    +0.000 HD
ENDBRANCH   3   4
TORSDOF 1
ENDMDL
MODEL 5
REMARK VINA RESULT:      -2.7     11.281     11.841
REMARK  Name = CadmiumAcetate.pdbqt.pdb
REMARK  1 active torsions:
REMARK  status: ('A' for Active; 'I' for Inactive)
REMARK    1  A    between atoms: C_3  and  O_4
REMARK                            x       y       z     vdW  Elec       q    Type
REMARK                         _______ _______ _______ _____ _____    ______ ____
ROOT
ATOM      1  O   UNL     1      50.339 -24.991  52.340  0.00  0.00    +0.000 OA
ATOM      2  C   UNL     1      52.454 -24.143  52.650  0.00  0.00    +0.000 C 
ATOM      3  C   UNL     1      51.429 -25.188  52.835  0.00  0.00    +0.000 C 
ENDROOT
BRANCH   3   4
ATOM      4  O   UNL     1      51.802 -26.259  53.535  0.00  0.00    +0.000 OA
ATOM      5  H   UNL     1      50.949 -26.634  53.821  0.00  0.00    +0.000 HD
ENDBRANCH   3   4
TORSDOF 1
ENDMDL
MODEL 6
REMARK VINA RESULT:      -2.7     10.992     11.331
REMARK  Name = CadmiumAcetate.pdbqt.pdb
REMARK  1 active torsions:
REMARK  status: ('A' for Active; 'I' for Inactive)
REMARK    1  A    between atoms: C_3  and  O_4
REMARK                            x       y       z     vdW  Elec       q    Type
REMARK                         _______ _______ _______ _____ _____    ______ ____
ROOT
ATOM      1  O   UNL     1      50.439 -38.775  49.582  0.00  0.00    +0.000 OA
ATOM      2  C   UNL     1      48.365 -38.594  50.560  0.00  0.00    +0.000 C 
ATOM      3  C   UNL     1      49.838 -38.641  50.628  0.00  0.00    +0.000 C 
ENDROOT
BRANCH   3   4
ATOM      4  O   UNL     1      50.373 -38.529  51.842  0.00  0.00    +0.000 OA
ATOM      5  H   UNL     1      49.994 -37.691  52.165  0.00  0.00    +0.000 HD
ENDBRANCH   3   4
TORSDOF 1
ENDMDL
MODEL 7
REMARK VINA RESULT:      -2.7      8.181      8.571
REMARK  Name = CadmiumAcetate.pdbqt.pdb
REMARK  1 active torsions:
REMARK  status: ('A' for Active; 'I' for Inactive)
REMARK    1  A    between atoms: C_3  and  O_4
REMARK                            x       y       z     vdW  Elec       q    Type
REMARK                         _______ _______ _______ _____ _____    ______ ____
ROOT
ATOM      1  O   UNL     1      47.117 -37.714  51.187  0.00  0.00    +0.000 OA
ATOM      2  C   UNL     1      47.120 -35.513  51.850  0.00  0.00    +0.000 C 
ATOM      3  C   UNL     1      47.628 -36.896  51.922  0.00  0.00    +0.000 C 
ENDROOT
BRANCH   3   4
ATOM      4  O   UNL     1      48.610 -37.115  52.795  0.00  0.00    +0.000 OA
ATOM      5  H   UNL     1      49.325 -36.543  52.460  0.00  0.00    +0.000 HD
ENDBRANCH   3   4
TORSDOF 1
ENDMDL
MODEL 8
REMARK VINA RESULT:      -2.5     28.824     29.148
REMARK  Name = CadmiumAcetate.pdbqt.pdb
REMARK  1 active torsions:
REMARK  status: ('A' for Active; 'I' for Inactive)
REMARK    1  A    between atoms: C_3  and  O_4
REMARK                            x       y       z     vdW  Elec       q    Type
REMARK                         _______ _______ _______ _____ _____    ______ ____
ROOT
ATOM      1  O   UNL     1      43.514 -53.503  70.408  0.00  0.00    +0.000 OA
ATOM      2  C   UNL     1      45.321 -54.278  69.215  0.00  0.00    +0.000 C 
ATOM      3  C   UNL     1      43.898 -53.905  69.329  0.00  0.00    +0.000 C 
ENDROOT
BRANCH   3   4
ATOM      4  O   UNL     1      43.165 -54.046  68.227  0.00  0.00    +0.000 OA
ATOM      5  H   UNL     1      43.354 -53.224  67.739  0.00  0.00    +0.000 HD
ENDBRANCH   3   4
TORSDOF 1
ENDMDL
MODEL 9
REMARK VINA RESULT:      -2.5     13.147     13.358
REMARK  Name = CadmiumAcetate.pdbqt.pdb
REMARK  1 active torsions:
REMARK  status: ('A' for Active; 'I' for Inactive)
REMARK    1  A    between atoms: C_3  and  O_4
REMARK                            x       y       z     vdW  Elec       q    Type
REMARK                         _______ _______ _______ _____ _____    ______ ____
ROOT
ATOM      1  O   UNL     1      51.683 -23.277  52.934  0.00  0.00    +0.000 OA
ATOM      2  C   UNL     1      52.616 -23.935  50.938  0.00  0.00    +0.000 C 
ATOM      3  C   UNL     1      52.570 -23.921  52.413  0.00  0.00    +0.000 C 
ENDROOT
BRANCH   3   4
ATOM      4  O   UNL     1      53.514 -24.624  53.036  0.00  0.00    +0.000 OA
ATOM      5  H   UNL     1      54.196 -24.722  52.347  0.00  0.00    +0.000 HD
ENDBRANCH   3   4
TORSDOF 1
ENDMDL
