MODEL 1
REMARK VINA RESULT:      -8.0      0.000      0.000
REMARK  Name = Calcitriol.pdbqt.pdb
REMARK  9 active torsions:
REMARK  status: ('A' for Active; 'I' for Inactive)
REMARK    1  A    between atoms: C_2  and  C_24
REMARK    2  A    between atoms: C_7  and  C_11
REMARK    3  A    between atoms: C_12  and  C_13
REMARK    4  A    between atoms: C_16  and  O_20
REMARK    5  A    between atoms: C_18  and  O_22
REMARK    6  A    between atoms: C_24  and  C_26
REMARK    7  A    between atoms: C_27  and  C_28
REMARK    8  A    between atoms: C_28  and  C_29
REMARK    9  A    between atoms: C_29  and  O_32
REMARK                            x       y       z     vdW  Elec       q    Type
REMARK                         _______ _______ _______ _____ _____    ______ ____
ROOT
ATOM      1  C   UNL     1      48.924 -43.783  48.848  0.00  0.00    +0.000 C 
ATOM      2  C   UNL     1      48.767 -42.504  49.666  0.00  0.00    +0.000 C 
ATOM      3  C   UNL     1      48.504 -44.943  49.904  0.00  0.00    +0.000 C 
ATOM      4  C   UNL     1      48.195 -42.813  50.935  0.00  0.00    +0.000 C 
ATOM      5  C   UNL     1      48.005 -44.298  51.079  0.00  0.00    +0.000 C 
ATOM      6  C   UNL     1      50.305 -44.074  48.432  0.00  0.00    +0.000 C 
ATOM      7  C   UNL     1      49.272 -46.191  49.997  0.00  0.00    +0.000 C 
ATOM      8  C   UNL     1      47.886 -43.835  47.692  0.00  0.00    +0.000 C 
ATOM      9  C   UNL     1      51.330 -45.193  48.509  0.00  0.00    +0.000 C 
ATOM     10  C   UNL     1      50.535 -46.173  49.347  0.00  0.00    +0.000 C 
ENDROOT
BRANCH   7  11
ATOM     11  C   UNL     1      48.933 -47.207  50.726  0.00  0.00    +0.000 C 
ATOM     12  C   UNL     1      48.519 -48.410  51.582  0.00  0.00    +0.000 C 
BRANCH  12  13
ATOM     13  C   UNL     1      48.162 -49.431  52.300  0.00  0.00    +0.000 A 
ATOM     14  C   UNL     1      48.780 -50.704  52.079  0.00  0.00    +0.000 A 
ATOM     15  C   UNL     1      47.092 -49.459  53.347  0.00  0.00    +0.000 A 
ATOM     16  C   UNL     1      48.585 -51.994  52.652  0.00  0.00    +0.000 A 
ATOM     17  C   UNL     1      47.543 -51.876  53.615  0.00  0.00    +0.000 A 
ATOM     18  C   UNL     1      46.773 -50.751  54.031  0.00  0.00    +0.000 A 
ATOM     19  C   UNL     1      46.409 -48.355  53.702  0.00  0.00    +0.000 C 
BRANCH  16  20
ATOM     20  O   UNL     1      49.625 -52.862  52.813  0.00  0.00    +0.000 OA
ATOM     21  H   UNL     1      49.667 -53.501  52.082  0.00  0.00    +0.000 HD
ENDBRANCH  16  20
BRANCH  18  22
ATOM     22  O   UNL     1      45.807 -50.838  55.004  0.00  0.00    +0.000 OA
ATOM     23  H   UNL     1      45.344 -49.983  55.097  0.00  0.00    +0.000 HD
ENDBRANCH  18  22
ENDBRANCH  12  13
ENDBRANCH   7  11
BRANCH   2  24
ATOM     24  C   UNL     1      48.999 -41.181  49.178  0.00  0.00    +0.000 C 
ATOM     25  C   UNL     1      49.559 -40.897  47.808  0.00  0.00    +0.000 C 
BRANCH  24  26
ATOM     26  C   UNL     1      48.886 -40.052  50.035  0.00  0.00    +0.000 C 
ATOM     27  C   UNL     1      48.775 -38.826  50.949  0.00  0.00    +0.000 C 
BRANCH  27  28
ATOM     28  C   UNL     1      48.673 -37.593  51.856  0.00  0.00    +0.000 C 
BRANCH  28  29
ATOM     29  C   UNL     1      48.574 -36.416  52.719  0.00  0.00    +0.000 C 
ATOM     30  C   UNL     1      49.750 -35.449  52.544  0.00  0.00    +0.000 C 
ATOM     31  C   UNL     1      47.240 -35.674  52.576  0.00  0.00    +0.000 C 
BRANCH  29  32
ATOM     32  O   UNL     1      48.625 -36.829  54.066  0.00  0.00    +0.000 OA
ATOM     33  H   UNL     1      49.347 -36.256  54.363  0.00  0.00    +0.000 HD
ENDBRANCH  29  32
ENDBRANCH  28  29
ENDBRANCH  27  28
ENDBRANCH  24  26
ENDBRANCH   2  24
TORSDOF 9
ENDMDL
MODEL 2
REMARK VINA RESULT:      -7.7      2.644      4.795
REMARK  Name = Calcitriol.pdbqt.pdb
REMARK  9 active torsions:
REMARK  status: ('A' for Active; 'I' for Inactive)
REMARK    1  A    between atoms: C_2  and  C_24
REMARK    2  A    between atoms: C_7  and  C_11
REMARK    3  A    between atoms: C_12  and  C_13
REMARK    4  A    between atoms: C_16  and  O_20
REMARK    5  A    between atoms: C_18  and  O_22
REMARK    6  A    between atoms: C_24  and  C_26
REMARK    7  A    between atoms: C_27  and  C_28
REMARK    8  A    between atoms: C_28  and  C_29
REMARK    9  A    between atoms: C_29  and  O_32
REMARK                            x       y       z     vdW  Elec       q    Type
REMARK                         _______ _______ _______ _____ _____    ______ ____
ROOT
ATOM      1  C   UNL     1      48.328 -46.666  51.045  0.00  0.00    +0.000 C 
ATOM      2  C   UNL     1      49.710 -46.869  50.429  0.00  0.00    +0.000 C 
ATOM      3  C   UNL     1      48.155 -47.975  51.990  0.00  0.00    +0.000 C 
ATOM      4  C   UNL     1      50.336 -48.006  51.020  0.00  0.00    +0.000 C 
ATOM      5  C   UNL     1      49.404 -48.672  51.995  0.00  0.00    +0.000 C 
ATOM      6  C   UNL     1      47.220 -46.698  50.077  0.00  0.00    +0.000 C 
ATOM      7  C   UNL     1      46.883 -48.705  52.040  0.00  0.00    +0.000 C 
ATOM      8  C   UNL     1      48.315 -45.430  51.988  0.00  0.00    +0.000 C 
ATOM      9  C   UNL     1      45.904 -47.419  49.842  0.00  0.00    +0.000 C 
ATOM     10  C   UNL     1      45.960 -48.383  51.009  0.00  0.00    +0.000 C 
ENDROOT
BRANCH   7  11
ATOM     11  C   UNL     1      46.630 -49.682  52.853  0.00  0.00    +0.000 C 
ATOM     12  C   UNL     1      46.321 -50.844  53.805  0.00  0.00    +0.000 C 
BRANCH  12  13
ATOM     13  C   UNL     1      46.057 -51.832  54.605  0.00  0.00    +0.000 A 
ATOM     14  C   UNL     1      46.934 -52.110  55.702  0.00  0.00    +0.000 A 
ATOM     15  C   UNL     1      44.923 -52.802  54.485  0.00  0.00    +0.000 A 
ATOM     16  C   UNL     1      46.950 -53.121  56.706  0.00  0.00    +0.000 A 
ATOM     17  C   UNL     1      45.831 -53.969  56.467  0.00  0.00    +0.000 A 
ATOM     18  C   UNL     1      44.815 -53.924  55.470  0.00  0.00    +0.000 A 
ATOM     19  C   UNL     1      43.987 -52.694  53.524  0.00  0.00    +0.000 C 
BRANCH  16  20
ATOM     20  O   UNL     1      47.408 -52.863  57.965  0.00  0.00    +0.000 OA
ATOM     21  H   UNL     1      48.267 -53.289  58.121  0.00  0.00    +0.000 HD
ENDBRANCH  16  20
BRANCH  18  22
ATOM     22  O   UNL     1      43.792 -54.841  55.416  0.00  0.00    +0.000 OA
ATOM     23  H   UNL     1      43.642 -55.231  56.298  0.00  0.00    +0.000 HD
ENDBRANCH  18  22
ENDBRANCH  12  13
ENDBRANCH   7  11
BRANCH   2  24
ATOM     24  C   UNL     1      50.349 -45.967  49.525  0.00  0.00    +0.000 C 
ATOM     25  C   UNL     1      51.584 -46.328  48.739  0.00  0.00    +0.000 C 
BRANCH  24  26
ATOM     26  C   UNL     1      49.963 -44.600  49.454  0.00  0.00    +0.000 C 
ATOM     27  C   UNL     1      49.555 -43.123  49.391  0.00  0.00    +0.000 C 
BRANCH  27  28
ATOM     28  C   UNL     1      49.153 -41.644  49.340  0.00  0.00    +0.000 C 
BRANCH  28  29
ATOM     29  C   UNL     1      48.773 -40.232  49.288  0.00  0.00    +0.000 C 
ATOM     30  C   UNL     1      48.056 -39.761  50.558  0.00  0.00    +0.000 C 
ATOM     31  C   UNL     1      49.946 -39.303  48.954  0.00  0.00    +0.000 C 
BRANCH  29  32
ATOM     32  O   UNL     1      47.845 -40.046  48.243  0.00  0.00    +0.000 OA
ATOM     33  H   UNL     1      47.652 -39.108  48.389  0.00  0.00    +0.000 HD
ENDBRANCH  29  32
ENDBRANCH  28  29
ENDBRANCH  27  28
ENDBRANCH  24  26
ENDBRANCH   2  24
TORSDOF 9
ENDMDL
MODEL 3
REMARK VINA RESULT:      -7.6      5.928      7.708
REMARK  Name = Calcitriol.pdbqt.pdb
REMARK  9 active torsions:
REMARK  status: ('A' for Active; 'I' for Inactive)
REMARK    1  A    between atoms: C_2  and  C_24
REMARK    2  A    between atoms: C_7  and  C_11
REMARK    3  A    between atoms: C_12  and  C_13
REMARK    4  A    between atoms: C_16  and  O_20
REMARK    5  A    between atoms: C_18  and  O_22
REMARK    6  A    between atoms: C_24  and  C_26
REMARK    7  A    between atoms: C_27  and  C_28
REMARK    8  A    between atoms: C_28  and  C_29
REMARK    9  A    between atoms: C_29  and  O_32
REMARK                            x       y       z     vdW  Elec       q    Type
REMARK                         _______ _______ _______ _____ _____    ______ ____
ROOT
ATOM      1  C   UNL     1      48.424 -48.237  51.687  0.00  0.00    +0.000 C 
ATOM      2  C   UNL     1      48.508 -48.611  50.210  0.00  0.00    +0.000 C 
ATOM      3  C   UNL     1      48.203 -49.673  52.414  0.00  0.00    +0.000 C 
ATOM      4  C   UNL     1      48.510 -50.031  50.074  0.00  0.00    +0.000 C 
ATOM      5  C   UNL     1      48.352 -50.689  51.418  0.00  0.00    +0.000 C 
ATOM      6  C   UNL     1      47.261 -47.406  52.039  0.00  0.00    +0.000 C 
ATOM      7  C   UNL     1      47.235 -49.823  53.507  0.00  0.00    +0.000 C 
ATOM      8  C   UNL     1      49.782 -47.681  52.200  0.00  0.00    +0.000 C 
ATOM      9  C   UNL     1      46.089 -47.399  53.004  0.00  0.00    +0.000 C 
ATOM     10  C   UNL     1      46.323 -48.744  53.660  0.00  0.00    +0.000 C 
ENDROOT
BRANCH   7  11
ATOM     11  C   UNL     1      47.088 -50.900  54.213  0.00  0.00    +0.000 C 
ATOM     12  C   UNL     1      46.919 -52.182  55.037  0.00  0.00    +0.000 C 
BRANCH  12  13
ATOM     13  C   UNL     1      46.782 -53.271  55.730  0.00  0.00    +0.000 A 
ATOM     14  C   UNL     1      47.015 -53.246  57.143  0.00  0.00    +0.000 A 
ATOM     15  C   UNL     1      46.450 -54.632  55.202  0.00  0.00    +0.000 A 
ATOM     16  C   UNL     1      46.995 -54.252  58.151  0.00  0.00    +0.000 A 
ATOM     17  C   UNL     1      46.676 -55.484  57.513  0.00  0.00    +0.000 A 
ATOM     18  C   UNL     1      46.399 -55.790  56.149  0.00  0.00    +0.000 A 
ATOM     19  C   UNL     1      46.185 -54.850  53.901  0.00  0.00    +0.000 C 
BRANCH  16  20
ATOM     20  O   UNL     1      46.592 -53.971  59.425  0.00  0.00    +0.000 OA
ATOM     21  H   UNL     1      46.769 -54.716  60.023  0.00  0.00    +0.000 HD
ENDBRANCH  16  20
BRANCH  18  22
ATOM     22  O   UNL     1      46.091 -57.061  55.725  0.00  0.00    +0.000 OA
ATOM     23  H   UNL     1      46.838 -57.665  55.902  0.00  0.00    +0.000 HD
ENDBRANCH  18  22
ENDBRANCH  12  13
ENDBRANCH   7  11
BRANCH   2  24
ATOM     24  C   UNL     1      48.723 -47.692  49.139  0.00  0.00    +0.000 C 
ATOM     25  C   UNL     1      47.615 -47.196  48.246  0.00  0.00    +0.000 C 
BRANCH  24  26
ATOM     26  C   UNL     1      50.037 -47.332  48.732  0.00  0.00    +0.000 C 
ATOM     27  C   UNL     1      51.458 -46.939  48.309  0.00  0.00    +0.000 C 
BRANCH  27  28
ATOM     28  C   UNL     1      52.882 -46.541  47.899  0.00  0.00    +0.000 C 
BRANCH  28  29
ATOM     29  C   UNL     1      54.241 -46.165  47.510  0.00  0.00    +0.000 C 
ATOM     30  C   UNL     1      54.978 -47.285  46.767  0.00  0.00    +0.000 C 
ATOM     31  C   UNL     1      54.300 -44.858  46.712  0.00  0.00    +0.000 C 
BRANCH  29  32
ATOM     32  O   UNL     1      55.001 -45.923  48.673  0.00  0.00    +0.000 OA
ATOM     33  H   UNL     1      55.173 -44.980  48.537  0.00  0.00    +0.000 HD
ENDBRANCH  29  32
ENDBRANCH  28  29
ENDBRANCH  27  28
ENDBRANCH  24  26
ENDBRANCH   2  24
TORSDOF 9
ENDMDL
MODEL 4
REMARK VINA RESULT:      -7.5      1.791     10.807
REMARK  Name = Calcitriol.pdbqt.pdb
REMARK  9 active torsions:
REMARK  status: ('A' for Active; 'I' for Inactive)
REMARK    1  A    between atoms: C_2  and  C_24
REMARK    2  A    between atoms: C_7  and  C_11
REMARK    3  A    between atoms: C_12  and  C_13
REMARK    4  A    between atoms: C_16  and  O_20
REMARK    5  A    between atoms: C_18  and  O_22
REMARK    6  A    between atoms: C_24  and  C_26
REMARK    7  A    between atoms: C_27  and  C_28
REMARK    8  A    between atoms: C_28  and  C_29
REMARK    9  A    between atoms: C_29  and  O_32
REMARK                            x       y       z     vdW  Elec       q    Type
REMARK                         _______ _______ _______ _____ _____    ______ ____
ROOT
ATOM      1  C   UNL     1      48.379 -45.446  49.791  0.00  0.00    +0.000 C 
ATOM      2  C   UNL     1      49.674 -46.018  49.221  0.00  0.00    +0.000 C 
ATOM      3  C   UNL     1      48.599 -43.843  49.654  0.00  0.00    +0.000 C 
ATOM      4  C   UNL     1      50.467 -44.963  48.680  0.00  0.00    +0.000 C 
ATOM      5  C   UNL     1      49.805 -43.634  48.915  0.00  0.00    +0.000 C 
ATOM      6  C   UNL     1      48.171 -45.720  51.222  0.00  0.00    +0.000 C 
ATOM      7  C   UNL     1      48.211 -42.935  50.740  0.00  0.00    +0.000 C 
ATOM      8  C   UNL     1      47.165 -45.810  48.890  0.00  0.00    +0.000 C 
ATOM      9  C   UNL     1      47.888 -44.979  52.517  0.00  0.00    +0.000 C 
ATOM     10  C   UNL     1      47.936 -43.562  51.985  0.00  0.00    +0.000 C 
ENDROOT
BRANCH   7  11
ATOM     11  C   UNL     1      48.244 -41.641  50.661  0.00  0.00    +0.000 C 
ATOM     12  C   UNL     1      48.296 -40.111  50.573  0.00  0.00    +0.000 C 
BRANCH  12  13
ATOM     13  C   UNL     1      48.349 -38.816  50.500  0.00  0.00    +0.000 A 
ATOM     14  C   UNL     1      47.937 -38.026  51.621  0.00  0.00    +0.000 A 
ATOM     15  C   UNL     1      48.754 -38.002  49.310  0.00  0.00    +0.000 A 
ATOM     16  C   UNL     1      47.834 -36.621  51.838  0.00  0.00    +0.000 A 
ATOM     17  C   UNL     1      48.239 -35.978  50.634  0.00  0.00    +0.000 A 
ATOM     18  C   UNL     1      48.690 -36.509  49.392  0.00  0.00    +0.000 A 
ATOM     19  C   UNL     1      49.184 -38.569  48.168  0.00  0.00    +0.000 C 
BRANCH  16  20
ATOM     20  O   UNL     1      48.069 -36.075  53.066  0.00  0.00    +0.000 OA
ATOM     21  H   UNL     1      48.453 -36.728  53.675  0.00  0.00    +0.000 HD
ENDBRANCH  16  20
BRANCH  18  22
ATOM     22  O   UNL     1      49.057 -35.709  48.336  0.00  0.00    +0.000 OA
ATOM     23  H   UNL     1      49.825 -36.094  47.872  0.00  0.00    +0.000 HD
ENDBRANCH  18  22
ENDBRANCH  12  13
ENDBRANCH   7  11
BRANCH   2  24
ATOM     24  C   UNL     1      49.975 -47.409  49.094  0.00  0.00    +0.000 C 
ATOM     25  C   UNL     1      50.689 -47.990  47.901  0.00  0.00    +0.000 C 
BRANCH  24  26
ATOM     26  C   UNL     1      49.447 -48.361  50.009  0.00  0.00    +0.000 C 
ATOM     27  C   UNL     1      48.863 -49.384  50.991  0.00  0.00    +0.000 C 
BRANCH  27  28
ATOM     28  C   UNL     1      48.266 -50.404  51.969  0.00  0.00    +0.000 C 
BRANCH  28  29
ATOM     29  C   UNL     1      47.694 -51.377  52.899  0.00  0.00    +0.000 C 
ATOM     30  C   UNL     1      48.647 -52.538  53.207  0.00  0.00    +0.000 C 
ATOM     31  C   UNL     1      47.179 -50.742  54.196  0.00  0.00    +0.000 C 
BRANCH  29  32
ATOM     32  O   UNL     1      46.561 -51.970  52.303  0.00  0.00    +0.000 OA
ATOM     33  H   UNL     1      45.938 -51.238  52.421  0.00  0.00    +0.000 HD
ENDBRANCH  29  32
ENDBRANCH  28  29
ENDBRANCH  27  28
ENDBRANCH  24  26
ENDBRANCH   2  24
TORSDOF 9
ENDMDL
MODEL 5
REMARK VINA RESULT:      -7.3      3.517      6.974
REMARK  Name = Calcitriol.pdbqt.pdb
REMARK  9 active torsions:
REMARK  status: ('A' for Active; 'I' for Inactive)
REMARK    1  A    between atoms: C_2  and  C_24
REMARK    2  A    between atoms: C_7  and  C_11
REMARK    3  A    between atoms: C_12  and  C_13
REMARK    4  A    between atoms: C_16  and  O_20
REMARK    5  A    between atoms: C_18  and  O_22
REMARK    6  A    between atoms: C_24  and  C_26
REMARK    7  A    between atoms: C_27  and  C_28
REMARK    8  A    between atoms: C_28  and  C_29
REMARK    9  A    between atoms: C_29  and  O_32
REMARK                            x       y       z     vdW  Elec       q    Type
REMARK                         _______ _______ _______ _____ _____    ______ ____
ROOT
ATOM      1  C   UNL     1      46.310 -49.055  51.977  0.00  0.00    +0.000 C 
ATOM      2  C   UNL     1      47.477 -48.882  51.009  0.00  0.00    +0.000 C 
ATOM      3  C   UNL     1      46.932 -50.017  53.128  0.00  0.00    +0.000 C 
ATOM      4  C   UNL     1      48.647 -49.489  51.555  0.00  0.00    +0.000 C 
ATOM      5  C   UNL     1      48.330 -50.161  52.863  0.00  0.00    +0.000 C 
ATOM      6  C   UNL     1      45.152 -49.768  51.414  0.00  0.00    +0.000 C 
ATOM      7  C   UNL     1      46.150 -51.129  53.682  0.00  0.00    +0.000 C 
ATOM      8  C   UNL     1      45.954 -47.707  52.666  0.00  0.00    +0.000 C 
ATOM      9  C   UNL     1      44.269 -50.966  51.714  0.00  0.00    +0.000 C 
ATOM     10  C   UNL     1      44.986 -51.477  52.947  0.00  0.00    +0.000 C 
ENDROOT
BRANCH   7  11
ATOM     11  C   UNL     1      46.528 -51.865  54.681  0.00  0.00    +0.000 C 
ATOM     12  C   UNL     1      46.984 -52.742  55.853  0.00  0.00    +0.000 C 
BRANCH  12  13
ATOM     13  C   UNL     1      47.378 -53.487  56.841  0.00  0.00    +0.000 A 
ATOM     14  C   UNL     1      46.431 -53.918  57.824  0.00  0.00    +0.000 A 
ATOM     15  C   UNL     1      48.781 -53.927  57.126  0.00  0.00    +0.000 A 
ATOM     16  C   UNL     1      46.549 -54.683  59.021  0.00  0.00    +0.000 A 
ATOM     17  C   UNL     1      47.923 -55.024  59.170  0.00  0.00    +0.000 A 
ATOM     18  C   UNL     1      49.056 -54.734  58.356  0.00  0.00    +0.000 A 
ATOM     19  C   UNL     1      49.805 -53.629  56.306  0.00  0.00    +0.000 C 
BRANCH  16  20
ATOM     20  O   UNL     1      45.547 -55.513  59.433  0.00  0.00    +0.000 OA
ATOM     21  H   UNL     1      45.897 -56.376  59.711  0.00  0.00    +0.000 HD
ENDBRANCH  16  20
BRANCH  18  22
ATOM     22  O   UNL     1      50.320 -55.174  58.667  0.00  0.00    +0.000 OA
ATOM     23  H   UNL     1      50.675 -54.673  59.427  0.00  0.00    +0.000 HD
ENDBRANCH  18  22
ENDBRANCH  12  13
ENDBRANCH   7  11
BRANCH   2  24
ATOM     24  C   UNL     1      47.451 -48.092  49.820  0.00  0.00    +0.000 C 
ATOM     25  C   UNL     1      47.405 -48.690  48.437  0.00  0.00    +0.000 C 
BRANCH  24  26
ATOM     26  C   UNL     1      47.656 -46.686  49.867  0.00  0.00    +0.000 C 
ATOM     27  C   UNL     1      47.872 -45.169  49.934  0.00  0.00    +0.000 C 
BRANCH  27  28
ATOM     28  C   UNL     1      48.085 -43.652  50.015  0.00  0.00    +0.000 C 
BRANCH  28  29
ATOM     29  C   UNL     1      48.285 -42.205  50.095  0.00  0.00    +0.000 C 
ATOM     30  C   UNL     1      47.536 -41.439  48.999  0.00  0.00    +0.000 C 
ATOM     31  C   UNL     1      47.961 -41.627  51.477  0.00  0.00    +0.000 C 
BRANCH  29  32
ATOM     32  O   UNL     1      49.650 -41.919  49.886  0.00  0.00    +0.000 OA
ATOM     33  H   UNL     1      50.024 -42.734  50.253  0.00  0.00    +0.000 HD
ENDBRANCH  29  32
ENDBRANCH  28  29
ENDBRANCH  27  28
ENDBRANCH  24  26
ENDBRANCH   2  24
TORSDOF 9
ENDMDL
MODEL 6
REMARK VINA RESULT:      -7.3      5.064     10.435
REMARK  Name = Calcitriol.pdbqt.pdb
REMARK  9 active torsions:
REMARK  status: ('A' for Active; 'I' for Inactive)
REMARK    1  A    between atoms: C_2  and  C_24
REMARK    2  A    between atoms: C_7  and  C_11
REMARK    3  A    between atoms: C_12  and  C_13
REMARK    4  A    between atoms: C_16  and  O_20
REMARK    5  A    between atoms: C_18  and  O_22
REMARK    6  A    between atoms: C_24  and  C_26
REMARK    7  A    between atoms: C_27  and  C_28
REMARK    8  A    between atoms: C_28  and  C_29
REMARK    9  A    between atoms: C_29  and  O_32
REMARK                            x       y       z     vdW  Elec       q    Type
REMARK                         _______ _______ _______ _____ _____    ______ ____
ROOT
ATOM      1  C   UNL     1      48.274 -46.784  51.338  0.00  0.00    +0.000 C 
ATOM      2  C   UNL     1      46.953 -47.260  50.739  0.00  0.00    +0.000 C 
ATOM      3  C   UNL     1      49.107 -46.290  50.034  0.00  0.00    +0.000 C 
ATOM      4  C   UNL     1      46.920 -46.955  49.346  0.00  0.00    +0.000 C 
ATOM      5  C   UNL     1      48.221 -46.336  48.912  0.00  0.00    +0.000 C 
ATOM      6  C   UNL     1      49.074 -47.846  51.968  0.00  0.00    +0.000 C 
ATOM      7  C   UNL     1      50.531 -46.609  49.885  0.00  0.00    +0.000 C 
ATOM      8  C   UNL     1      48.060 -45.531  52.233  0.00  0.00    +0.000 C 
ATOM      9  C   UNL     1      50.471 -48.438  51.908  0.00  0.00    +0.000 C 
ATOM     10  C   UNL     1      51.024 -47.605  50.770  0.00  0.00    +0.000 C 
ENDROOT
BRANCH   7  11
ATOM     11  C   UNL     1      51.290 -46.153  48.938  0.00  0.00    +0.000 C 
ATOM     12  C   UNL     1      52.197 -45.622  47.822  0.00  0.00    +0.000 C 
BRANCH  12  13
ATOM     13  C   UNL     1      52.971 -45.180  46.877  0.00  0.00    +0.000 A 
ATOM     14  C   UNL     1      52.485 -45.124  45.531  0.00  0.00    +0.000 A 
ATOM     15  C   UNL     1      54.399 -44.752  47.016  0.00  0.00    +0.000 A 
ATOM     16  C   UNL     1      53.082 -44.744  44.295  0.00  0.00    +0.000 A 
ATOM     17  C   UNL     1      54.428 -44.372  44.572  0.00  0.00    +0.000 A 
ATOM     18  C   UNL     1      55.156 -44.331  45.796  0.00  0.00    +0.000 A 
ATOM     19  C   UNL     1      55.025 -44.724  48.207  0.00  0.00    +0.000 C 
BRANCH  16  20
ATOM     20  O   UNL     1      52.352 -44.142  43.311  0.00  0.00    +0.000 OA
ATOM     21  H   UNL     1      51.498 -43.824  43.650  0.00  0.00    +0.000 HD
ENDBRANCH  16  20
BRANCH  18  22
ATOM     22  O   UNL     1      56.466 -43.920  45.861  0.00  0.00    +0.000 OA
ATOM     23  H   UNL     1      56.723 -43.477  45.030  0.00  0.00    +0.000 HD
ENDBRANCH  18  22
ENDBRANCH  12  13
ENDBRANCH   7  11
BRANCH   2  24
ATOM     24  C   UNL     1      45.850 -47.777  51.485  0.00  0.00    +0.000 C 
ATOM     25  C   UNL     1      44.532 -47.057  51.609  0.00  0.00    +0.000 C 
BRANCH  24  26
ATOM     26  C   UNL     1      45.996 -48.924  52.313  0.00  0.00    +0.000 C 
ATOM     27  C   UNL     1      46.158 -50.151  53.219  0.00  0.00    +0.000 C 
BRANCH  27  28
ATOM     28  C   UNL     1      46.324 -51.369  54.136  0.00  0.00    +0.000 C 
BRANCH  28  29
ATOM     29  C   UNL     1      46.480 -52.534  55.007  0.00  0.00    +0.000 C 
ATOM     30  C   UNL     1      45.167 -53.297  55.222  0.00  0.00    +0.000 C 
ATOM     31  C   UNL     1      47.589 -53.487  54.548  0.00  0.00    +0.000 C 
BRANCH  29  32
ATOM     32  O   UNL     1      46.874 -52.098  56.289  0.00  0.00    +0.000 OA
ATOM     33  H   UNL     1      47.495 -52.812  56.498  0.00  0.00    +0.000 HD
ENDBRANCH  29  32
ENDBRANCH  28  29
ENDBRANCH  27  28
ENDBRANCH  24  26
ENDBRANCH   2  24
TORSDOF 9
ENDMDL
MODEL 7
REMARK VINA RESULT:      -7.2      4.336     10.411
REMARK  Name = Calcitriol.pdbqt.pdb
REMARK  9 active torsions:
REMARK  status: ('A' for Active; 'I' for Inactive)
REMARK    1  A    between atoms: C_2  and  C_24
REMARK    2  A    between atoms: C_7  and  C_11
REMARK    3  A    between atoms: C_12  and  C_13
REMARK    4  A    between atoms: C_16  and  O_20
REMARK    5  A    between atoms: C_18  and  O_22
REMARK    6  A    between atoms: C_24  and  C_26
REMARK    7  A    between atoms: C_27  and  C_28
REMARK    8  A    between atoms: C_28  and  C_29
REMARK    9  A    between atoms: C_29  and  O_32
REMARK                            x       y       z     vdW  Elec       q    Type
REMARK                         _______ _______ _______ _____ _____    ______ ____
ROOT
ATOM      1  C   UNL     1      47.667 -46.662  50.523  0.00  0.00    +0.000 C 
ATOM      2  C   UNL     1      47.792 -47.693  51.641  0.00  0.00    +0.000 C 
ATOM      3  C   UNL     1      49.052 -46.851  49.698  0.00  0.00    +0.000 C 
ATOM      4  C   UNL     1      48.962 -48.483  51.437  0.00  0.00    +0.000 C 
ATOM      5  C   UNL     1      49.724 -47.994  50.236  0.00  0.00    +0.000 C 
ATOM      6  C   UNL     1      47.640 -45.264  50.983  0.00  0.00    +0.000 C 
ATOM      7  C   UNL     1      49.808 -45.688  49.219  0.00  0.00    +0.000 C 
ATOM      8  C   UNL     1      46.513 -47.034  49.549  0.00  0.00    +0.000 C 
ATOM      9  C   UNL     1      48.364 -43.950  50.748  0.00  0.00    +0.000 C 
ATOM     10  C   UNL     1      49.420 -44.442  49.779  0.00  0.00    +0.000 C 
ENDROOT
BRANCH   7  11
ATOM     11  C   UNL     1      50.854 -45.756  48.456  0.00  0.00    +0.000 C 
ATOM     12  C   UNL     1      52.095 -45.849  47.560  0.00  0.00    +0.000 C 
BRANCH  12  13
ATOM     13  C   UNL     1      53.148 -45.936  46.805  0.00  0.00    +0.000 A 
ATOM     14  C   UNL     1      54.016 -44.805  46.666  0.00  0.00    +0.000 A 
ATOM     15  C   UNL     1      53.559 -47.112  45.974  0.00  0.00    +0.000 A 
ATOM     16  C   UNL     1      55.193 -44.569  45.899  0.00  0.00    +0.000 A 
ATOM     17  C   UNL     1      55.460 -45.756  45.160  0.00  0.00    +0.000 A 
ATOM     18  C   UNL     1      54.777 -47.005  45.111  0.00  0.00    +0.000 A 
ATOM     19  C   UNL     1      52.874 -48.270  45.984  0.00  0.00    +0.000 C 
BRANCH  16  20
ATOM     20  O   UNL     1      56.193 -43.765  46.365  0.00  0.00    +0.000 OA
ATOM     21  H   UNL     1      56.036 -43.508  47.289  0.00  0.00    +0.000 HD
ENDBRANCH  16  20
BRANCH  18  22
ATOM     22  O   UNL     1      55.208 -48.052  44.333  0.00  0.00    +0.000 OA
ATOM     23  H   UNL     1      55.689 -47.717  43.551  0.00  0.00    +0.000 HD
ENDBRANCH  18  22
ENDBRANCH  12  13
ENDBRANCH   7  11
BRANCH   2  24
ATOM     24  C   UNL     1      46.806 -47.944  52.644  0.00  0.00    +0.000 C 
ATOM     25  C   UNL     1      45.783 -46.920  53.066  0.00  0.00    +0.000 C 
BRANCH  24  26
ATOM     26  C   UNL     1      46.851 -49.121  53.440  0.00  0.00    +0.000 C 
ATOM     27  C   UNL     1      46.912 -50.397  54.290  0.00  0.00    +0.000 C 
BRANCH  27  28
ATOM     28  C   UNL     1      46.983 -51.678  55.130  0.00  0.00    +0.000 C 
BRANCH  28  29
ATOM     29  C   UNL     1      47.054 -52.900  55.931  0.00  0.00    +0.000 C 
ATOM     30  C   UNL     1      45.800 -53.772  55.798  0.00  0.00    +0.000 C 
ATOM     31  C   UNL     1      48.317 -53.726  55.660  0.00  0.00    +0.000 C 
BRANCH  29  32
ATOM     32  O   UNL     1      47.126 -52.551  57.295  0.00  0.00    +0.000 OA
ATOM     33  H   UNL     1      48.076 -52.682  57.426  0.00  0.00    +0.000 HD
ENDBRANCH  29  32
ENDBRANCH  28  29
ENDBRANCH  27  28
ENDBRANCH  24  26
ENDBRANCH   2  24
TORSDOF 9
ENDMDL
MODEL 8
REMARK VINA RESULT:      -7.2      2.877      5.651
REMARK  Name = Calcitriol.pdbqt.pdb
REMARK  9 active torsions:
REMARK  status: ('A' for Active; 'I' for Inactive)
REMARK    1  A    between atoms: C_2  and  C_24
REMARK    2  A    between atoms: C_7  and  C_11
REMARK    3  A    between atoms: C_12  and  C_13
REMARK    4  A    between atoms: C_16  and  O_20
REMARK    5  A    between atoms: C_18  and  O_22
REMARK    6  A    between atoms: C_24  and  C_26
REMARK    7  A    between atoms: C_27  and  C_28
REMARK    8  A    between atoms: C_28  and  C_29
REMARK    9  A    between atoms: C_29  and  O_32
REMARK                            x       y       z     vdW  Elec       q    Type
REMARK                         _______ _______ _______ _____ _____    ______ ____
ROOT
ATOM      1  C   UNL     1      48.811 -47.679  51.573  0.00  0.00    +0.000 C 
ATOM      2  C   UNL     1      49.106 -48.002  50.111  0.00  0.00    +0.000 C 
ATOM      3  C   UNL     1      48.181 -49.069  52.131  0.00  0.00    +0.000 C 
ATOM      4  C   UNL     1      48.860 -49.385  49.865  0.00  0.00    +0.000 C 
ATOM      5  C   UNL     1      48.321 -50.051  51.101  0.00  0.00    +0.000 C 
ATOM      6  C   UNL     1      47.784 -46.644  51.773  0.00  0.00    +0.000 C 
ATOM      7  C   UNL     1      47.009 -49.063  53.015  0.00  0.00    +0.000 C 
ATOM      8  C   UNL     1      50.125 -47.434  52.366  0.00  0.00    +0.000 C 
ATOM      9  C   UNL     1      46.471 -46.437  52.506  0.00  0.00    +0.000 C 
ATOM     10  C   UNL     1      46.310 -47.829  53.085  0.00  0.00    +0.000 C 
ENDROOT
BRANCH   7  11
ATOM     11  C   UNL     1      46.523 -50.116  53.594  0.00  0.00    +0.000 C 
ATOM     12  C   UNL     1      45.955 -51.357  54.292  0.00  0.00    +0.000 C 
BRANCH  12  13
ATOM     13  C   UNL     1      45.475 -52.405  54.891  0.00  0.00    +0.000 A 
ATOM     14  C   UNL     1      44.132 -52.821  54.622  0.00  0.00    +0.000 A 
ATOM     15  C   UNL     1      46.167 -53.242  55.922  0.00  0.00    +0.000 A 
ATOM     16  C   UNL     1      43.316 -53.871  55.135  0.00  0.00    +0.000 A 
ATOM     17  C   UNL     1      44.091 -54.574  56.101  0.00  0.00    +0.000 A 
ATOM     18  C   UNL     1      45.427 -54.379  56.553  0.00  0.00    +0.000 A 
ATOM     19  C   UNL     1      47.439 -53.012  56.295  0.00  0.00    +0.000 C 
BRANCH  16  20
ATOM     20  O   UNL     1      42.394 -54.499  54.350  0.00  0.00    +0.000 OA
ATOM     21  H   UNL     1      41.824 -55.086  54.875  0.00  0.00    +0.000 HD
ENDBRANCH  16  20
BRANCH  18  22
ATOM     22  O   UNL     1      46.012 -55.188  57.499  0.00  0.00    +0.000 OA
ATOM     23  H   UNL     1      45.403 -55.910  57.749  0.00  0.00    +0.000 HD
ENDBRANCH  18  22
ENDBRANCH  12  13
ENDBRANCH   7  11
BRANCH   2  24
ATOM     24  C   UNL     1      49.698 -47.101  49.172  0.00  0.00    +0.000 C 
ATOM     25  C   UNL     1      50.748 -47.525  48.177  0.00  0.00    +0.000 C 
BRANCH  24  26
ATOM     26  C   UNL     1      49.463 -45.701  49.249  0.00  0.00    +0.000 C 
ATOM     27  C   UNL     1      49.212 -44.191  49.347  0.00  0.00    +0.000 C 
BRANCH  27  28
ATOM     28  C   UNL     1      48.961 -42.682  49.460  0.00  0.00    +0.000 C 
BRANCH  28  29
ATOM     29  C   UNL     1      48.719 -41.244  49.566  0.00  0.00    +0.000 C 
ATOM     30  C   UNL     1      47.999 -40.669  48.340  0.00  0.00    +0.000 C 
ATOM     31  C   UNL     1      47.989 -40.848  50.855  0.00  0.00    +0.000 C 
BRANCH  29  32
ATOM     32  O   UNL     1      49.958 -40.573  49.622  0.00  0.00    +0.000 OA
ATOM     33  H   UNL     1      50.486 -41.281  50.019  0.00  0.00    +0.000 HD
ENDBRANCH  29  32
ENDBRANCH  28  29
ENDBRANCH  27  28
ENDBRANCH  24  26
ENDBRANCH   2  24
TORSDOF 9
ENDMDL
MODEL 9
REMARK VINA RESULT:      -7.1      8.244     13.110
REMARK  Name = Calcitriol.pdbqt.pdb
REMARK  9 active torsions:
REMARK  status: ('A' for Active; 'I' for Inactive)
REMARK    1  A    between atoms: C_2  and  C_24
REMARK    2  A    between atoms: C_7  and  C_11
REMARK    3  A    between atoms: C_12  and  C_13
REMARK    4  A    between atoms: C_16  and  O_20
REMARK    5  A    between atoms: C_18  and  O_22
REMARK    6  A    between atoms: C_24  and  C_26
REMARK    7  A    between atoms: C_27  and  C_28
REMARK    8  A    between atoms: C_28  and  C_29
REMARK    9  A    between atoms: C_29  and  O_32
REMARK                            x       y       z     vdW  Elec       q    Type
REMARK                         _______ _______ _______ _____ _____    ______ ____
ROOT
ATOM      1  C   UNL     1      50.834 -32.027  44.804  0.00  0.00    +0.000 C 
ATOM      2  C   UNL     1      51.956 -31.141  45.338  0.00  0.00    +0.000 C 
ATOM      3  C   UNL     1      50.483 -32.975  46.075  0.00  0.00    +0.000 C 
ATOM      4  C   UNL     1      52.139 -31.386  46.731  0.00  0.00    +0.000 C 
ATOM      5  C   UNL     1      51.224 -32.486  47.196  0.00  0.00    +0.000 C 
ATOM      6  C   UNL     1      51.237 -32.926  43.710  0.00  0.00    +0.000 C 
ATOM      7  C   UNL     1      50.239 -34.412  45.899  0.00  0.00    +0.000 C 
ATOM      8  C   UNL     1      49.558 -31.191  44.503  0.00  0.00    +0.000 C 
ATOM      9  C   UNL     1      51.212 -34.401  43.351  0.00  0.00    +0.000 C 
ATOM     10  C   UNL     1      50.628 -34.941  44.640  0.00  0.00    +0.000 C 
ENDROOT
BRANCH   7  11
ATOM     11  C   UNL     1      49.839 -35.208  46.840  0.00  0.00    +0.000 C 
ATOM     12  C   UNL     1      49.365 -36.138  47.963  0.00  0.00    +0.000 C 
BRANCH  12  13
ATOM     13  C   UNL     1      48.960 -36.919  48.918  0.00  0.00    +0.000 A 
ATOM     14  C   UNL     1      48.137 -36.391  49.964  0.00  0.00    +0.000 A 
ATOM     15  C   UNL     1      49.309 -38.364  49.103  0.00  0.00    +0.000 A 
ATOM     16  C   UNL     1      47.580 -36.958  51.147  0.00  0.00    +0.000 A 
ATOM     17  C   UNL     1      47.996 -38.319  51.198  0.00  0.00    +0.000 A 
ATOM     18  C   UNL     1      48.798 -39.089  50.308  0.00  0.00    +0.000 A 
ATOM     19  C   UNL     1      50.063 -39.037  48.215  0.00  0.00    +0.000 C 
BRANCH  16  20
ATOM     20  O   UNL     1      46.368 -36.552  51.624  0.00  0.00    +0.000 OA
ATOM     21  H   UNL     1      46.342 -35.588  51.747  0.00  0.00    +0.000 HD
ENDBRANCH  16  20
BRANCH  18  22
ATOM     22  O   UNL     1      49.078 -40.417  50.527  0.00  0.00    +0.000 OA
ATOM     23  H   UNL     1      49.660 -40.760  49.822  0.00  0.00    +0.000 HD
ENDBRANCH  18  22
ENDBRANCH  12  13
ENDBRANCH   7  11
BRANCH   2  24
ATOM     24  C   UNL     1      52.608 -30.105  44.602  0.00  0.00    +0.000 C 
ATOM     25  C   UNL     1      53.196 -30.317  43.230  0.00  0.00    +0.000 C 
BRANCH  24  26
ATOM     26  C   UNL     1      52.907 -28.853  45.204  0.00  0.00    +0.000 C 
ATOM     27  C   UNL     1      53.246 -27.504  45.851  0.00  0.00    +0.000 C 
BRANCH  27  28
ATOM     28  C   UNL     1      53.599 -26.158  46.496  0.00  0.00    +0.000 C 
BRANCH  28  29
ATOM     29  C   UNL     1      53.931 -24.874  47.114  0.00  0.00    +0.000 C 
ATOM     30  C   UNL     1      54.869 -24.023  46.250  0.00  0.00    +0.000 C 
ATOM     31  C   UNL     1      52.696 -24.066  47.529  0.00  0.00    +0.000 C 
BRANCH  29  32
ATOM     32  O   UNL     1      54.637 -25.111  48.312  0.00  0.00    +0.000 OA
ATOM     33  H   UNL     1      54.473 -24.260  48.745  0.00  0.00    +0.000 HD
ENDBRANCH  29  32
ENDBRANCH  28  29
ENDBRANCH  27  28
ENDBRANCH  24  26
ENDBRANCH   2  24
TORSDOF 9
ENDMDL
