MODEL 1
REMARK VINA RESULT:      -7.4      0.000      0.000
REMARK  Name = CHEMBL35349.pdbqt.pdb
REMARK  2 active torsions:
REMARK  status: ('A' for Active; 'I' for Inactive)
REMARK    1  A    between atoms: C_2  and  C_11
REMARK    2  A    between atoms: C_5  and  O_21
REMARK                            x       y       z     vdW  Elec       q    Type
REMARK                         _______ _______ _______ _____ _____    ______ ____
ROOT
ATOM      1  N   UNL     1      48.644 -38.444  49.562  0.00  0.00    +0.000 N 
ATOM      2  C   UNL     1      48.657 -40.675  49.646  0.00  0.00    +0.000 A 
ATOM      3  C   UNL     1      49.038 -40.247  48.327  0.00  0.00    +0.000 A 
ATOM      4  C   UNL     1      49.019 -38.854  48.309  0.00  0.00    +0.000 A 
ATOM      5  C   UNL     1      48.422 -39.521  50.378  0.00  0.00    +0.000 A 
ATOM      6  C   UNL     1      49.397 -40.921  47.142  0.00  0.00    +0.000 A 
ATOM      7  C   UNL     1      49.339 -38.096  47.177  0.00  0.00    +0.000 A 
ATOM      8  C   UNL     1      49.721 -40.186  46.001  0.00  0.00    +0.000 A 
ATOM      9  C   UNL     1      49.691 -38.796  46.023  0.00  0.00    +0.000 A 
ATOM     10  H   UNL     1      48.542 -37.484  49.857  0.00  0.00    +0.000 HD
ENDROOT
BRANCH   2  11
ATOM     11  C   UNL     1      48.541 -42.038  50.115  0.00  0.00    +0.000 C 
ATOM     12  N   UNL     1      49.215 -43.023  49.580  0.00  0.00    +0.000 NA
ATOM     13  C   UNL     1      48.850 -44.186  50.289  0.00  0.00    +0.000 A 
ATOM     14  C   UNL     1      47.923 -43.962  51.304  0.00  0.00    +0.000 A 
ATOM     15  C   UNL     1      49.318 -45.467  50.066  0.00  0.00    +0.000 A 
ATOM     16  C   UNL     1      47.661 -42.538  51.256  0.00  0.00    +0.000 C 
ATOM     17  C   UNL     1      47.422 -44.947  52.126  0.00  0.00    +0.000 A 
ATOM     18  O   UNL     1      46.922 -41.871  51.943  0.00  0.00    +0.000 OA
ATOM     19  C   UNL     1      47.896 -46.237  51.898  0.00  0.00    +0.000 A 
ATOM     20  C   UNL     1      48.831 -46.496  50.881  0.00  0.00    +0.000 A 
ENDBRANCH   2  11
BRANCH   5  21
ATOM     21  O   UNL     1      48.050 -39.275  51.629  0.00  0.00    +0.000 OA
ATOM     22  H   UNL     1      47.088 -39.450  51.738  0.00  0.00    +0.000 HD
ENDBRANCH   5  21
TORSDOF 2
ENDMDL
MODEL 2
REMARK VINA RESULT:      -7.3      1.671      2.628
REMARK  Name = CHEMBL35349.pdbqt.pdb
REMARK  2 active torsions:
REMARK  status: ('A' for Active; 'I' for Inactive)
REMARK    1  A    between atoms: C_2  and  C_11
REMARK    2  A    between atoms: C_5  and  O_21
REMARK                            x       y       z     vdW  Elec       q    Type
REMARK                         _______ _______ _______ _____ _____    ______ ____
ROOT
ATOM      1  N   UNL     1      48.617 -38.755  47.727  0.00  0.00    +0.000 N 
ATOM      2  C   UNL     1      48.589 -40.440  49.191  0.00  0.00    +0.000 A 
ATOM      3  C   UNL     1      48.723 -39.196  49.901  0.00  0.00    +0.000 A 
ATOM      4  C   UNL     1      48.738 -38.169  48.960  0.00  0.00    +0.000 A 
ATOM      5  C   UNL     1      48.527 -40.116  47.844  0.00  0.00    +0.000 A 
ATOM      6  C   UNL     1      48.834 -38.852  51.263  0.00  0.00    +0.000 A 
ATOM      7  C   UNL     1      48.857 -36.817  49.301  0.00  0.00    +0.000 A 
ATOM      8  C   UNL     1      48.953 -37.509  51.627  0.00  0.00    +0.000 A 
ATOM      9  C   UNL     1      48.964 -36.512  50.659  0.00  0.00    +0.000 A 
ATOM     10  H   UNL     1      48.597 -38.264  46.845  0.00  0.00    +0.000 HD
ENDROOT
BRANCH   2  11
ATOM     11  C   UNL     1      48.529 -41.764  49.768  0.00  0.00    +0.000 C 
ATOM     12  N   UNL     1      49.206 -42.772  49.281  0.00  0.00    +0.000 NA
ATOM     13  C   UNL     1      48.902 -43.885  50.091  0.00  0.00    +0.000 A 
ATOM     14  C   UNL     1      48.013 -43.605  51.125  0.00  0.00    +0.000 A 
ATOM     15  C   UNL     1      49.394 -45.169  49.946  0.00  0.00    +0.000 A 
ATOM     16  C   UNL     1      47.710 -42.196  50.980  0.00  0.00    +0.000 C 
ATOM     17  C   UNL     1      47.572 -44.535  52.041  0.00  0.00    +0.000 A 
ATOM     18  O   UNL     1      46.984 -41.495  51.646  0.00  0.00    +0.000 OA
ATOM     19  C   UNL     1      48.070 -45.828  51.891  0.00  0.00    +0.000 A 
ATOM     20  C   UNL     1      48.969 -46.142  50.857  0.00  0.00    +0.000 A 
ENDBRANCH   2  11
BRANCH   5  21
ATOM     21  O   UNL     1      48.405 -40.821  46.725  0.00  0.00    +0.000 OA
ATOM     22  H   UNL     1      48.394 -40.220  45.945  0.00  0.00    +0.000 HD
ENDBRANCH   5  21
TORSDOF 2
ENDMDL
MODEL 3
REMARK VINA RESULT:      -6.7      9.915     14.287
REMARK  Name = CHEMBL35349.pdbqt.pdb
REMARK  2 active torsions:
REMARK  status: ('A' for Active; 'I' for Inactive)
REMARK    1  A    between atoms: C_2  and  C_11
REMARK    2  A    between atoms: C_5  and  O_21
REMARK                            x       y       z     vdW  Elec       q    Type
REMARK                         _______ _______ _______ _____ _____    ______ ____
ROOT
ATOM      1  N   UNL     1      46.013 -54.390  58.683  0.00  0.00    +0.000 N 
ATOM      2  C   UNL     1      46.229 -53.429  56.679  0.00  0.00    +0.000 A 
ATOM      3  C   UNL     1      44.961 -54.105  56.747  0.00  0.00    +0.000 A 
ATOM      4  C   UNL     1      44.859 -54.692  58.007  0.00  0.00    +0.000 A 
ATOM      5  C   UNL     1      46.848 -53.634  57.904  0.00  0.00    +0.000 A 
ATOM      6  C   UNL     1      43.889 -54.270  55.848  0.00  0.00    +0.000 A 
ATOM      7  C   UNL     1      43.747 -55.434  58.420  0.00  0.00    +0.000 A 
ATOM      8  C   UNL     1      42.768 -55.007  56.239  0.00  0.00    +0.000 A 
ATOM      9  C   UNL     1      42.704 -55.577  57.505  0.00  0.00    +0.000 A 
ATOM     10  H   UNL     1      46.231 -54.679  59.625  0.00  0.00    +0.000 HD
ENDROOT
BRANCH   2  11
ATOM     11  C   UNL     1      46.755 -52.685  55.557  0.00  0.00    +0.000 C 
ATOM     12  N   UNL     1      46.483 -51.420  55.364  0.00  0.00    +0.000 NA
ATOM     13  C   UNL     1      47.162 -51.041  54.189  0.00  0.00    +0.000 A 
ATOM     14  C   UNL     1      47.890 -52.071  53.599  0.00  0.00    +0.000 A 
ATOM     15  C   UNL     1      47.161 -49.788  53.605  0.00  0.00    +0.000 A 
ATOM     16  C   UNL     1      47.671 -53.216  54.458  0.00  0.00    +0.000 C 
ATOM     17  C   UNL     1      48.630 -51.934  52.445  0.00  0.00    +0.000 A 
ATOM     18  O   UNL     1      48.097 -54.343  54.357  0.00  0.00    +0.000 OA
ATOM     19  C   UNL     1      48.626 -50.670  51.860  0.00  0.00    +0.000 A 
ATOM     20  C   UNL     1      47.901 -49.609  52.431  0.00  0.00    +0.000 A 
ENDBRANCH   2  11
BRANCH   5  21
ATOM     21  O   UNL     1      48.009 -53.265  58.430  0.00  0.00    +0.000 OA
ATOM     22  H   UNL     1      48.290 -53.909  59.119  0.00  0.00    +0.000 HD
ENDBRANCH   5  21
TORSDOF 2
ENDMDL
MODEL 4
REMARK VINA RESULT:      -6.6      2.425      3.571
REMARK  Name = CHEMBL35349.pdbqt.pdb
REMARK  2 active torsions:
REMARK  status: ('A' for Active; 'I' for Inactive)
REMARK    1  A    between atoms: C_2  and  C_11
REMARK    2  A    between atoms: C_5  and  O_21
REMARK                            x       y       z     vdW  Elec       q    Type
REMARK                         _______ _______ _______ _____ _____    ______ ____
ROOT
ATOM      1  N   UNL     1      49.698 -37.211  46.188  0.00  0.00    +0.000 N 
ATOM      2  C   UNL     1      49.038 -39.062  47.249  0.00  0.00    +0.000 A 
ATOM      3  C   UNL     1      48.366 -38.977  45.980  0.00  0.00    +0.000 A 
ATOM      4  C   UNL     1      48.799 -37.814  45.347  0.00  0.00    +0.000 A 
ATOM      5  C   UNL     1      49.855 -37.944  47.335  0.00  0.00    +0.000 A 
ATOM      6  C   UNL     1      47.426 -39.786  45.313  0.00  0.00    +0.000 A 
ATOM      7  C   UNL     1      48.346 -37.413  44.085  0.00  0.00    +0.000 A 
ATOM      8  C   UNL     1      46.960 -39.407  44.052  0.00  0.00    +0.000 A 
ATOM      9  C   UNL     1      47.416 -38.238  43.452  0.00  0.00    +0.000 A 
ATOM     10  H   UNL     1      50.184 -36.346  46.003  0.00  0.00    +0.000 HD
ENDROOT
BRANCH   2  11
ATOM     11  C   UNL     1      48.892 -40.106  48.239  0.00  0.00    +0.000 C 
ATOM     12  N   UNL     1      48.327 -39.897  49.400  0.00  0.00    +0.000 NA
ATOM     13  C   UNL     1      48.364 -41.127  50.087  0.00  0.00    +0.000 A 
ATOM     14  C   UNL     1      48.961 -42.159  49.368  0.00  0.00    +0.000 A 
ATOM     15  C   UNL     1      47.877 -41.377  51.357  0.00  0.00    +0.000 A 
ATOM     16  C   UNL     1      49.346 -41.556  48.109  0.00  0.00    +0.000 C 
ATOM     17  C   UNL     1      49.109 -43.446  49.837  0.00  0.00    +0.000 A 
ATOM     18  O   UNL     1      49.900 -42.056  47.157  0.00  0.00    +0.000 OA
ATOM     19  C   UNL     1      48.617 -43.693  51.118  0.00  0.00    +0.000 A 
ATOM     20  C   UNL     1      48.009 -42.672  51.869  0.00  0.00    +0.000 A 
ENDBRANCH   2  11
BRANCH   5  21
ATOM     21  O   UNL     1      50.700 -37.480  48.248  0.00  0.00    +0.000 OA
ATOM     22  H   UNL     1      50.211 -36.974  48.936  0.00  0.00    +0.000 HD
ENDBRANCH   5  21
TORSDOF 2
ENDMDL
MODEL 5
REMARK VINA RESULT:      -6.5     16.516     17.108
REMARK  Name = CHEMBL35349.pdbqt.pdb
REMARK  2 active torsions:
REMARK  status: ('A' for Active; 'I' for Inactive)
REMARK    1  A    between atoms: C_2  and  C_11
REMARK    2  A    between atoms: C_5  and  O_21
REMARK                            x       y       z     vdW  Elec       q    Type
REMARK                         _______ _______ _______ _____ _____    ______ ____
ROOT
ATOM      1  N   UNL     1      61.302 -47.953  59.956  0.00  0.00    +0.000 N 
ATOM      2  C   UNL     1      59.699 -49.506  59.904  0.00  0.00    +0.000 A 
ATOM      3  C   UNL     1      59.239 -48.374  60.662  0.00  0.00    +0.000 A 
ATOM      4  C   UNL     1      60.261 -47.427  60.675  0.00  0.00    +0.000 A 
ATOM      5  C   UNL     1      60.986 -49.200  59.486  0.00  0.00    +0.000 A 
ATOM      6  C   UNL     1      58.042 -48.070  61.341  0.00  0.00    +0.000 A 
ATOM      7  C   UNL     1      60.156 -46.194  61.327  0.00  0.00    +0.000 A 
ATOM      8  C   UNL     1      57.914 -46.844  61.999  0.00  0.00    +0.000 A 
ATOM      9  C   UNL     1      58.957 -45.925  61.989  0.00  0.00    +0.000 A 
ATOM     10  H   UNL     1      62.187 -47.497  59.789  0.00  0.00    +0.000 HD
ENDROOT
BRANCH   2  11
ATOM     11  C   UNL     1      58.966 -50.722  59.632  0.00  0.00    +0.000 C 
ATOM     12  N   UNL     1      58.460 -51.465  60.582  0.00  0.00    +0.000 NA
ATOM     13  C   UNL     1      57.826 -52.550  59.946  0.00  0.00    +0.000 A 
ATOM     14  C   UNL     1      57.916 -52.522  58.556  0.00  0.00    +0.000 A 
ATOM     15  C   UNL     1      57.155 -53.590  60.562  0.00  0.00    +0.000 A 
ATOM     16  C   UNL     1      58.670 -51.321  58.260  0.00  0.00    +0.000 C 
ATOM     17  C   UNL     1      57.373 -53.477  57.725  0.00  0.00    +0.000 A 
ATOM     18  O   UNL     1      59.003 -50.870  57.189  0.00  0.00    +0.000 OA
ATOM     19  C   UNL     1      56.698 -54.523  58.351  0.00  0.00    +0.000 A 
ATOM     20  C   UNL     1      56.589 -54.580  59.752  0.00  0.00    +0.000 A 
ENDBRANCH   2  11
BRANCH   5  21
ATOM     21  O   UNL     1      61.904 -49.835  58.767  0.00  0.00    +0.000 OA
ATOM     22  H   UNL     1      62.726 -49.296  58.714  0.00  0.00    +0.000 HD
ENDBRANCH   5  21
TORSDOF 2
ENDMDL
MODEL 6
REMARK VINA RESULT:      -6.5     10.671     14.568
REMARK  Name = CHEMBL35349.pdbqt.pdb
REMARK  2 active torsions:
REMARK  status: ('A' for Active; 'I' for Inactive)
REMARK    1  A    between atoms: C_2  and  C_11
REMARK    2  A    between atoms: C_5  and  O_21
REMARK                            x       y       z     vdW  Elec       q    Type
REMARK                         _______ _______ _______ _____ _____    ______ ____
ROOT
ATOM      1  N   UNL     1      47.444 -54.999  59.120  0.00  0.00    +0.000 N 
ATOM      2  C   UNL     1      47.318 -53.910  57.174  0.00  0.00    +0.000 A 
ATOM      3  C   UNL     1      48.620 -54.507  57.301  0.00  0.00    +0.000 A 
ATOM      4  C   UNL     1      48.665 -55.176  58.523  0.00  0.00    +0.000 A 
ATOM      5  C   UNL     1      46.622 -54.242  58.328  0.00  0.00    +0.000 A 
ATOM      6  C   UNL     1      49.768 -54.538  56.485  0.00  0.00    +0.000 A 
ATOM      7  C   UNL     1      49.790 -55.873  58.975  0.00  0.00    +0.000 A 
ATOM      8  C   UNL     1      50.903 -55.228  56.915  0.00  0.00    +0.000 A 
ATOM      9  C   UNL     1      50.909 -55.884  58.141  0.00  0.00    +0.000 A 
ATOM     10  H   UNL     1      47.173 -55.368  60.020  0.00  0.00    +0.000 HD
ENDROOT
BRANCH   2  11
ATOM     11  C   UNL     1      46.830 -53.122  56.065  0.00  0.00    +0.000 C 
ATOM     12  N   UNL     1      47.320 -51.945  55.772  0.00  0.00    +0.000 NA
ATOM     13  C   UNL     1      46.608 -51.486  54.646  0.00  0.00    +0.000 A 
ATOM     14  C   UNL     1      45.635 -52.372  54.192  0.00  0.00    +0.000 A 
ATOM     15  C   UNL     1      46.790 -50.283  53.989  0.00  0.00    +0.000 A 
ATOM     16  C   UNL     1      45.718 -53.504  55.093  0.00  0.00    +0.000 C 
ATOM     17  C   UNL     1      44.817 -52.138  53.108  0.00  0.00    +0.000 A 
ATOM     18  O   UNL     1      45.072 -54.526  55.102  0.00  0.00    +0.000 OA
ATOM     19  C   UNL     1      45.004 -50.924  52.451  0.00  0.00    +0.000 A 
ATOM     20  C   UNL     1      45.978 -50.007  52.884  0.00  0.00    +0.000 A 
ENDBRANCH   2  11
BRANCH   5  21
ATOM     21  O   UNL     1      45.399 -53.987  58.779  0.00  0.00    +0.000 OA
ATOM     22  H   UNL     1      44.754 -54.616  58.384  0.00  0.00    +0.000 HD
ENDBRANCH   5  21
TORSDOF 2
ENDMDL
MODEL 7
REMARK VINA RESULT:      -6.5     15.176     18.159
REMARK  Name = CHEMBL35349.pdbqt.pdb
REMARK  2 active torsions:
REMARK  status: ('A' for Active; 'I' for Inactive)
REMARK    1  A    between atoms: C_2  and  C_11
REMARK    2  A    between atoms: C_5  and  O_21
REMARK                            x       y       z     vdW  Elec       q    Type
REMARK                         _______ _______ _______ _____ _____    ______ ____
ROOT
ATOM      1  N   UNL     1      52.494 -23.357  53.805  0.00  0.00    +0.000 N 
ATOM      2  C   UNL     1      51.587 -23.998  51.868  0.00  0.00    +0.000 A 
ATOM      3  C   UNL     1      51.703 -22.565  51.887  0.00  0.00    +0.000 A 
ATOM      4  C   UNL     1      52.270 -22.199  53.106  0.00  0.00    +0.000 A 
ATOM      5  C   UNL     1      52.091 -24.447  53.081  0.00  0.00    +0.000 A 
ATOM      6  C   UNL     1      51.375 -21.542  50.974  0.00  0.00    +0.000 A 
ATOM      7  C   UNL     1      52.528 -20.872  53.466  0.00  0.00    +0.000 A 
ATOM      8  C   UNL     1      51.624 -20.210  51.311  0.00  0.00    +0.000 A 
ATOM      9  C   UNL     1      52.191 -19.886  52.538  0.00  0.00    +0.000 A 
ATOM     10  H   UNL     1      52.899 -23.414  54.729  0.00  0.00    +0.000 HD
ENDROOT
BRANCH   2  11
ATOM     11  C   UNL     1      51.053 -24.810  50.798  0.00  0.00    +0.000 C 
ATOM     12  N   UNL     1      51.800 -25.616  50.089  0.00  0.00    +0.000 NA
ATOM     13  C   UNL     1      50.945 -26.232  49.154  0.00  0.00    +0.000 A 
ATOM     14  C   UNL     1      49.616 -25.826  49.248  0.00  0.00    +0.000 A 
ATOM     15  C   UNL     1      51.304 -27.163  48.196  0.00  0.00    +0.000 A 
ATOM     16  C   UNL     1      49.601 -24.867  50.334  0.00  0.00    +0.000 C 
ATOM     17  C   UNL     1      48.603 -26.292  48.440  0.00  0.00    +0.000 A 
ATOM     18  O   UNL     1      48.673 -24.239  50.790  0.00  0.00    +0.000 OA
ATOM     19  C   UNL     1      48.970 -27.230  47.476  0.00  0.00    +0.000 A 
ATOM     20  C   UNL     1      50.303 -27.660  47.355  0.00  0.00    +0.000 A 
ENDBRANCH   2  11
BRANCH   5  21
ATOM     21  O   UNL     1      52.248 -25.643  53.635  0.00  0.00    +0.000 OA
ATOM     22  H   UNL     1      51.632 -25.748  54.396  0.00  0.00    +0.000 HD
ENDBRANCH   5  21
TORSDOF 2
ENDMDL
MODEL 8
REMARK VINA RESULT:      -6.4     21.239     23.614
REMARK  Name = CHEMBL35349.pdbqt.pdb
REMARK  2 active torsions:
REMARK  status: ('A' for Active; 'I' for Inactive)
REMARK    1  A    between atoms: C_2  and  C_11
REMARK    2  A    between atoms: C_5  and  O_21
REMARK                            x       y       z     vdW  Elec       q    Type
REMARK                         _______ _______ _______ _____ _____    ______ ____
ROOT
ATOM      1  N   UNL     1      59.047 -23.714  60.873  0.00  0.00    +0.000 N 
ATOM      2  C   UNL     1      60.436 -24.369  59.252  0.00  0.00    +0.000 A 
ATOM      3  C   UNL     1      61.147 -24.333  60.502  0.00  0.00    +0.000 A 
ATOM      4  C   UNL     1      60.254 -23.921  61.488  0.00  0.00    +0.000 A 
ATOM      5  C   UNL     1      59.135 -23.976  59.532  0.00  0.00    +0.000 A 
ATOM      6  C   UNL     1      62.475 -24.614  60.883  0.00  0.00    +0.000 A 
ATOM      7  C   UNL     1      60.610 -23.775  62.833  0.00  0.00    +0.000 A 
ATOM      8  C   UNL     1      62.853 -24.476  62.220  0.00  0.00    +0.000 A 
ATOM      9  C   UNL     1      61.932 -24.062  63.176  0.00  0.00    +0.000 A 
ATOM     10  H   UNL     1      58.201 -23.409  61.332  0.00  0.00    +0.000 HD
ENDROOT
BRANCH   2  11
ATOM     11  C   UNL     1      60.970 -24.740  57.961  0.00  0.00    +0.000 C 
ATOM     12  N   UNL     1      60.404 -25.641  57.200  0.00  0.00    +0.000 NA
ATOM     13  C   UNL     1      61.196 -25.735  56.038  0.00  0.00    +0.000 A 
ATOM     14  C   UNL     1      62.298 -24.884  56.034  0.00  0.00    +0.000 A 
ATOM     15  C   UNL     1      60.974 -26.564  54.954  0.00  0.00    +0.000 A 
ATOM     16  C   UNL     1      62.222 -24.176  57.296  0.00  0.00    +0.000 C 
ATOM     17  C   UNL     1      63.211 -24.803  55.005  0.00  0.00    +0.000 A 
ATOM     18  O   UNL     1      62.961 -23.332  57.747  0.00  0.00    +0.000 OA
ATOM     19  C   UNL     1      62.983 -25.642  53.916  0.00  0.00    +0.000 A 
ATOM     20  C   UNL     1      61.879 -26.512  53.889  0.00  0.00    +0.000 A 
ENDBRANCH   2  11
BRANCH   5  21
ATOM     21  O   UNL     1      58.037 -23.817  58.802  0.00  0.00    +0.000 OA
ATOM     22  H   UNL     1      57.237 -23.908  59.369  0.00  0.00    +0.000 HD
ENDBRANCH   5  21
TORSDOF 2
ENDMDL
MODEL 9
REMARK VINA RESULT:      -6.4      7.151     11.734
REMARK  Name = CHEMBL35349.pdbqt.pdb
REMARK  2 active torsions:
REMARK  status: ('A' for Active; 'I' for Inactive)
REMARK    1  A    between atoms: C_2  and  C_11
REMARK    2  A    between atoms: C_5  and  O_21
REMARK                            x       y       z     vdW  Elec       q    Type
REMARK                         _______ _______ _______ _____ _____    ______ ____
ROOT
ATOM      1  N   UNL     1      44.342 -52.796  53.804  0.00  0.00    +0.000 N 
ATOM      2  C   UNL     1      46.070 -51.426  53.453  0.00  0.00    +0.000 A 
ATOM      3  C   UNL     1      46.303 -52.187  54.651  0.00  0.00    +0.000 A 
ATOM      4  C   UNL     1      45.209 -53.028  54.840  0.00  0.00    +0.000 A 
ATOM      5  C   UNL     1      44.840 -51.838  52.961  0.00  0.00    +0.000 A 
ATOM      6  C   UNL     1      47.349 -52.235  55.594  0.00  0.00    +0.000 A 
ATOM      7  C   UNL     1      45.099 -53.915  55.917  0.00  0.00    +0.000 A 
ATOM      8  C   UNL     1      47.262 -53.113  56.677  0.00  0.00    +0.000 A 
ATOM      9  C   UNL     1      46.153 -53.937  56.831  0.00  0.00    +0.000 A 
ATOM     10  H   UNL     1      43.455 -53.258  53.668  0.00  0.00    +0.000 HD
ENDROOT
BRANCH   2  11
ATOM     11  C   UNL     1      46.944 -50.430  52.875  0.00  0.00    +0.000 C 
ATOM     12  N   UNL     1      46.602 -49.172  52.769  0.00  0.00    +0.000 NA
ATOM     13  C   UNL     1      47.691 -48.512  52.167  0.00  0.00    +0.000 A 
ATOM     14  C   UNL     1      48.766 -49.347  51.872  0.00  0.00    +0.000 A 
ATOM     15  C   UNL     1      47.773 -47.166  51.861  0.00  0.00    +0.000 A 
ATOM     16  C   UNL     1      48.346 -50.660  52.317  0.00  0.00    +0.000 C 
ATOM     17  C   UNL     1      49.937 -48.924  51.282  0.00  0.00    +0.000 A 
ATOM     18  O   UNL     1      48.941 -51.711  52.273  0.00  0.00    +0.000 OA
ATOM     19  C   UNL     1      50.014 -47.567  50.975  0.00  0.00    +0.000 A 
ATOM     20  C   UNL     1      48.946 -46.698  51.260  0.00  0.00    +0.000 A 
ENDBRANCH   2  11
BRANCH   5  21
ATOM     21  O   UNL     1      44.104 -51.507  51.906  0.00  0.00    +0.000 OA
ATOM     22  H   UNL     1      44.522 -50.757  51.424  0.00  0.00    +0.000 HD
ENDBRANCH   5  21
TORSDOF 2
ENDMDL
