MODEL 1
REMARK VINA RESULT:      -8.1      0.000      0.000
REMARK  Name = Chlortetracycline.pdbqt.pdb
REMARK  7 active torsions:
REMARK  status: ('A' for Active; 'I' for Inactive)
REMARK    1  A    between atoms: C_7  and  O_30
REMARK    2  A    between atoms: C_8  and  N_32
REMARK    3  A    between atoms: C_9  and  O_37
REMARK    4  A    between atoms: C_12  and  O_28
REMARK    5  A    between atoms: C_15  and  O_35
REMARK    6  A    between atoms: C_16  and  C_23
REMARK    7  A    between atoms: C_20  and  O_39
REMARK                            x       y       z     vdW  Elec       q    Type
REMARK                         _______ _______ _______ _____ _____    ______ ____
ROOT
ATOM      1 CL   UNL     1      48.641 -39.444  45.376  0.00  0.00    +0.000 Cl
ATOM      2  O   UNL     1      47.241 -42.907  52.257  0.00  0.00    +0.000 OA
ATOM      3  O   UNL     1      49.626 -47.139  48.465  0.00  0.00    +0.000 OA
ATOM      4  C   UNL     1      46.963 -45.104  49.254  0.00  0.00    +0.000 C 
ATOM      5  C   UNL     1      47.674 -42.639  48.637  0.00  0.00    +0.000 C 
ATOM      6  C   UNL     1      47.231 -43.966  48.466  0.00  0.00    +0.000 C 
ATOM      7  C   UNL     1      47.120 -44.842  50.733  0.00  0.00    +0.000 C 
ATOM      8  C   UNL     1      47.390 -46.411  48.788  0.00  0.00    +0.000 C 
ATOM      9  C   UNL     1      47.736 -41.556  47.596  0.00  0.00    +0.000 C 
ATOM     10  C   UNL     1      47.876 -42.320  50.034  0.00  0.00    +0.000 C 
ATOM     11  C   UNL     1      47.400 -43.307  51.096  0.00  0.00    +0.000 C 
ATOM     12  C   UNL     1      48.237 -45.671  51.375  0.00  0.00    +0.000 C 
ATOM     13  C   UNL     1      48.606 -40.374  47.997  0.00  0.00    +0.000 A 
ATOM     14  C   UNL     1      48.755 -46.790  49.248  0.00  0.00    +0.000 C 
ATOM     15  C   UNL     1      48.445 -41.155  50.394  0.00  0.00    +0.000 C 
ATOM     16  C   UNL     1      49.014 -46.553  50.704  0.00  0.00    +0.000 C 
ATOM     17  C   UNL     1      48.975 -40.204  49.367  0.00  0.00    +0.000 A 
ATOM     18  C   UNL     1      46.295 -41.113  47.272  0.00  0.00    +0.000 C 
ATOM     19  C   UNL     1      49.061 -39.423  47.053  0.00  0.00    +0.000 A 
ATOM     20  C   UNL     1      49.837 -39.136  49.701  0.00  0.00    +0.000 A 
ATOM     21  C   UNL     1      49.882 -38.364  47.429  0.00  0.00    +0.000 A 
ATOM     22  C   UNL     1      50.282 -38.228  48.744  0.00  0.00    +0.000 A 
ENDROOT
BRANCH  16  23
ATOM     23  C   UNL     1      50.058 -47.381  51.372  0.00  0.00    +0.000 C 
ATOM     24  O   UNL     1      49.865 -47.925  52.451  0.00  0.00    +0.000 OA
ATOM     25  N   UNL     1      51.256 -47.496  50.736  0.00  0.00    +0.000 N 
ATOM     26  H   UNL     1      51.512 -46.836  50.010  0.00  0.00    +0.000 HD
ATOM     27  H   UNL     1      51.999 -47.957  51.244  0.00  0.00    +0.000 HD
ENDBRANCH  16  23
BRANCH   8  28
ATOM     28  N   UNL     1      46.442 -47.448  48.479  0.00  0.00    +0.000 NA
ATOM     29  C   UNL     1      46.436 -48.550  49.431  0.00  0.00    +0.000 C 
ATOM     30  C   UNL     1      45.081 -46.974  48.335  0.00  0.00    +0.000 C 
ENDBRANCH   8  28
BRANCH  12  31
ATOM     31  O   UNL     1      48.368 -45.520  52.759  0.00  0.00    +0.000 OA
ATOM     32  H   UNL     1      48.545 -46.405  53.152  0.00  0.00    +0.000 HD
ENDBRANCH  12  31
BRANCH   7  33
ATOM     33  O   UNL     1      45.927 -45.273  51.390  0.00  0.00    +0.000 OA
ATOM     34  H   UNL     1      45.590 -46.058  50.920  0.00  0.00    +0.000 HD
ENDBRANCH   7  33
BRANCH  15  35
ATOM     35  O   UNL     1      48.561 -40.750  51.707  0.00  0.00    +0.000 OA
ATOM     36  H   UNL     1      47.922 -40.032  51.900  0.00  0.00    +0.000 HD
ENDBRANCH  15  35
BRANCH   9  37
ATOM     37  O   UNL     1      48.240 -42.168  46.426  0.00  0.00    +0.000 OA
ATOM     38  H   UNL     1      48.734 -41.430  46.023  0.00  0.00    +0.000 HD
ENDBRANCH   9  37
BRANCH  20  39
ATOM     39  O   UNL     1      50.314 -38.972  50.973  0.00  0.00    +0.000 OA
ATOM     40  H   UNL     1      49.632 -38.549  51.523  0.00  0.00    +0.000 HD
ENDBRANCH  20  39
TORSDOF 7
ENDMDL
MODEL 2
REMARK VINA RESULT:      -7.7      3.412      3.993
REMARK  Name = Chlortetracycline.pdbqt.pdb
REMARK  7 active torsions:
REMARK  status: ('A' for Active; 'I' for Inactive)
REMARK    1  A    between atoms: C_7  and  O_30
REMARK    2  A    between atoms: C_8  and  N_32
REMARK    3  A    between atoms: C_9  and  O_37
REMARK    4  A    between atoms: C_12  and  O_28
REMARK    5  A    between atoms: C_15  and  O_35
REMARK    6  A    between atoms: C_16  and  C_23
REMARK    7  A    between atoms: C_20  and  O_39
REMARK                            x       y       z     vdW  Elec       q    Type
REMARK                         _______ _______ _______ _____ _____    ______ ____
ROOT
ATOM      1 CL   UNL     1      48.567 -37.739  45.710  0.00  0.00    +0.000 Cl
ATOM      2  O   UNL     1      49.287 -44.342  49.855  0.00  0.00    +0.000 OA
ATOM      3  O   UNL     1      53.602 -44.395  45.455  0.00  0.00    +0.000 OA
ATOM      4  C   UNL     1      50.258 -44.574  46.260  0.00  0.00    +0.000 C 
ATOM      5  C   UNL     1      49.505 -42.140  46.944  0.00  0.00    +0.000 C 
ATOM      6  C   UNL     1      49.861 -43.228  46.123  0.00  0.00    +0.000 C 
ATOM      7  C   UNL     1      50.246 -45.046  47.694  0.00  0.00    +0.000 C 
ATOM      8  C   UNL     1      51.332 -45.089  45.428  0.00  0.00    +0.000 C 
ATOM      9  C   UNL     1      48.964 -40.806  46.510  0.00  0.00    +0.000 C 
ATOM     10  C   UNL     1      49.499 -42.508  48.344  0.00  0.00    +0.000 C 
ATOM     11  C   UNL     1      49.640 -43.979  48.724  0.00  0.00    +0.000 C 
ATOM     12  C   UNL     1      51.634 -45.437  48.211  0.00  0.00    +0.000 C 
ATOM     13  C   UNL     1      49.046 -39.735  47.587  0.00  0.00    +0.000 A 
ATOM     14  C   UNL     1      52.681 -44.945  46.042  0.00  0.00    +0.000 C 
ATOM     15  C   UNL     1      49.337 -41.571  49.297  0.00  0.00    +0.000 C 
ATOM     16  C   UNL     1      52.768 -45.375  47.473  0.00  0.00    +0.000 C 
ATOM     17  C   UNL     1      49.261 -40.119  48.946  0.00  0.00    +0.000 A 
ATOM     18  C   UNL     1      47.516 -41.007  46.019  0.00  0.00    +0.000 C 
ATOM     19  C   UNL     1      48.906 -38.359  47.288  0.00  0.00    +0.000 A 
ATOM     20  C   UNL     1      49.398 -39.100  49.915  0.00  0.00    +0.000 A 
ATOM     21  C   UNL     1      49.014 -37.387  48.279  0.00  0.00    +0.000 A 
ATOM     22  C   UNL     1      49.273 -37.753  49.585  0.00  0.00    +0.000 A 
ENDROOT
BRANCH  16  23
ATOM     23  C   UNL     1      54.094 -45.813  47.992  0.00  0.00    +0.000 C 
ATOM     24  O   UNL     1      54.626 -45.274  48.954  0.00  0.00    +0.000 OA
ATOM     25  N   UNL     1      54.707 -46.835  47.337  0.00  0.00    +0.000 N 
ATOM     26  H   UNL     1      54.416 -47.085  46.398  0.00  0.00    +0.000 HD
ATOM     27  H   UNL     1      55.655 -47.052  47.614  0.00  0.00    +0.000 HD
ENDBRANCH  16  23
BRANCH   8  28
ATOM     28  N   UNL     1      51.106 -46.138  44.469  0.00  0.00    +0.000 NA
ATOM     29  C   UNL     1      51.718 -47.410  44.826  0.00  0.00    +0.000 C 
ATOM     30  C   UNL     1      49.707 -46.379  44.183  0.00  0.00    +0.000 C 
ENDBRANCH   8  28
BRANCH  12  31
ATOM     31  O   UNL     1      51.660 -45.954  49.509  0.00  0.00    +0.000 OA
ATOM     32  H   UNL     1      52.386 -46.617  49.564  0.00  0.00    +0.000 HD
ENDBRANCH  12  31
BRANCH   7  33
ATOM     33  O   UNL     1      49.483 -46.252  47.759  0.00  0.00    +0.000 OA
ATOM     34  H   UNL     1      50.092 -47.002  47.628  0.00  0.00    +0.000 HD
ENDBRANCH   7  33
BRANCH  15  35
ATOM     35  O   UNL     1      49.212 -41.875  50.635  0.00  0.00    +0.000 OA
ATOM     36  H   UNL     1      50.090 -42.069  51.025  0.00  0.00    +0.000 HD
ENDBRANCH  15  35
BRANCH   9  37
ATOM     37  O   UNL     1      49.722 -40.429  45.377  0.00  0.00    +0.000 OA
ATOM     38  H   UNL     1      49.789 -39.465  45.506  0.00  0.00    +0.000 HD
ENDBRANCH   9  37
BRANCH  20  39
ATOM     39  O   UNL     1      49.706 -39.388  51.217  0.00  0.00    +0.000 OA
ATOM     40  H   UNL     1      50.646 -39.631  51.282  0.00  0.00    +0.000 HD
ENDBRANCH  20  39
TORSDOF 7
ENDMDL
MODEL 3
REMARK VINA RESULT:      -7.2     14.530     18.054
REMARK  Name = Chlortetracycline.pdbqt.pdb
REMARK  7 active torsions:
REMARK  status: ('A' for Active; 'I' for Inactive)
REMARK    1  A    between atoms: C_7  and  O_30
REMARK    2  A    between atoms: C_8  and  N_32
REMARK    3  A    between atoms: C_9  and  O_37
REMARK    4  A    between atoms: C_12  and  O_28
REMARK    5  A    between atoms: C_15  and  O_35
REMARK    6  A    between atoms: C_16  and  C_23
REMARK    7  A    between atoms: C_20  and  O_39
REMARK                            x       y       z     vdW  Elec       q    Type
REMARK                         _______ _______ _______ _____ _____    ______ ____
ROOT
ATOM      1 CL   UNL     1      47.209 -53.753  56.962  0.00  0.00    +0.000 Cl
ATOM      2  O   UNL     1      41.060 -58.050  59.204  0.00  0.00    +0.000 OA
ATOM      3  O   UNL     1      43.066 -54.918  64.117  0.00  0.00    +0.000 OA
ATOM      4  C   UNL     1      43.639 -57.424  61.826  0.00  0.00    +0.000 C 
ATOM      5  C   UNL     1      44.225 -56.249  59.537  0.00  0.00    +0.000 C 
ATOM      6  C   UNL     1      44.392 -56.746  60.845  0.00  0.00    +0.000 C 
ATOM      7  C   UNL     1      42.261 -57.810  61.344  0.00  0.00    +0.000 C 
ATOM      8  C   UNL     1      43.737 -57.008  63.214  0.00  0.00    +0.000 C 
ATOM      9  C   UNL     1      45.281 -55.671  58.637  0.00  0.00    +0.000 C 
ATOM     10  C   UNL     1      42.910 -56.556  59.014  0.00  0.00    +0.000 C 
ATOM     11  C   UNL     1      42.008 -57.511  59.791  0.00  0.00    +0.000 C 
ATOM     12  C   UNL     1      41.137 -57.125  62.128  0.00  0.00    +0.000 C 
ATOM     13  C   UNL     1      44.719 -54.887  57.462  0.00  0.00    +0.000 A 
ATOM     14  C   UNL     1      42.736 -55.973  63.597  0.00  0.00    +0.000 C 
ATOM     15  C   UNL     1      42.501 -56.034  57.843  0.00  0.00    +0.000 C 
ATOM     16  C   UNL     1      41.336 -56.260  63.149  0.00  0.00    +0.000 C 
ATOM     17  C   UNL     1      43.346 -55.047  57.101  0.00  0.00    +0.000 A 
ATOM     18  C   UNL     1      46.196 -56.820  58.166  0.00  0.00    +0.000 C 
ATOM     19  C   UNL     1      45.517 -54.000  56.702  0.00  0.00    +0.000 A 
ATOM     20  C   UNL     1      42.834 -54.258  56.048  0.00  0.00    +0.000 A 
ATOM     21  C   UNL     1      44.982 -53.265  55.647  0.00  0.00    +0.000 A 
ATOM     22  C   UNL     1      43.642 -53.380  55.330  0.00  0.00    +0.000 A 
ENDROOT
BRANCH  16  23
ATOM     23  C   UNL     1      40.217 -55.651  63.923  0.00  0.00    +0.000 C 
ATOM     24  O   UNL     1      39.217 -55.204  63.377  0.00  0.00    +0.000 OA
ATOM     25  N   UNL     1      40.359 -55.595  65.275  0.00  0.00    +0.000 N 
ATOM     26  H   UNL     1      41.277 -55.697  65.695  0.00  0.00    +0.000 HD
ATOM     27  H   UNL     1      39.658 -55.077  65.787  0.00  0.00    +0.000 HD
ENDBRANCH  16  23
BRANCH   8  28
ATOM     28  N   UNL     1      44.264 -57.882  64.228  0.00  0.00    +0.000 NA
ATOM     29  C   UNL     1      43.248 -58.486  65.078  0.00  0.00    +0.000 C 
ATOM     30  C   UNL     1      45.101 -58.944  63.708  0.00  0.00    +0.000 C 
ENDBRANCH   8  28
BRANCH  12  31
ATOM     31  O   UNL     1      39.842 -57.511  61.768  0.00  0.00    +0.000 OA
ATOM     32  H   UNL     1      39.867 -58.455  61.489  0.00  0.00    +0.000 HD
ENDBRANCH  12  31
BRANCH   7  33
ATOM     33  O   UNL     1      42.078 -59.204  61.594  0.00  0.00    +0.000 OA
ATOM     34  H   UNL     1      41.457 -59.552  60.927  0.00  0.00    +0.000 HD
ENDBRANCH   7  33
BRANCH  15  35
ATOM     35  O   UNL     1      41.308 -56.378  57.244  0.00  0.00    +0.000 OA
ATOM     36  H   UNL     1      40.623 -55.703  57.435  0.00  0.00    +0.000 HD
ENDBRANCH  15  35
BRANCH   9  37
ATOM     37  O   UNL     1      46.076 -54.837  59.456  0.00  0.00    +0.000 OA
ATOM     38  H   UNL     1      45.846 -55.167  60.344  0.00  0.00    +0.000 HD
ENDBRANCH   9  37
BRANCH  20  39
ATOM     39  O   UNL     1      41.507 -54.283  55.714  0.00  0.00    +0.000 OA
ATOM     40  H   UNL     1      41.024 -54.842  56.346  0.00  0.00    +0.000 HD
ENDBRANCH  20  39
TORSDOF 7
ENDMDL
MODEL 4
REMARK VINA RESULT:      -7.0     19.974     21.915
REMARK  Name = Chlortetracycline.pdbqt.pdb
REMARK  7 active torsions:
REMARK  status: ('A' for Active; 'I' for Inactive)
REMARK    1  A    between atoms: C_7  and  O_30
REMARK    2  A    between atoms: C_8  and  N_32
REMARK    3  A    between atoms: C_9  and  O_37
REMARK    4  A    between atoms: C_12  and  O_28
REMARK    5  A    between atoms: C_15  and  O_35
REMARK    6  A    between atoms: C_16  and  C_23
REMARK    7  A    between atoms: C_20  and  O_39
REMARK                            x       y       z     vdW  Elec       q    Type
REMARK                         _______ _______ _______ _____ _____    ______ ____
ROOT
ATOM      1 CL   UNL     1      37.987 -25.111  52.271  0.00  0.00    +0.000 Cl
ATOM      2  O   UNL     1      33.205 -28.242  57.621  0.00  0.00    +0.000 OA
ATOM      3  O   UNL     1      31.811 -30.729  52.157  0.00  0.00    +0.000 OA
ATOM      4  C   UNL     1      31.802 -27.940  54.176  0.00  0.00    +0.000 C 
ATOM      5  C   UNL     1      34.298 -27.095  54.326  0.00  0.00    +0.000 C 
ATOM      6  C   UNL     1      33.008 -27.313  53.800  0.00  0.00    +0.000 C 
ATOM      7  C   UNL     1      31.844 -28.496  55.580  0.00  0.00    +0.000 C 
ATOM      8  C   UNL     1      31.073 -28.728  53.198  0.00  0.00    +0.000 C 
ATOM      9  C   UNL     1      35.387 -26.236  53.747  0.00  0.00    +0.000 C 
ATOM     10  C   UNL     1      34.425 -27.629  55.665  0.00  0.00    +0.000 C 
ATOM     11  C   UNL     1      33.175 -28.122  56.388  0.00  0.00    +0.000 C 
ATOM     12  C   UNL     1      31.697 -30.021  55.627  0.00  0.00    +0.000 C 
ATOM     13  C   UNL     1      36.761 -26.514  54.336  0.00  0.00    +0.000 A 
ATOM     14  C   UNL     1      31.462 -30.166  53.184  0.00  0.00    +0.000 C 
ATOM     15  C   UNL     1      35.623 -27.660  56.277  0.00  0.00    +0.000 C 
ATOM     16  C   UNL     1      31.545 -30.806  54.535  0.00  0.00    +0.000 C 
ATOM     17  C   UNL     1      36.868 -27.241  55.561  0.00  0.00    +0.000 A 
ATOM     18  C   UNL     1      34.982 -24.758  53.923  0.00  0.00    +0.000 C 
ATOM     19  C   UNL     1      37.949 -26.065  53.712  0.00  0.00    +0.000 A 
ATOM     20  C   UNL     1      38.158 -27.541  56.051  0.00  0.00    +0.000 A 
ATOM     21  C   UNL     1      39.202 -26.353  54.246  0.00  0.00    +0.000 A 
ATOM     22  C   UNL     1      39.309 -27.101  55.403  0.00  0.00    +0.000 A 
ENDROOT
BRANCH  16  23
ATOM     23  C   UNL     1      31.354 -32.282  54.622  0.00  0.00    +0.000 C 
ATOM     24  O   UNL     1      32.022 -32.981  55.371  0.00  0.00    +0.000 OA
ATOM     25  N   UNL     1      30.407 -32.830  53.813  0.00  0.00    +0.000 N 
ATOM     26  H   UNL     1      30.063 -32.315  53.010  0.00  0.00    +0.000 HD
ATOM     27  H   UNL     1      30.361 -33.840  53.785  0.00  0.00    +0.000 HD
ENDBRANCH  16  23
BRANCH   8  28
ATOM     28  N   UNL     1      29.755 -28.354  52.760  0.00  0.00    +0.000 NA
ATOM     29  C   UNL     1      28.705 -29.267  53.189  0.00  0.00    +0.000 C 
ATOM     30  C   UNL     1      29.367 -27.013  53.149  0.00  0.00    +0.000 C 
ENDBRANCH   8  28
BRANCH  12  31
ATOM     31  O   UNL     1      31.652 -30.573  56.910  0.00  0.00    +0.000 OA
ATOM     32  H   UNL     1      32.468 -30.305  57.391  0.00  0.00    +0.000 HD
ENDBRANCH  12  31
BRANCH   7  33
ATOM     33  O   UNL     1      30.706 -28.002  56.287  0.00  0.00    +0.000 OA
ATOM     34  H   UNL     1      30.806 -28.241  57.227  0.00  0.00    +0.000 HD
ENDBRANCH   7  33
BRANCH  15  35
ATOM     35  O   UNL     1      35.786 -28.053  57.589  0.00  0.00    +0.000 OA
ATOM     36  H   UNL     1      36.490 -28.732  57.657  0.00  0.00    +0.000 HD
ENDBRANCH  15  35
BRANCH   9  37
ATOM     37  O   UNL     1      35.383 -26.488  52.355  0.00  0.00    +0.000 OA
ATOM     38  H   UNL     1      34.938 -27.354  52.321  0.00  0.00    +0.000 HD
ENDBRANCH   9  37
BRANCH  20  39
ATOM     39  O   UNL     1      38.338 -28.320  57.162  0.00  0.00    +0.000 OA
ATOM     40  H   UNL     1      39.252 -28.653  57.179  0.00  0.00    +0.000 HD
ENDBRANCH  20  39
TORSDOF 7
ENDMDL
MODEL 5
REMARK VINA RESULT:      -6.9     14.953     18.485
REMARK  Name = Chlortetracycline.pdbqt.pdb
REMARK  7 active torsions:
REMARK  status: ('A' for Active; 'I' for Inactive)
REMARK    1  A    between atoms: C_7  and  O_30
REMARK    2  A    between atoms: C_8  and  N_32
REMARK    3  A    between atoms: C_9  and  O_37
REMARK    4  A    between atoms: C_12  and  O_28
REMARK    5  A    between atoms: C_15  and  O_35
REMARK    6  A    between atoms: C_16  and  C_23
REMARK    7  A    between atoms: C_20  and  O_39
REMARK                            x       y       z     vdW  Elec       q    Type
REMARK                         _______ _______ _______ _____ _____    ______ ____
ROOT
ATOM      1 CL   UNL     1      51.111 -57.019  59.058  0.00  0.00    +0.000 Cl
ATOM      2  O   UNL     1      43.372 -56.144  59.862  0.00  0.00    +0.000 OA
ATOM      3  O   UNL     1      45.796 -56.775  65.493  0.00  0.00    +0.000 OA
ATOM      4  C   UNL     1      45.044 -58.232  62.464  0.00  0.00    +0.000 C 
ATOM      5  C   UNL     1      46.752 -57.259  60.703  0.00  0.00    +0.000 C 
ATOM      6  C   UNL     1      46.250 -58.051  61.755  0.00  0.00    +0.000 C 
ATOM      7  C   UNL     1      43.913 -57.393  61.919  0.00  0.00    +0.000 C 
ATOM      8  C   UNL     1      45.083 -58.391  63.907  0.00  0.00    +0.000 C 
ATOM      9  C   UNL     1      48.089 -57.380  60.027  0.00  0.00    +0.000 C 
ATOM     10  C   UNL     1      45.727 -56.403  60.144  0.00  0.00    +0.000 C 
ATOM     11  C   UNL     1      44.276 -56.608  60.571  0.00  0.00    +0.000 C 
ATOM     12  C   UNL     1      43.394 -56.358  62.922  0.00  0.00    +0.000 C 
ATOM     13  C   UNL     1      48.471 -56.156  59.210  0.00  0.00    +0.000 A 
ATOM     14  C   UNL     1      44.974 -57.105  64.651  0.00  0.00    +0.000 C 
ATOM     15  C   UNL     1      46.043 -55.461  59.237  0.00  0.00    +0.000 C 
ATOM     16  C   UNL     1      43.885 -56.195  64.173  0.00  0.00    +0.000 C 
ATOM     17  C   UNL     1      47.467 -55.204  58.855  0.00  0.00    +0.000 A 
ATOM     18  C   UNL     1      48.080 -58.658  59.163  0.00  0.00    +0.000 C 
ATOM     19  C   UNL     1      49.799 -55.928  58.777  0.00  0.00    +0.000 A 
ATOM     20  C   UNL     1      47.862 -54.044  58.152  0.00  0.00    +0.000 A 
ATOM     21  C   UNL     1      50.142 -54.787  58.056  0.00  0.00    +0.000 A 
ATOM     22  C   UNL     1      49.181 -53.840  57.757  0.00  0.00    +0.000 A 
ENDROOT
BRANCH  16  23
ATOM     23  C   UNL     1      43.321 -55.212  65.141  0.00  0.00    +0.000 C 
ATOM     24  O   UNL     1      43.877 -54.149  65.385  0.00  0.00    +0.000 OA
ATOM     25  N   UNL     1      42.161 -55.553  65.763  0.00  0.00    +0.000 N 
ATOM     26  H   UNL     1      41.858 -56.521  65.781  0.00  0.00    +0.000 HD
ATOM     27  H   UNL     1      41.843 -54.942  66.503  0.00  0.00    +0.000 HD
ENDBRANCH  16  23
BRANCH   8  28
ATOM     28  N   UNL     1      44.651 -59.608  64.543  0.00  0.00    +0.000 NA
ATOM     29  C   UNL     1      43.332 -59.522  65.153  0.00  0.00    +0.000 C 
ATOM     30  C   UNL     1      44.665 -60.763  63.668  0.00  0.00    +0.000 C 
ENDBRANCH   8  28
BRANCH  12  31
ATOM     31  O   UNL     1      42.295 -55.611  62.489  0.00  0.00    +0.000 OA
ATOM     32  H   UNL     1      41.665 -55.521  63.241  0.00  0.00    +0.000 HD
ENDBRANCH  12  31
BRANCH   7  33
ATOM     33  O   UNL     1      42.798 -58.253  61.679  0.00  0.00    +0.000 OA
ATOM     34  H   UNL     1      42.209 -58.210  62.455  0.00  0.00    +0.000 HD
ENDBRANCH   7  33
BRANCH  15  35
ATOM     35  O   UNL     1      45.098 -54.694  58.591  0.00  0.00    +0.000 OA
ATOM     36  H   UNL     1      45.416 -54.439  57.699  0.00  0.00    +0.000 HD
ENDBRANCH  15  35
BRANCH   9  37
ATOM     37  O   UNL     1      49.029 -57.601  61.059  0.00  0.00    +0.000 OA
ATOM     38  H   UNL     1      49.705 -56.932  60.846  0.00  0.00    +0.000 HD
ENDBRANCH   9  37
BRANCH  20  39
ATOM     39  O   UNL     1      46.974 -53.042  57.868  0.00  0.00    +0.000 OA
ATOM     40  H   UNL     1      46.917 -52.434  58.626  0.00  0.00    +0.000 HD
ENDBRANCH  20  39
TORSDOF 7
ENDMDL
MODEL 6
REMARK VINA RESULT:      -6.9      3.205      6.916
REMARK  Name = Chlortetracycline.pdbqt.pdb
REMARK  7 active torsions:
REMARK  status: ('A' for Active; 'I' for Inactive)
REMARK    1  A    between atoms: C_7  and  O_30
REMARK    2  A    between atoms: C_8  and  N_32
REMARK    3  A    between atoms: C_9  and  O_37
REMARK    4  A    between atoms: C_12  and  O_28
REMARK    5  A    between atoms: C_15  and  O_35
REMARK    6  A    between atoms: C_16  and  C_23
REMARK    7  A    between atoms: C_20  and  O_39
REMARK                            x       y       z     vdW  Elec       q    Type
REMARK                         _______ _______ _______ _____ _____    ______ ____
ROOT
ATOM      1 CL   UNL     1      43.103 -48.785  46.410  0.00  0.00    +0.000 Cl
ATOM      2  O   UNL     1      46.101 -45.856  53.024  0.00  0.00    +0.000 OA
ATOM      3  O   UNL     1      48.801 -42.977  48.291  0.00  0.00    +0.000 OA
ATOM      4  C   UNL     1      48.397 -45.890  50.083  0.00  0.00    +0.000 C 
ATOM      5  C   UNL     1      45.998 -46.822  49.499  0.00  0.00    +0.000 C 
ATOM      6  C   UNL     1      47.369 -46.529  49.358  0.00  0.00    +0.000 C 
ATOM      7  C   UNL     1      47.949 -45.427  51.449  0.00  0.00    +0.000 C 
ATOM      8  C   UNL     1      49.325 -45.017  49.385  0.00  0.00    +0.000 C 
ATOM      9  C   UNL     1      45.149 -47.676  48.599  0.00  0.00    +0.000 C 
ATOM     10  C   UNL     1      45.487 -46.380  50.779  0.00  0.00    +0.000 C 
ATOM     11  C   UNL     1      46.469 -45.895  51.841  0.00  0.00    +0.000 C 
ATOM     12  C   UNL     1      48.004 -43.906  51.616  0.00  0.00    +0.000 C 
ATOM     13  C   UNL     1      43.655 -47.480  48.804  0.00  0.00    +0.000 A 
ATOM     14  C   UNL     1      48.885 -43.595  49.342  0.00  0.00    +0.000 C 
ATOM     15  C   UNL     1      44.167 -46.426  51.041  0.00  0.00    +0.000 C 
ATOM     16  C   UNL     1      48.408 -43.046  50.651  0.00  0.00    +0.000 C 
ATOM     17  C   UNL     1      43.185 -46.838  49.991  0.00  0.00    +0.000 A 
ATOM     18  C   UNL     1      45.561 -49.148  48.800  0.00  0.00    +0.000 C 
ATOM     19  C   UNL     1      42.703 -47.925  47.856  0.00  0.00    +0.000 A 
ATOM     20  C   UNL     1      41.798 -46.611  50.125  0.00  0.00    +0.000 A 
ATOM     21  C   UNL     1      41.340 -47.712  48.042  0.00  0.00    +0.000 A 
ATOM     22  C   UNL     1      40.888 -47.045  49.164  0.00  0.00    +0.000 A 
ENDROOT
BRANCH  16  23
ATOM     23  C   UNL     1      48.498 -41.574  50.866  0.00  0.00    +0.000 C 
ATOM     24  O   UNL     1      47.786 -40.991  51.673  0.00  0.00    +0.000 OA
ATOM     25  N   UNL     1      49.400 -40.893  50.109  0.00  0.00    +0.000 N 
ATOM     26  H   UNL     1      49.775 -41.311  49.264  0.00  0.00    +0.000 HD
ATOM     27  H   UNL     1      49.377 -39.884  50.169  0.00  0.00    +0.000 HD
ENDBRANCH  16  23
BRANCH   8  28
ATOM     28  N   UNL     1      50.729 -45.321  49.304  0.00  0.00    +0.000 NA
ATOM     29  C   UNL     1      51.071 -46.666  49.744  0.00  0.00    +0.000 C 
ATOM     30  C   UNL     1      51.297 -45.122  47.987  0.00  0.00    +0.000 C 
ENDBRANCH   8  28
BRANCH  12  31
ATOM     31  O   UNL     1      47.673 -43.436  52.890  0.00  0.00    +0.000 OA
ATOM     32  H   UNL     1      47.535 -42.463  52.836  0.00  0.00    +0.000 HD
ENDBRANCH  12  31
BRANCH   7  33
ATOM     33  O   UNL     1      48.876 -45.930  52.413  0.00  0.00    +0.000 OA
ATOM     34  H   UNL     1      48.822 -45.367  53.207  0.00  0.00    +0.000 HD
ENDBRANCH   7  33
BRANCH  15  35
ATOM     35  O   UNL     1      43.637 -46.125  52.278  0.00  0.00    +0.000 OA
ATOM     36  H   UNL     1      42.799 -45.625  52.177  0.00  0.00    +0.000 HD
ENDBRANCH  15  35
BRANCH   9  37
ATOM     37  O   UNL     1      45.517 -47.334  47.277  0.00  0.00    +0.000 OA
ATOM     38  H   UNL     1      46.420 -46.992  47.414  0.00  0.00    +0.000 HD
ENDBRANCH   9  37
BRANCH  20  39
ATOM     39  O   UNL     1      41.286 -45.912  51.184  0.00  0.00    +0.000 OA
ATOM     40  H   UNL     1      41.591 -44.989  51.142  0.00  0.00    +0.000 HD
ENDBRANCH  20  39
TORSDOF 7
ENDMDL
MODEL 7
REMARK VINA RESULT:      -6.4     25.756     27.733
REMARK  Name = Chlortetracycline.pdbqt.pdb
REMARK  7 active torsions:
REMARK  status: ('A' for Active; 'I' for Inactive)
REMARK    1  A    between atoms: C_7  and  O_30
REMARK    2  A    between atoms: C_8  and  N_32
REMARK    3  A    between atoms: C_9  and  O_37
REMARK    4  A    between atoms: C_12  and  O_28
REMARK    5  A    between atoms: C_15  and  O_35
REMARK    6  A    between atoms: C_16  and  C_23
REMARK    7  A    between atoms: C_20  and  O_39
REMARK                            x       y       z     vdW  Elec       q    Type
REMARK                         _______ _______ _______ _____ _____    ______ ____
ROOT
ATOM      1 CL   UNL     1      43.410 -33.560  77.918  0.00  0.00    +0.000 Cl
ATOM      2  O   UNL     1      47.456 -38.641  73.546  0.00  0.00    +0.000 OA
ATOM      3  O   UNL     1      51.468 -35.588  77.091  0.00  0.00    +0.000 OA
ATOM      4  C   UNL     1      49.253 -35.499  74.455  0.00  0.00    +0.000 C 
ATOM      5  C   UNL     1      46.828 -35.609  75.490  0.00  0.00    +0.000 C 
ATOM      6  C   UNL     1      48.070 -35.073  75.093  0.00  0.00    +0.000 C 
ATOM      7  C   UNL     1      49.180 -36.932  73.983  0.00  0.00    +0.000 C 
ATOM      8  C   UNL     1      50.538 -35.062  74.971  0.00  0.00    +0.000 C 
ATOM      9  C   UNL     1      45.647 -34.862  76.045  0.00  0.00    +0.000 C 
ATOM     10  C   UNL     1      46.694 -36.995  75.095  0.00  0.00    +0.000 C 
ATOM     11  C   UNL     1      47.737 -37.603  74.162  0.00  0.00    +0.000 C 
ATOM     12  C   UNL     1      50.196 -37.846  74.675  0.00  0.00    +0.000 C 
ATOM     13  C   UNL     1      44.623 -35.760  76.723  0.00  0.00    +0.000 A 
ATOM     14  C   UNL     1      51.116 -35.983  75.989  0.00  0.00    +0.000 C 
ATOM     15  C   UNL     1      45.648 -37.728  75.518  0.00  0.00    +0.000 C 
ATOM     16  C   UNL     1      51.076 -37.433  75.617  0.00  0.00    +0.000 C 
ATOM     17  C   UNL     1      44.652 -37.168  76.483  0.00  0.00    +0.000 A 
ATOM     18  C   UNL     1      45.014 -34.041  74.904  0.00  0.00    +0.000 C 
ATOM     19  C   UNL     1      43.627 -35.242  77.585  0.00  0.00    +0.000 A 
ATOM     20  C   UNL     1      43.731 -37.984  77.176  0.00  0.00    +0.000 A 
ATOM     21  C   UNL     1      42.715 -36.078  78.223  0.00  0.00    +0.000 A 
ATOM     22  C   UNL     1      42.774 -37.446  78.033  0.00  0.00    +0.000 A 
ENDROOT
BRANCH  16  23
ATOM     23  C   UNL     1      52.086 -38.340  76.233  0.00  0.00    +0.000 C 
ATOM     24  O   UNL     1      51.829 -39.504  76.511  0.00  0.00    +0.000 OA
ATOM     25  N   UNL     1      53.313 -37.814  76.493  0.00  0.00    +0.000 N 
ATOM     26  H   UNL     1      53.437 -36.808  76.531  0.00  0.00    +0.000 HD
ATOM     27  H   UNL     1      53.955 -38.392  77.018  0.00  0.00    +0.000 HD
ENDBRANCH  16  23
BRANCH   8  28
ATOM     28  N   UNL     1      51.422 -34.236  74.192  0.00  0.00    +0.000 NA
ATOM     29  C   UNL     1      51.309 -32.813  74.477  0.00  0.00    +0.000 C 
ATOM     30  C   UNL     1      52.818 -34.605  74.301  0.00  0.00    +0.000 C 
ENDBRANCH   8  28
BRANCH  12  31
ATOM     31  O   UNL     1      50.218 -39.165  74.214  0.00  0.00    +0.000 OA
ATOM     32  H   UNL     1      49.883 -39.175  73.288  0.00  0.00    +0.000 HD
ENDBRANCH  12  31
BRANCH   7  33
ATOM     33  O   UNL     1      49.549 -36.963  72.603  0.00  0.00    +0.000 OA
ATOM     34  H   UNL     1      50.096 -36.178  72.418  0.00  0.00    +0.000 HD
ENDBRANCH   7  33
BRANCH  15  35
ATOM     35  O   UNL     1      45.410 -39.016  75.086  0.00  0.00    +0.000 OA
ATOM     36  H   UNL     1      44.923 -39.006  74.235  0.00  0.00    +0.000 HD
ENDBRANCH  15  35
BRANCH   9  37
ATOM     37  O   UNL     1      46.175 -33.928  76.966  0.00  0.00    +0.000 OA
ATOM     38  H   UNL     1      45.358 -33.558  77.349  0.00  0.00    +0.000 HD
ENDBRANCH   9  37
BRANCH  20  39
ATOM     39  O   UNL     1      43.766 -39.348  77.075  0.00  0.00    +0.000 OA
ATOM     40  H   UNL     1      44.586 -39.619  76.627  0.00  0.00    +0.000 HD
ENDBRANCH  20  39
TORSDOF 7
ENDMDL
MODEL 8
REMARK VINA RESULT:      -6.1     16.691     19.243
REMARK  Name = Chlortetracycline.pdbqt.pdb
REMARK  7 active torsions:
REMARK  status: ('A' for Active; 'I' for Inactive)
REMARK    1  A    between atoms: C_7  and  O_30
REMARK    2  A    between atoms: C_8  and  N_32
REMARK    3  A    between atoms: C_9  and  O_37
REMARK    4  A    between atoms: C_12  and  O_28
REMARK    5  A    between atoms: C_15  and  O_35
REMARK    6  A    between atoms: C_16  and  C_23
REMARK    7  A    between atoms: C_20  and  O_39
REMARK                            x       y       z     vdW  Elec       q    Type
REMARK                         _______ _______ _______ _____ _____    ______ ____
ROOT
ATOM      1 CL   UNL     1      67.945 -45.775  62.828  0.00  0.00    +0.000 Cl
ATOM      2  O   UNL     1      61.910 -46.788  57.945  0.00  0.00    +0.000 OA
ATOM      3  O   UNL     1      60.100 -48.535  63.571  0.00  0.00    +0.000 OA
ATOM      4  C   UNL     1      62.079 -49.158  60.822  0.00  0.00    +0.000 C 
ATOM      5  C   UNL     1      64.029 -47.381  60.865  0.00  0.00    +0.000 C 
ATOM      6  C   UNL     1      63.287 -48.533  61.194  0.00  0.00    +0.000 C 
ATOM      7  C   UNL     1      61.376 -48.447  59.690  0.00  0.00    +0.000 C 
ATOM      8  C   UNL     1      61.222 -49.723  61.850  0.00  0.00    +0.000 C 
ATOM      9  C   UNL     1      65.411 -47.019  61.334  0.00  0.00    +0.000 C 
ATOM     10  C   UNL     1      63.401 -46.628  59.800  0.00  0.00    +0.000 C 
ATOM     11  C   UNL     1      62.220 -47.243  59.055  0.00  0.00    +0.000 C 
ATOM     12  C   UNL     1      60.009 -47.883  60.090  0.00  0.00    +0.000 C 
ATOM     13  C   UNL     1      65.767 -45.557  61.113  0.00  0.00    +0.000 A 
ATOM     14  C   UNL     1      60.211 -48.764  62.376  0.00  0.00    +0.000 C 
ATOM     15  C   UNL     1      63.871 -45.417  59.450  0.00  0.00    +0.000 C 
ATOM     16  C   UNL     1      59.468 -47.998  61.325  0.00  0.00    +0.000 C 
ATOM     17  C   UNL     1      64.986 -44.771  60.211  0.00  0.00    +0.000 A 
ATOM     18  C   UNL     1      66.418 -47.960  60.642  0.00  0.00    +0.000 C 
ATOM     19  C   UNL     1      66.860 -44.945  61.769  0.00  0.00    +0.000 A 
ATOM     20  C   UNL     1      65.298 -43.401  60.074  0.00  0.00    +0.000 A 
ATOM     21  C   UNL     1      67.157 -43.597  61.580  0.00  0.00    +0.000 A 
ATOM     22  C   UNL     1      66.371 -42.823  60.748  0.00  0.00    +0.000 A 
ENDROOT
BRANCH  16  23
ATOM     23  C   UNL     1      58.113 -47.481  61.665  0.00  0.00    +0.000 C 
ATOM     24  O   UNL     1      57.091 -48.038  61.286  0.00  0.00    +0.000 OA
ATOM     25  N   UNL     1      58.053 -46.342  62.407  0.00  0.00    +0.000 N 
ATOM     26  H   UNL     1      58.865 -45.737  62.477  0.00  0.00    +0.000 HD
ATOM     27  H   UNL     1      57.140 -45.928  62.535  0.00  0.00    +0.000 HD
ENDBRANCH  16  23
BRANCH   8  28
ATOM     28  N   UNL     1      60.948 -51.134  61.910  0.00  0.00    +0.000 NA
ATOM     29  C   UNL     1      59.583 -51.490  61.550  0.00  0.00    +0.000 C 
ATOM     30  C   UNL     1      61.847 -51.941  61.109  0.00  0.00    +0.000 C 
ENDBRANCH   8  28
BRANCH  12  31
ATOM     31  O   UNL     1      59.288 -47.285  59.052  0.00  0.00    +0.000 OA
ATOM     32  H   UNL     1      58.427 -46.972  59.414  0.00  0.00    +0.000 HD
ENDBRANCH  12  31
BRANCH   7  33
ATOM     33  O   UNL     1      61.087 -49.409  58.674  0.00  0.00    +0.000 OA
ATOM     34  H   UNL     1      61.514 -50.250  58.923  0.00  0.00    +0.000 HD
ENDBRANCH   7  33
BRANCH  15  35
ATOM     35  O   UNL     1      63.384 -44.705  58.374  0.00  0.00    +0.000 OA
ATOM     36  H   UNL     1      62.439 -44.485  58.510  0.00  0.00    +0.000 HD
ENDBRANCH  15  35
BRANCH   9  37
ATOM     37  O   UNL     1      65.449 -47.336  62.712  0.00  0.00    +0.000 OA
ATOM     38  H   UNL     1      66.156 -46.741  63.023  0.00  0.00    +0.000 HD
ENDBRANCH   9  37
BRANCH  20  39
ATOM     39  O   UNL     1      64.532 -42.565  59.308  0.00  0.00    +0.000 OA
ATOM     40  H   UNL     1      63.889 -42.105  59.874  0.00  0.00    +0.000 HD
ENDBRANCH  20  39
TORSDOF 7
ENDMDL
MODEL 9
REMARK VINA RESULT:      -6.1      4.381      8.192
REMARK  Name = Chlortetracycline.pdbqt.pdb
REMARK  7 active torsions:
REMARK  status: ('A' for Active; 'I' for Inactive)
REMARK    1  A    between atoms: C_7  and  O_30
REMARK    2  A    between atoms: C_8  and  N_32
REMARK    3  A    between atoms: C_9  and  O_37
REMARK    4  A    between atoms: C_12  and  O_28
REMARK    5  A    between atoms: C_15  and  O_35
REMARK    6  A    between atoms: C_16  and  C_23
REMARK    7  A    between atoms: C_20  and  O_39
REMARK                            x       y       z     vdW  Elec       q    Type
REMARK                         _______ _______ _______ _____ _____    ______ ____
ROOT
ATOM      1 CL   UNL     1      41.122 -51.679  48.264  0.00  0.00    +0.000 Cl
ATOM      2  O   UNL     1      43.630 -45.466  52.315  0.00  0.00    +0.000 OA
ATOM      3  O   UNL     1      48.362 -47.582  48.983  0.00  0.00    +0.000 OA
ATOM      4  C   UNL     1      46.196 -48.082  51.612  0.00  0.00    +0.000 C 
ATOM      5  C   UNL     1      43.845 -48.670  50.566  0.00  0.00    +0.000 C 
ATOM      6  C   UNL     1      45.175 -48.839  51.000  0.00  0.00    +0.000 C 
ATOM      7  C   UNL     1      45.745 -46.692  51.993  0.00  0.00    +0.000 C 
ATOM      8  C   UNL     1      47.560 -48.202  51.129  0.00  0.00    +0.000 C 
ATOM      9  C   UNL     1      42.909 -49.729  50.056  0.00  0.00    +0.000 C 
ATOM     10  C   UNL     1      43.350 -47.344  50.871  0.00  0.00    +0.000 C 
ATOM     11  C   UNL     1      44.181 -46.431  51.767  0.00  0.00    +0.000 C 
ATOM     12  C   UNL     1      46.502 -45.589  51.246  0.00  0.00    +0.000 C 
ATOM     13  C   UNL     1      41.700 -49.171  49.320  0.00  0.00    +0.000 A 
ATOM     14  C   UNL     1      47.898 -47.226  50.056  0.00  0.00    +0.000 C 
ATOM     15  C   UNL     1      42.157 -46.935  50.400  0.00  0.00    +0.000 C 
ATOM     16  C   UNL     1      47.478 -45.816  50.335  0.00  0.00    +0.000 C 
ATOM     17  C   UNL     1      41.359 -47.792  49.470  0.00  0.00    +0.000 A 
ATOM     18  C   UNL     1      42.488 -50.616  51.246  0.00  0.00    +0.000 C 
ATOM     19  C   UNL     1      40.889 -49.981  48.490  0.00  0.00    +0.000 A 
ATOM     20  C   UNL     1      40.272 -47.287  48.724  0.00  0.00    +0.000 A 
ATOM     21  C   UNL     1      39.804 -49.451  47.797  0.00  0.00    +0.000 A 
ATOM     22  C   UNL     1      39.504 -48.106  47.900  0.00  0.00    +0.000 A 
ENDROOT
BRANCH  16  23
ATOM     23  C   UNL     1      48.229 -44.717  49.666  0.00  0.00    +0.000 C 
ATOM     24  O   UNL     1      47.662 -43.785  49.111  0.00  0.00    +0.000 OA
ATOM     25  N   UNL     1      49.587 -44.799  49.679  0.00  0.00    +0.000 N 
ATOM     26  H   UNL     1      50.042 -45.684  49.878  0.00  0.00    +0.000 HD
ATOM     27  H   UNL     1      50.091 -44.120  49.125  0.00  0.00    +0.000 HD
ENDBRANCH  16  23
BRANCH   8  28
ATOM     28  N   UNL     1      48.612 -48.721  51.962  0.00  0.00    +0.000 NA
ATOM     29  C   UNL     1      49.025 -50.074  51.621  0.00  0.00    +0.000 C 
ATOM     30  C   UNL     1      49.796 -47.887  51.999  0.00  0.00    +0.000 C 
ENDBRANCH   8  28
BRANCH  12  31
ATOM     31  O   UNL     1      46.174 -44.284  51.623  0.00  0.00    +0.000 OA
ATOM     32  H   UNL     1      47.006 -43.762  51.691  0.00  0.00    +0.000 HD
ENDBRANCH  12  31
BRANCH   7  33
ATOM     33  O   UNL     1      46.066 -46.483  53.369  0.00  0.00    +0.000 OA
ATOM     34  H   UNL     1      45.503 -45.761  53.705  0.00  0.00    +0.000 HD
ENDBRANCH   7  33
BRANCH  15  35
ATOM     35  O   UNL     1      41.586 -45.730  50.749  0.00  0.00    +0.000 OA
ATOM     36  H   UNL     1      42.215 -44.995  50.587  0.00  0.00    +0.000 HD
ENDBRANCH  15  35
BRANCH   9  37
ATOM     37  O   UNL     1      43.678 -50.549  49.198  0.00  0.00    +0.000 OA
ATOM     38  H   UNL     1      44.228 -51.033  49.841  0.00  0.00    +0.000 HD
ENDBRANCH   9  37
BRANCH  20  39
ATOM     39  O   UNL     1      39.951 -45.956  48.738  0.00  0.00    +0.000 OA
ATOM     40  H   UNL     1      40.739 -45.430  48.519  0.00  0.00    +0.000 HD
ENDBRANCH  20  39
TORSDOF 7
ENDMDL
