MODEL 1
REMARK VINA RESULT:      -6.9      0.000      0.000
REMARK  Name = Ciclopirox.pdbqt.pdb
REMARK  2 active torsions:
REMARK  status: ('A' for Active; 'I' for Inactive)
REMARK    1  A    between atoms: N_2  and  O_15
REMARK    2  A    between atoms: C_3  and  C_9
REMARK                            x       y       z     vdW  Elec       q    Type
REMARK                         _______ _______ _______ _____ _____    ______ ____
ROOT
ATOM      1  O   UNL     1      48.638 -42.592  49.897  0.00  0.00    +0.000 OA
ATOM      2  N   UNL     1      48.552 -40.355  50.584  0.00  0.00    +0.000 N 
ATOM      3  C   UNL     1      48.576 -39.000  50.227  0.00  0.00    +0.000 C 
ATOM      4  C   UNL     1      48.751 -38.852  48.938  0.00  0.00    +0.000 C 
ATOM      5  C   UNL     1      48.943 -39.693  47.803  0.00  0.00    +0.000 C 
ATOM      6  C   UNL     1      48.695 -41.396  49.649  0.00  0.00    +0.000 C 
ATOM      7  C   UNL     1      48.892 -40.887  48.312  0.00  0.00    +0.000 C 
ATOM      8  C   UNL     1      49.951 -39.338  46.761  0.00  0.00    +0.000 C 
ENDROOT
BRANCH   3   9
ATOM      9  C   UNL     1      48.414 -37.906  51.141  0.00  0.00    +0.000 A 
ATOM     10  C   UNL     1      47.194 -37.144  51.278  0.00  0.00    +0.000 A 
ATOM     11  C   UNL     1      46.922 -35.807  52.004  0.00  0.00    +0.000 A 
ATOM     12  C   UNL     1      48.129 -35.158  52.707  0.00  0.00    +0.000 A 
ATOM     13  C   UNL     1      49.478 -35.895  52.621  0.00  0.00    +0.000 A 
ATOM     14  C   UNL     1      49.479 -37.223  51.831  0.00  0.00    +0.000 A 
ENDBRANCH   3   9
BRANCH   2  15
ATOM     15  O   UNL     1      48.282 -40.705  51.921  0.00  0.00    +0.000 OA
ATOM     16  H   UNL     1      47.620 -41.420  51.824  0.00  0.00    +0.000 HD
ENDBRANCH   2  15
TORSDOF 2
ENDMDL
MODEL 2
REMARK VINA RESULT:      -6.8      1.750      2.836
REMARK  Name = Ciclopirox.pdbqt.pdb
REMARK  2 active torsions:
REMARK  status: ('A' for Active; 'I' for Inactive)
REMARK    1  A    between atoms: N_2  and  O_15
REMARK    2  A    between atoms: C_3  and  C_9
REMARK                            x       y       z     vdW  Elec       q    Type
REMARK                         _______ _______ _______ _____ _____    ______ ____
ROOT
ATOM      1  O   UNL     1      48.816 -40.673  47.235  0.00  0.00    +0.000 OA
ATOM      2  N   UNL     1      48.533 -39.152  48.993  0.00  0.00    +0.000 N 
ATOM      3  C   UNL     1      48.385 -38.942  50.371  0.00  0.00    +0.000 C 
ATOM      4  C   UNL     1      48.358 -40.077  51.024  0.00  0.00    +0.000 C 
ATOM      5  C   UNL     1      48.418 -41.467  50.712  0.00  0.00    +0.000 C 
ATOM      6  C   UNL     1      48.641 -40.433  48.421  0.00  0.00    +0.000 C 
ATOM      7  C   UNL     1      48.553 -41.472  49.420  0.00  0.00    +0.000 C 
ATOM      8  C   UNL     1      47.514 -42.435  51.399  0.00  0.00    +0.000 C 
ENDROOT
BRANCH   3   9
ATOM      9  C   UNL     1      48.291 -37.657  51.001  0.00  0.00    +0.000 A 
ATOM     10  C   UNL     1      49.366 -37.046  51.749  0.00  0.00    +0.000 A 
ATOM     11  C   UNL     1      49.364 -35.817  52.688  0.00  0.00    +0.000 A 
ATOM     12  C   UNL     1      48.010 -35.107  52.875  0.00  0.00    +0.000 A 
ATOM     13  C   UNL     1      46.800 -35.682  52.116  0.00  0.00    +0.000 A 
ATOM     14  C   UNL     1      47.073 -36.924  51.238  0.00  0.00    +0.000 A 
ENDBRANCH   3   9
BRANCH   2  15
ATOM     15  O   UNL     1      48.672 -38.038  48.143  0.00  0.00    +0.000 OA
ATOM     16  H   UNL     1      47.745 -37.752  48.014  0.00  0.00    +0.000 HD
ENDBRANCH   2  15
TORSDOF 2
ENDMDL
MODEL 3
REMARK VINA RESULT:      -5.4      1.980      2.871
REMARK  Name = Ciclopirox.pdbqt.pdb
REMARK  2 active torsions:
REMARK  status: ('A' for Active; 'I' for Inactive)
REMARK    1  A    between atoms: N_2  and  O_15
REMARK    2  A    between atoms: C_3  and  C_9
REMARK                            x       y       z     vdW  Elec       q    Type
REMARK                         _______ _______ _______ _____ _____    ______ ____
ROOT
ATOM      1  O   UNL     1      47.923 -42.227  47.538  0.00  0.00    +0.000 OA
ATOM      2  N   UNL     1      48.084 -40.576  49.191  0.00  0.00    +0.000 N 
ATOM      3  C   UNL     1      48.283 -40.261  50.542  0.00  0.00    +0.000 C 
ATOM      4  C   UNL     1      48.423 -41.344  51.266  0.00  0.00    +0.000 C 
ATOM      5  C   UNL     1      48.407 -42.753  51.055  0.00  0.00    +0.000 C 
ATOM      6  C   UNL     1      48.049 -41.896  48.709  0.00  0.00    +0.000 C 
ATOM      7  C   UNL     1      48.216 -42.857  49.774  0.00  0.00    +0.000 C 
ATOM      8  C   UNL     1      47.705 -43.654  52.017  0.00  0.00    +0.000 C 
ENDROOT
BRANCH   3   9
ATOM      9  C   UNL     1      48.346 -38.932  51.076  0.00  0.00    +0.000 A 
ATOM     10  C   UNL     1      47.294 -37.952  50.927  0.00  0.00    +0.000 A 
ATOM     11  C   UNL     1      47.291 -36.432  51.204  0.00  0.00    +0.000 A 
ATOM     12  C   UNL     1      48.611 -35.834  51.727  0.00  0.00    +0.000 A 
ATOM     13  C   UNL     1      49.795 -36.798  51.923  0.00  0.00    +0.000 A 
ATOM     14  C   UNL     1      49.533 -38.280  51.571  0.00  0.00    +0.000 A 
ENDBRANCH   3   9
BRANCH   2  15
ATOM     15  O   UNL     1      48.004 -39.530  48.250  0.00  0.00    +0.000 OA
ATOM     16  H   UNL     1      48.473 -38.800  48.704  0.00  0.00    +0.000 HD
ENDBRANCH   2  15
TORSDOF 2
ENDMDL
MODEL 4
REMARK VINA RESULT:      -5.1      3.979      5.289
REMARK  Name = Ciclopirox.pdbqt.pdb
REMARK  2 active torsions:
REMARK  status: ('A' for Active; 'I' for Inactive)
REMARK    1  A    between atoms: N_2  and  O_15
REMARK    2  A    between atoms: C_3  and  C_9
REMARK                            x       y       z     vdW  Elec       q    Type
REMARK                         _______ _______ _______ _____ _____    ______ ____
ROOT
ATOM      1  O   UNL     1      47.413 -41.819  52.249  0.00  0.00    +0.000 OA
ATOM      2  N   UNL     1      47.396 -41.255  49.976  0.00  0.00    +0.000 N 
ATOM      3  C   UNL     1      47.769 -41.585  48.665  0.00  0.00    +0.000 C 
ATOM      4  C   UNL     1      48.475 -42.688  48.638  0.00  0.00    +0.000 C 
ATOM      5  C   UNL     1      48.983 -43.631  49.578  0.00  0.00    +0.000 C 
ATOM      6  C   UNL     1      47.748 -42.034  51.093  0.00  0.00    +0.000 C 
ATOM      7  C   UNL     1      48.548 -43.176  50.715  0.00  0.00    +0.000 C 
ATOM      8  C   UNL     1      50.369 -44.166  49.440  0.00  0.00    +0.000 C 
ENDROOT
BRANCH   3   9
ATOM      9  C   UNL     1      47.418 -40.833  47.496  0.00  0.00    +0.000 A 
ATOM     10  C   UNL     1      46.353 -41.201  46.592  0.00  0.00    +0.000 A 
ATOM     11  C   UNL     1      46.005 -40.670  45.182  0.00  0.00    +0.000 A 
ATOM     12  C   UNL     1      46.925 -39.568  44.624  0.00  0.00    +0.000 A 
ATOM     13  C   UNL     1      48.092 -39.104  45.515  0.00  0.00    +0.000 A 
ATOM     14  C   UNL     1      48.219 -39.799  46.889  0.00  0.00    +0.000 A 
ENDBRANCH   3   9
BRANCH   2  15
ATOM     15  O   UNL     1      46.555 -40.145  50.187  0.00  0.00    +0.000 OA
ATOM     16  H   UNL     1      46.189 -40.323  51.078  0.00  0.00    +0.000 HD
ENDBRANCH   2  15
TORSDOF 2
ENDMDL
MODEL 5
REMARK VINA RESULT:      -5.0     13.456     15.766
REMARK  Name = Ciclopirox.pdbqt.pdb
REMARK  2 active torsions:
REMARK  status: ('A' for Active; 'I' for Inactive)
REMARK    1  A    between atoms: N_2  and  O_15
REMARK    2  A    between atoms: C_3  and  C_9
REMARK                            x       y       z     vdW  Elec       q    Type
REMARK                         _______ _______ _______ _____ _____    ______ ____
ROOT
ATOM      1  O   UNL     1      46.217 -54.576  59.126  0.00  0.00    +0.000 OA
ATOM      2  N   UNL     1      46.600 -53.405  57.134  0.00  0.00    +0.000 N 
ATOM      3  C   UNL     1      46.212 -53.150  55.811  0.00  0.00    +0.000 C 
ATOM      4  C   UNL     1      45.195 -53.897  55.463  0.00  0.00    +0.000 C 
ATOM      5  C   UNL     1      44.387 -54.910  56.056  0.00  0.00    +0.000 C 
ATOM      6  C   UNL     1      45.951 -54.345  57.955  0.00  0.00    +0.000 C 
ATOM      7  C   UNL     1      44.878 -55.012  57.255  0.00  0.00    +0.000 C 
ATOM      8  C   UNL     1      43.998 -56.121  55.275  0.00  0.00    +0.000 C 
ENDROOT
BRANCH   3   9
ATOM      9  C   UNL     1      46.829 -52.188  54.945  0.00  0.00    +0.000 A 
ATOM     10  C   UNL     1      46.371 -50.826  54.796  0.00  0.00    +0.000 A 
ATOM     11  C   UNL     1      46.740 -49.750  53.749  0.00  0.00    +0.000 A 
ATOM     12  C   UNL     1      47.764 -50.170  52.677  0.00  0.00    +0.000 A 
ATOM     13  C   UNL     1      48.316 -51.605  52.750  0.00  0.00    +0.000 A 
ATOM     14  C   UNL     1      47.781 -52.484  53.903  0.00  0.00    +0.000 A 
ENDBRANCH   3   9
BRANCH   2  15
ATOM     15  O   UNL     1      47.623 -52.627  57.709  0.00  0.00    +0.000 OA
ATOM     16  H   UNL     1      47.346 -52.570  58.646  0.00  0.00    +0.000 HD
ENDBRANCH   2  15
TORSDOF 2
ENDMDL
MODEL 6
REMARK VINA RESULT:      -4.8      8.170      9.647
REMARK  Name = Ciclopirox.pdbqt.pdb
REMARK  2 active torsions:
REMARK  status: ('A' for Active; 'I' for Inactive)
REMARK    1  A    between atoms: N_2  and  O_15
REMARK    2  A    between atoms: C_3  and  C_9
REMARK                            x       y       z     vdW  Elec       q    Type
REMARK                         _______ _______ _______ _____ _____    ______ ____
ROOT
ATOM      1  O   UNL     1      51.297 -44.102  46.069  0.00  0.00    +0.000 OA
ATOM      2  N   UNL     1      50.803 -45.719  47.690  0.00  0.00    +0.000 N 
ATOM      3  C   UNL     1      51.274 -46.706  48.568  0.00  0.00    +0.000 C 
ATOM      4  C   UNL     1      52.570 -46.859  48.457  0.00  0.00    +0.000 C 
ATOM      5  C   UNL     1      53.627 -46.309  47.675  0.00  0.00    +0.000 C 
ATOM      6  C   UNL     1      51.645 -45.002  46.821  0.00  0.00    +0.000 C 
ATOM      7  C   UNL     1      53.019 -45.430  46.936  0.00  0.00    +0.000 C 
ATOM      8  C   UNL     1      54.688 -47.194  47.110  0.00  0.00    +0.000 C 
ENDROOT
BRANCH   3   9
ATOM      9  C   UNL     1      50.458 -47.447  49.484  0.00  0.00    +0.000 A 
ATOM     10  C   UNL     1      50.728 -47.555  50.899  0.00  0.00    +0.000 A 
ATOM     11  C   UNL     1      50.124 -48.493  51.969  0.00  0.00    +0.000 A 
ATOM     12  C   UNL     1      49.055 -49.486  51.476  0.00  0.00    +0.000 A 
ATOM     13  C   UNL     1      48.694 -49.449  49.980  0.00  0.00    +0.000 A 
ATOM     14  C   UNL     1      49.448 -48.410  49.121  0.00  0.00    +0.000 A 
ENDBRANCH   3   9
BRANCH   2  15
ATOM     15  O   UNL     1      49.443 -45.356  47.736  0.00  0.00    +0.000 OA
ATOM     16  H   UNL     1      48.991 -46.198  47.520  0.00  0.00    +0.000 HD
ENDBRANCH   2  15
TORSDOF 2
ENDMDL
MODEL 7
REMARK VINA RESULT:      -4.8     23.265     24.533
REMARK  Name = Ciclopirox.pdbqt.pdb
REMARK  2 active torsions:
REMARK  status: ('A' for Active; 'I' for Inactive)
REMARK    1  A    between atoms: N_2  and  O_15
REMARK    2  A    between atoms: C_3  and  C_9
REMARK                            x       y       z     vdW  Elec       q    Type
REMARK                         _______ _______ _______ _____ _____    ______ ____
ROOT
ATOM      1  O   UNL     1      44.625 -53.784  70.759  0.00  0.00    +0.000 OA
ATOM      2  N   UNL     1      46.610 -54.255  69.608  0.00  0.00    +0.000 N 
ATOM      3  C   UNL     1      47.224 -54.709  68.433  0.00  0.00    +0.000 C 
ATOM      4  C   UNL     1      46.335 -55.077  67.545  0.00  0.00    +0.000 C 
ATOM      5  C   UNL     1      44.914 -55.160  67.457  0.00  0.00    +0.000 C 
ATOM      6  C   UNL     1      45.214 -54.211  69.776  0.00  0.00    +0.000 C 
ATOM      7  C   UNL     1      44.522 -54.708  68.610  0.00  0.00    +0.000 C 
ATOM      8  C   UNL     1      44.264 -56.349  66.830  0.00  0.00    +0.000 C 
ENDROOT
BRANCH   3   9
ATOM      9  C   UNL     1      48.640 -54.754  68.209  0.00  0.00    +0.000 A 
ATOM     10  C   UNL     1      49.554 -55.555  68.990  0.00  0.00    +0.000 A 
ATOM     11  C   UNL     1      51.098 -55.536  69.061  0.00  0.00    +0.000 A 
ATOM     12  C   UNL     1      51.806 -54.505  68.162  0.00  0.00    +0.000 A 
ATOM     13  C   UNL     1      50.918 -53.602  67.287  0.00  0.00    +0.000 A 
ATOM     14  C   UNL     1      49.393 -53.826  67.403  0.00  0.00    +0.000 A 
ENDBRANCH   3   9
BRANCH   2  15
ATOM     15  O   UNL     1      47.412 -53.734  70.641  0.00  0.00    +0.000 OA
ATOM     16  H   UNL     1      48.176 -54.346  70.647  0.00  0.00    +0.000 HD
ENDBRANCH   2  15
TORSDOF 2
ENDMDL
MODEL 8
REMARK VINA RESULT:      -4.7     12.456     14.905
REMARK  Name = Ciclopirox.pdbqt.pdb
REMARK  2 active torsions:
REMARK  status: ('A' for Active; 'I' for Inactive)
REMARK    1  A    between atoms: N_2  and  O_15
REMARK    2  A    between atoms: C_3  and  C_9
REMARK                            x       y       z     vdW  Elec       q    Type
REMARK                         _______ _______ _______ _____ _____    ______ ____
ROOT
ATOM      1  O   UNL     1      50.340 -54.607  55.446  0.00  0.00    +0.000 OA
ATOM      2  N   UNL     1      48.602 -53.166  54.825  0.00  0.00    +0.000 N 
ATOM      3  C   UNL     1      47.448 -52.464  55.200  0.00  0.00    +0.000 C 
ATOM      4  C   UNL     1      47.130 -52.706  56.447  0.00  0.00    +0.000 C 
ATOM      5  C   UNL     1      47.627 -53.503  57.519  0.00  0.00    +0.000 C 
ATOM      6  C   UNL     1      49.306 -54.008  55.704  0.00  0.00    +0.000 C 
ATOM      7  C   UNL     1      48.676 -54.070  57.002  0.00  0.00    +0.000 C 
ATOM      8  C   UNL     1      46.687 -54.267  58.392  0.00  0.00    +0.000 C 
ENDROOT
BRANCH   3   9
ATOM      9  C   UNL     1      46.710 -51.580  54.346  0.00  0.00    +0.000 A 
ATOM     10  C   UNL     1      45.693 -52.018  53.417  0.00  0.00    +0.000 A 
ATOM     11  C   UNL     1      44.992 -51.262  52.265  0.00  0.00    +0.000 A 
ATOM     12  C   UNL     1      45.428 -49.801  52.047  0.00  0.00    +0.000 A 
ATOM     13  C   UNL     1      46.508 -49.238  52.989  0.00  0.00    +0.000 A 
ATOM     14  C   UNL     1      47.047 -50.206  54.065  0.00  0.00    +0.000 A 
ENDBRANCH   3   9
BRANCH   2  15
ATOM     15  O   UNL     1      49.144 -52.955  53.542  0.00  0.00    +0.000 OA
ATOM     16  H   UNL     1      50.108 -53.013  53.706  0.00  0.00    +0.000 HD
ENDBRANCH   2  15
TORSDOF 2
ENDMDL
MODEL 9
REMARK VINA RESULT:      -4.7     17.844     19.705
REMARK  Name = Ciclopirox.pdbqt.pdb
REMARK  2 active torsions:
REMARK  status: ('A' for Active; 'I' for Inactive)
REMARK    1  A    between atoms: N_2  and  O_15
REMARK    2  A    between atoms: C_3  and  C_9
REMARK                            x       y       z     vdW  Elec       q    Type
REMARK                         _______ _______ _______ _____ _____    ______ ____
ROOT
ATOM      1  O   UNL     1      40.804 -30.367  67.203  0.00  0.00    +0.000 OA
ATOM      2  N   UNL     1      41.901 -28.871  65.773  0.00  0.00    +0.000 N 
ATOM      3  C   UNL     1      43.061 -28.142  65.478  0.00  0.00    +0.000 C 
ATOM      4  C   UNL     1      43.975 -28.311  66.400  0.00  0.00    +0.000 C 
ATOM      5  C   UNL     1      44.103 -29.020  67.631  0.00  0.00    +0.000 C 
ATOM      6  C   UNL     1      41.773 -29.676  66.919  0.00  0.00    +0.000 C 
ATOM      7  C   UNL     1      42.960 -29.626  67.741  0.00  0.00    +0.000 C 
ATOM      8  C   UNL     1      44.753 -28.376  68.810  0.00  0.00    +0.000 C 
ENDROOT
BRANCH   3   9
ATOM      9  C   UNL     1      43.245 -27.325  64.314  0.00  0.00    +0.000 A 
ATOM     10  C   UNL     1      44.205 -27.610  63.273  0.00  0.00    +0.000 A 
ATOM     11  C   UNL     1      44.710 -26.733  62.104  0.00  0.00    +0.000 A 
ATOM     12  C   UNL     1      44.108 -25.318  62.007  0.00  0.00    +0.000 A 
ATOM     13  C   UNL     1      43.070 -24.918  63.072  0.00  0.00    +0.000 A 
ATOM     14  C   UNL     1      42.738 -25.987  64.137  0.00  0.00    +0.000 A 
ENDBRANCH   3   9
BRANCH   2  15
ATOM     15  O   UNL     1      40.844 -28.879  64.843  0.00  0.00    +0.000 OA
ATOM     16  H   UNL     1      40.934 -28.005  64.411  0.00  0.00    +0.000 HD
ENDBRANCH   2  15
TORSDOF 2
ENDMDL
