MODEL 1
REMARK VINA RESULT:      -7.4      0.000      0.000
REMARK  Name = 
REMARK  5 active torsions:
REMARK  status: ('A' for Active; 'I' for Inactive)
REMARK    1  A    between atoms: O_5  and  C_10
REMARK    2  A    between atoms: N_9  and  C_20
REMARK    3  A    between atoms: N_9  and  C_25
REMARK    4  A    between atoms: C_10  and  C_11
REMARK    5  A    between atoms: C_18  and  C_19
REMARK                            x       y       z     vdW  Elec       q    Type
REMARK                         _______ _______ _______ _____ _____    ______ ____
ROOT
ATOM      1  F   UNL     1      50.660 -43.883  47.590  0.00  0.00    +0.000 F 
ATOM      2  F   UNL     1      52.509 -45.846  47.719  0.00  0.00    +0.000 F 
ATOM      3  C   UNL     1      49.372 -45.847  50.370  0.00  0.00    +0.000 A 
ATOM      4  C   UNL     1      49.443 -44.805  49.418  0.00  0.00    +0.000 A 
ATOM      5  C   UNL     1      50.330 -46.874  50.421  0.00  0.00    +0.000 A 
ATOM      6  C   UNL     1      50.530 -44.828  48.534  0.00  0.00    +0.000 A 
ATOM      7  C   UNL     1      51.392 -46.869  49.520  0.00  0.00    +0.000 A 
ATOM      8  C   UNL     1      51.483 -45.847  48.583  0.00  0.00    +0.000 A 
ENDROOT
BRANCH   3  14
ATOM      9  O   UNL     1      48.452 -45.352  52.457  0.00  0.00    +0.000 OA
ATOM     10  N   UNL     1      47.104 -46.489  50.977  0.00  0.00    +0.000 N 
ATOM     11  C   UNL     1      46.203 -48.344  51.293  0.00  0.00    +0.000 C 
ATOM     12  C   UNL     1      46.953 -47.660  50.115  0.00  0.00    +0.000 C 
ATOM     13  C   UNL     1      46.041 -46.912  51.886  0.00  0.00    +0.000 C 
ATOM     14  C   UNL     1      48.268 -45.855  51.354  0.00  0.00    +0.000 C 
BRANCH  11  16
ATOM     15  N   UNL     1      46.139 -49.953  53.180  0.00  0.00    +0.000 NA
ATOM     16  C   UNL     1      47.039 -49.274  52.213  0.00  0.00    +0.000 C 
ATOM     17  C   UNL     1      47.803 -50.334  51.402  0.00  0.00    +0.000 C 
ATOM     18  C   UNL     1      48.601 -51.259  52.322  0.00  0.00    +0.000 C 
ATOM     19  C   UNL     1      46.930 -50.740  54.137  0.00  0.00    +0.000 C 
ATOM     20  C   UNL     1      47.721 -51.836  53.426  0.00  0.00    +0.000 C 
ATOM     21  H   UNL     1      45.561 -50.616  52.656  0.00  0.00    +0.000 HD
ENDBRANCH  11  16
BRANCH  11  22
ATOM     22  O   UNL     1      44.952 -48.996  50.927  0.00  0.00    +0.000 OA
ATOM     23  H   UNL     1      44.392 -48.854  51.713  0.00  0.00    +0.000 HD
ENDBRANCH  11  22
ENDBRANCH   3  14
BRANCH   4  24
ATOM     24  N   UNL     1      48.493 -43.762  49.445  0.00  0.00    +0.000 N 
ATOM     25  H   UNL     1      47.521 -44.090  49.396  0.00  0.00    +0.000 HD
BRANCH  24  28
ATOM     26  I   UNL     1      48.771 -37.659  50.990  0.00  0.00    +0.000 I 
ATOM     27  F   UNL     1      47.200 -42.745  51.635  0.00  0.00    +0.000 F 
ATOM     28  C   UNL     1      48.595 -42.392  49.751  0.00  0.00    +0.000 A 
ATOM     29  C   UNL     1      47.907 -41.895  50.873  0.00  0.00    +0.000 A 
ATOM     30  C   UNL     1      49.322 -41.475  48.985  0.00  0.00    +0.000 A 
ATOM     31  C   UNL     1      47.945 -40.552  51.238  0.00  0.00    +0.000 A 
ATOM     32  C   UNL     1      49.370 -40.120  49.338  0.00  0.00    +0.000 A 
ATOM     33  C   UNL     1      48.684 -39.665  50.464  0.00  0.00    +0.000 A 
ENDBRANCH  24  28
ENDBRANCH   4  24
TORSDOF 5
ENDMDL
MODEL 2
REMARK VINA RESULT:      -7.3      2.473      3.421
REMARK  Name = 
REMARK  5 active torsions:
REMARK  status: ('A' for Active; 'I' for Inactive)
REMARK    1  A    between atoms: O_5  and  C_10
REMARK    2  A    between atoms: N_9  and  C_20
REMARK    3  A    between atoms: N_9  and  C_25
REMARK    4  A    between atoms: C_10  and  C_11
REMARK    5  A    between atoms: C_18  and  C_19
REMARK                            x       y       z     vdW  Elec       q    Type
REMARK                         _______ _______ _______ _____ _____    ______ ____
ROOT
ATOM      1  F   UNL     1      47.275 -41.174  46.807  0.00  0.00    +0.000 F 
ATOM      2  F   UNL     1      45.407 -42.749  45.659  0.00  0.00    +0.000 F 
ATOM      3  C   UNL     1      47.600 -44.190  48.818  0.00  0.00    +0.000 A 
ATOM      4  C   UNL     1      47.859 -42.876  48.368  0.00  0.00    +0.000 A 
ATOM      5  C   UNL     1      46.616 -44.998  48.224  0.00  0.00    +0.000 A 
ATOM      6  C   UNL     1      47.100 -42.417  47.282  0.00  0.00    +0.000 A 
ATOM      7  C   UNL     1      45.874 -44.505  47.154  0.00  0.00    +0.000 A 
ATOM      8  C   UNL     1      46.122 -43.218  46.692  0.00  0.00    +0.000 A 
ENDROOT
BRANCH   3  14
ATOM      9  O   UNL     1      49.501 -45.219  49.698  0.00  0.00    +0.000 OA
ATOM     10  N   UNL     1      47.807 -44.735  51.180  0.00  0.00    +0.000 N 
ATOM     11  C   UNL     1      46.803 -46.095  52.404  0.00  0.00    +0.000 C 
ATOM     12  C   UNL     1      46.391 -44.891  51.509  0.00  0.00    +0.000 C 
ATOM     13  C   UNL     1      48.250 -45.523  52.329  0.00  0.00    +0.000 C 
ATOM     14  C   UNL     1      48.395 -44.743  49.935  0.00  0.00    +0.000 C 
BRANCH  11  16
ATOM     15  N   UNL     1      47.264 -48.513  52.708  0.00  0.00    +0.000 NA
ATOM     16  C   UNL     1      46.693 -47.509  51.773  0.00  0.00    +0.000 C 
ATOM     17  C   UNL     1      45.232 -47.879  51.464  0.00  0.00    +0.000 C 
ATOM     18  C   UNL     1      45.136 -49.284  50.869  0.00  0.00    +0.000 C 
ATOM     19  C   UNL     1      47.280 -49.839  52.073  0.00  0.00    +0.000 C 
ATOM     20  C   UNL     1      45.865 -50.305  51.736  0.00  0.00    +0.000 C 
ATOM     21  H   UNL     1      46.640 -48.578  53.516  0.00  0.00    +0.000 HD
ENDBRANCH  11  16
BRANCH  11  22
ATOM     22  O   UNL     1      46.217 -46.096  53.738  0.00  0.00    +0.000 OA
ATOM     23  H   UNL     1      45.522 -45.414  53.673  0.00  0.00    +0.000 HD
ENDBRANCH  11  22
ENDBRANCH   3  14
BRANCH   4  24
ATOM     24  N   UNL     1      48.901 -42.124  48.953  0.00  0.00    +0.000 N 
ATOM     25  H   UNL     1      49.834 -42.520  48.791  0.00  0.00    +0.000 HD
BRANCH  24  28
ATOM     26  I   UNL     1      48.871 -36.404  51.597  0.00  0.00    +0.000 I 
ATOM     27  F   UNL     1      47.216 -41.470  51.012  0.00  0.00    +0.000 F 
ATOM     28  C   UNL     1      48.941 -40.834  49.514  0.00  0.00    +0.000 A 
ATOM     29  C   UNL     1      48.053 -40.522  50.560  0.00  0.00    +0.000 A 
ATOM     30  C   UNL     1      49.797 -39.820  49.075  0.00  0.00    +0.000 A 
ATOM     31  C   UNL     1      48.018 -39.267  51.161  0.00  0.00    +0.000 A 
ATOM     32  C   UNL     1      49.775 -38.551  49.669  0.00  0.00    +0.000 A 
ATOM     33  C   UNL     1      48.888 -38.281  50.711  0.00  0.00    +0.000 A 
ENDBRANCH  24  28
ENDBRANCH   4  24
TORSDOF 5
ENDMDL
MODEL 3
REMARK VINA RESULT:      -7.2      2.974      4.777
REMARK  Name = 
REMARK  5 active torsions:
REMARK  status: ('A' for Active; 'I' for Inactive)
REMARK    1  A    between atoms: O_5  and  C_10
REMARK    2  A    between atoms: N_9  and  C_20
REMARK    3  A    between atoms: N_9  and  C_25
REMARK    4  A    between atoms: C_10  and  C_11
REMARK    5  A    between atoms: C_18  and  C_19
REMARK                            x       y       z     vdW  Elec       q    Type
REMARK                         _______ _______ _______ _____ _____    ______ ____
ROOT
ATOM      1  F   UNL     1      50.241 -43.177  48.207  0.00  0.00    +0.000 F 
ATOM      2  F   UNL     1      49.175 -40.696  48.221  0.00  0.00    +0.000 F 
ATOM      3  C   UNL     1      48.047 -43.398  51.101  0.00  0.00    +0.000 A 
ATOM      4  C   UNL     1      48.986 -43.810  50.129  0.00  0.00    +0.000 A 
ATOM      5  C   UNL     1      47.507 -42.100  51.111  0.00  0.00    +0.000 A 
ATOM      6  C   UNL     1      49.344 -42.868  49.155  0.00  0.00    +0.000 A 
ATOM      7  C   UNL     1      47.894 -41.188  50.133  0.00  0.00    +0.000 A 
ATOM      8  C   UNL     1      48.809 -41.578  49.163  0.00  0.00    +0.000 A 
ENDROOT
BRANCH   3  14
ATOM      9  O   UNL     1      48.278 -44.496  53.148  0.00  0.00    +0.000 OA
ATOM     10  N   UNL     1      46.471 -45.092  51.852  0.00  0.00    +0.000 N 
ATOM     11  C   UNL     1      46.024 -47.007  51.154  0.00  0.00    +0.000 C 
ATOM     12  C   UNL     1      46.006 -45.573  50.553  0.00  0.00    +0.000 C 
ATOM     13  C   UNL     1      46.060 -46.311  52.547  0.00  0.00    +0.000 C 
ATOM     14  C   UNL     1      47.603 -44.360  52.132  0.00  0.00    +0.000 C 
BRANCH  11  16
ATOM     15  N   UNL     1      48.211 -47.759  52.049  0.00  0.00    +0.000 NA
ATOM     16  C   UNL     1      47.289 -47.865  50.889  0.00  0.00    +0.000 C 
ATOM     17  C   UNL     1      46.932 -49.345  50.660  0.00  0.00    +0.000 C 
ATOM     18  C   UNL     1      48.190 -50.182  50.426  0.00  0.00    +0.000 C 
ATOM     19  C   UNL     1      49.467 -48.465  51.759  0.00  0.00    +0.000 C 
ATOM     20  C   UNL     1      49.220 -49.955  51.528  0.00  0.00    +0.000 C 
ATOM     21  H   UNL     1      47.775 -48.240  52.840  0.00  0.00    +0.000 HD
ENDBRANCH  11  16
BRANCH  11  22
ATOM     22  O   UNL     1      44.823 -47.794  50.898  0.00  0.00    +0.000 OA
ATOM     23  H   UNL     1      45.168 -48.573  50.422  0.00  0.00    +0.000 HD
ENDBRANCH  11  22
ENDBRANCH   3  14
BRANCH   4  24
ATOM     24  N   UNL     1      49.453 -45.142  50.121  0.00  0.00    +0.000 N 
ATOM     25  H   UNL     1      49.062 -45.718  50.875  0.00  0.00    +0.000 HD
BRANCH  24  28
ATOM     26  I   UNL     1      52.404 -48.592  45.752  0.00  0.00    +0.000 I 
ATOM     27  F   UNL     1      48.114 -46.358  48.064  0.00  0.00    +0.000 F 
ATOM     28  C   UNL     1      50.162 -45.894  49.166  0.00  0.00    +0.000 A 
ATOM     29  C   UNL     1      49.445 -46.520  48.130  0.00  0.00    +0.000 A 
ATOM     30  C   UNL     1      51.546 -46.086  49.197  0.00  0.00    +0.000 A 
ATOM     31  C   UNL     1      50.067 -47.293  47.152  0.00  0.00    +0.000 A 
ATOM     32  C   UNL     1      52.188 -46.861  48.221  0.00  0.00    +0.000 A 
ATOM     33  C   UNL     1      51.446 -47.458  47.203  0.00  0.00    +0.000 A 
ENDBRANCH  24  28
ENDBRANCH   4  24
TORSDOF 5
ENDMDL
MODEL 4
REMARK VINA RESULT:      -6.9      3.905      6.504
REMARK  Name = 
REMARK  5 active torsions:
REMARK  status: ('A' for Active; 'I' for Inactive)
REMARK    1  A    between atoms: O_5  and  C_10
REMARK    2  A    between atoms: N_9  and  C_20
REMARK    3  A    between atoms: N_9  and  C_25
REMARK    4  A    between atoms: C_10  and  C_11
REMARK    5  A    between atoms: C_18  and  C_19
REMARK                            x       y       z     vdW  Elec       q    Type
REMARK                         _______ _______ _______ _____ _____    ______ ____
ROOT
ATOM      1  F   UNL     1      50.561 -37.413  48.713  0.00  0.00    +0.000 F 
ATOM      2  F   UNL     1      49.729 -37.085  51.260  0.00  0.00    +0.000 F 
ATOM      3  C   UNL     1      48.450 -40.349  49.122  0.00  0.00    +0.000 A 
ATOM      4  C   UNL     1      49.315 -39.430  48.486  0.00  0.00    +0.000 A 
ATOM      5  C   UNL     1      48.033 -40.179  50.453  0.00  0.00    +0.000 A 
ATOM      6  C   UNL     1      49.727 -38.322  49.240  0.00  0.00    +0.000 A 
ATOM      7  C   UNL     1      48.470 -39.071  51.174  0.00  0.00    +0.000 A 
ATOM      8  C   UNL     1      49.313 -38.152  50.562  0.00  0.00    +0.000 A 
ENDROOT
BRANCH   3  14
ATOM      9  O   UNL     1      46.841 -41.461  47.848  0.00  0.00    +0.000 OA
ATOM     10  N   UNL     1      48.762 -42.631  48.337  0.00  0.00    +0.000 N 
ATOM     11  C   UNL     1      48.881 -44.459  49.336  0.00  0.00    +0.000 C 
ATOM     12  C   UNL     1      49.664 -43.116  49.380  0.00  0.00    +0.000 C 
ATOM     13  C   UNL     1      48.336 -43.977  47.959  0.00  0.00    +0.000 C 
ATOM     14  C   UNL     1      47.952 -41.518  48.364  0.00  0.00    +0.000 C 
BRANCH  11  16
ATOM     15  N   UNL     1      46.763 -45.632  49.873  0.00  0.00    +0.000 NA
ATOM     16  C   UNL     1      47.753 -44.650  50.385  0.00  0.00    +0.000 C 
ATOM     17  C   UNL     1      48.310 -45.147  51.730  0.00  0.00    +0.000 C 
ATOM     18  C   UNL     1      47.186 -45.356  52.745  0.00  0.00    +0.000 C 
ATOM     19  C   UNL     1      45.626 -45.729  50.800  0.00  0.00    +0.000 C 
ATOM     20  C   UNL     1      46.076 -46.230  52.171  0.00  0.00    +0.000 C 
ATOM     21  H   UNL     1      47.213 -46.551  49.857  0.00  0.00    +0.000 HD
ENDBRANCH  11  16
BRANCH  11  22
ATOM     22  O   UNL     1      49.715 -45.653  49.276  0.00  0.00    +0.000 OA
ATOM     23  H   UNL     1      49.114 -46.323  48.900  0.00  0.00    +0.000 HD
ENDBRANCH  11  22
ENDBRANCH   3  14
BRANCH   4  24
ATOM     24  N   UNL     1      49.656 -39.608  47.128  0.00  0.00    +0.000 N 
ATOM     25  H   UNL     1      50.013 -40.547  46.915  0.00  0.00    +0.000 HD
BRANCH  24  28
ATOM     26  I   UNL     1      48.689 -36.303  41.851  0.00  0.00    +0.000 I 
ATOM     27  F   UNL     1      50.936 -40.193  44.778  0.00  0.00    +0.000 F 
ATOM     28  C   UNL     1      49.397 -38.844  45.975  0.00  0.00    +0.000 A 
ATOM     29  C   UNL     1      50.081 -39.158  44.787  0.00  0.00    +0.000 A 
ATOM     30  C   UNL     1      48.514 -37.761  45.942  0.00  0.00    +0.000 A 
ATOM     31  C   UNL     1      49.893 -38.444  43.606  0.00  0.00    +0.000 A 
ATOM     32  C   UNL     1      48.314 -37.031  44.762  0.00  0.00    +0.000 A 
ATOM     33  C   UNL     1      49.002 -37.378  43.599  0.00  0.00    +0.000 A 
ENDBRANCH  24  28
ENDBRANCH   4  24
TORSDOF 5
ENDMDL
MODEL 5
REMARK VINA RESULT:      -6.7     14.794     17.370
REMARK  Name = 
REMARK  5 active torsions:
REMARK  status: ('A' for Active; 'I' for Inactive)
REMARK    1  A    between atoms: O_5  and  C_10
REMARK    2  A    between atoms: N_9  and  C_20
REMARK    3  A    between atoms: N_9  and  C_25
REMARK    4  A    between atoms: C_10  and  C_11
REMARK    5  A    between atoms: C_18  and  C_19
REMARK                            x       y       z     vdW  Elec       q    Type
REMARK                         _______ _______ _______ _____ _____    ______ ____
ROOT
ATOM      1  F   UNL     1      56.747 -54.106  59.422  0.00  0.00    +0.000 F 
ATOM      2  F   UNL     1      57.953 -53.655  57.049  0.00  0.00    +0.000 F 
ATOM      3  C   UNL     1      58.047 -50.748  59.948  0.00  0.00    +0.000 A 
ATOM      4  C   UNL     1      57.374 -51.957  60.234  0.00  0.00    +0.000 A 
ATOM      5  C   UNL     1      58.685 -50.527  58.715  0.00  0.00    +0.000 A 
ATOM      6  C   UNL     1      57.352 -52.926  59.222  0.00  0.00    +0.000 A 
ATOM      7  C   UNL     1      58.651 -51.516  57.736  0.00  0.00    +0.000 A 
ATOM      8  C   UNL     1      57.985 -52.707  57.997  0.00  0.00    +0.000 A 
ENDROOT
BRANCH   3  14
ATOM      9  O   UNL     1      57.148 -48.867  60.997  0.00  0.00    +0.000 OA
ATOM     10  N   UNL     1      59.176 -49.620  61.784  0.00  0.00    +0.000 N 
ATOM     11  C   UNL     1      60.951 -48.527  61.886  0.00  0.00    +0.000 C 
ATOM     12  C   UNL     1      60.558 -49.970  61.461  0.00  0.00    +0.000 C 
ATOM     13  C   UNL     1      59.567 -48.472  62.600  0.00  0.00    +0.000 C 
ATOM     14  C   UNL     1      58.071 -49.675  60.965  0.00  0.00    +0.000 C 
BRANCH  11  16
ATOM     15  N   UNL     1      62.135 -46.490  61.111  0.00  0.00    +0.000 NA
ATOM     16  C   UNL     1      61.076 -47.470  60.757  0.00  0.00    +0.000 C 
ATOM     17  C   UNL     1      61.422 -48.123  59.407  0.00  0.00    +0.000 C 
ATOM     18  C   UNL     1      61.568 -47.068  58.310  0.00  0.00    +0.000 C 
ATOM     19  C   UNL     1      62.179 -45.413  60.112  0.00  0.00    +0.000 C 
ATOM     20  C   UNL     1      62.530 -45.961  58.729  0.00  0.00    +0.000 C 
ATOM     21  H   UNL     1      63.036 -46.973  61.068  0.00  0.00    +0.000 HD
ENDBRANCH  11  16
BRANCH  11  22
ATOM     22  O   UNL     1      62.100 -48.443  62.780  0.00  0.00    +0.000 OA
ATOM     23  H   UNL     1      61.728 -48.710  63.641  0.00  0.00    +0.000 HD
ENDBRANCH  11  22
ENDBRANCH   3  14
BRANCH   4  24
ATOM     24  N   UNL     1      56.693 -52.110  61.462  0.00  0.00    +0.000 N 
ATOM     25  H   UNL     1      55.777 -51.648  61.483  0.00  0.00    +0.000 HD
BRANCH  24  28
ATOM     26  I   UNL     1      57.751 -55.660  66.560  0.00  0.00    +0.000 I 
ATOM     27  F   UNL     1      57.270 -51.024  63.909  0.00  0.00    +0.000 F 
ATOM     28  C   UNL     1      56.912 -52.948  62.571  0.00  0.00    +0.000 A 
ATOM     29  C   UNL     1      57.222 -52.362  63.812  0.00  0.00    +0.000 A 
ATOM     30  C   UNL     1      56.870 -54.344  62.513  0.00  0.00    +0.000 A 
ATOM     31  C   UNL     1      57.465 -53.118  64.955  0.00  0.00    +0.000 A 
ATOM     32  C   UNL     1      57.114 -55.121  63.654  0.00  0.00    +0.000 A 
ATOM     33  C   UNL     1      57.407 -54.504  64.870  0.00  0.00    +0.000 A 
ENDBRANCH  24  28
ENDBRANCH   4  24
TORSDOF 5
ENDMDL
MODEL 6
REMARK VINA RESULT:      -6.7      3.583      5.554
REMARK  Name = 
REMARK  5 active torsions:
REMARK  status: ('A' for Active; 'I' for Inactive)
REMARK    1  A    between atoms: O_5  and  C_10
REMARK    2  A    between atoms: N_9  and  C_20
REMARK    3  A    between atoms: N_9  and  C_25
REMARK    4  A    between atoms: C_10  and  C_11
REMARK    5  A    between atoms: C_18  and  C_19
REMARK                            x       y       z     vdW  Elec       q    Type
REMARK                         _______ _______ _______ _____ _____    ______ ____
ROOT
ATOM      1  F   UNL     1      49.221 -39.015  49.026  0.00  0.00    +0.000 F 
ATOM      2  F   UNL     1      48.079 -39.528  51.418  0.00  0.00    +0.000 F 
ATOM      3  C   UNL     1      49.004 -42.646  48.910  0.00  0.00    +0.000 A 
ATOM      4  C   UNL     1      49.296 -41.332  48.480  0.00  0.00    +0.000 A 
ATOM      5  C   UNL     1      48.423 -42.906  50.163  0.00  0.00    +0.000 A 
ATOM      6  C   UNL     1      48.961 -40.290  49.354  0.00  0.00    +0.000 A 
ATOM      7  C   UNL     1      48.112 -41.846  51.010  0.00  0.00    +0.000 A 
ATOM      8  C   UNL     1      48.384 -40.546  50.599  0.00  0.00    +0.000 A 
ENDROOT
BRANCH   3  14
ATOM      9  O   UNL     1      48.429 -44.178  47.246  0.00  0.00    +0.000 OA
ATOM     10  N   UNL     1      50.540 -44.370  48.144  0.00  0.00    +0.000 N 
ATOM     11  C   UNL     1      51.343 -46.056  49.076  0.00  0.00    +0.000 C 
ATOM     12  C   UNL     1      51.342 -44.526  49.356  0.00  0.00    +0.000 C 
ATOM     13  C   UNL     1      50.911 -45.686  47.626  0.00  0.00    +0.000 C 
ATOM     14  C   UNL     1      49.301 -43.784  48.014  0.00  0.00    +0.000 C 
BRANCH  11  16
ATOM     15  N   UNL     1      49.667 -47.872  48.861  0.00  0.00    +0.000 NA
ATOM     16  C   UNL     1      50.274 -46.906  49.813  0.00  0.00    +0.000 C 
ATOM     17  C   UNL     1      50.883 -47.678  50.997  0.00  0.00    +0.000 C 
ATOM     18  C   UNL     1      49.825 -48.531  51.697  0.00  0.00    +0.000 C 
ATOM     19  C   UNL     1      48.568 -48.597  49.513  0.00  0.00    +0.000 C 
ATOM     20  C   UNL     1      49.075 -49.410  50.703  0.00  0.00    +0.000 C 
ATOM     21  H   UNL     1      50.380 -48.565  48.622  0.00  0.00    +0.000 HD
ENDBRANCH  11  16
BRANCH  11  22
ATOM     22  O   UNL     1      52.648 -46.696  49.178  0.00  0.00    +0.000 OA
ATOM     23  H   UNL     1      52.448 -47.634  48.997  0.00  0.00    +0.000 HD
ENDBRANCH  11  22
ENDBRANCH   3  14
BRANCH   4  24
ATOM     24  N   UNL     1      49.821 -41.115  47.187  0.00  0.00    +0.000 N 
ATOM     25  H   UNL     1      50.582 -41.759  46.940  0.00  0.00    +0.000 HD
BRANCH  24  28
ATOM     26  I   UNL     1      47.580 -37.838  42.294  0.00  0.00    +0.000 I 
ATOM     27  F   UNL     1      47.223 -41.331  46.347  0.00  0.00    +0.000 F 
ATOM     28  C   UNL     1      49.369 -40.353  46.094  0.00  0.00    +0.000 A 
ATOM     29  C   UNL     1      48.034 -40.497  45.675  0.00  0.00    +0.000 A 
ATOM     30  C   UNL     1      50.179 -39.474  45.370  0.00  0.00    +0.000 A 
ATOM     31  C   UNL     1      47.510 -39.791  44.595  0.00  0.00    +0.000 A 
ATOM     32  C   UNL     1      49.667 -38.756  44.280  0.00  0.00    +0.000 A 
ATOM     33  C   UNL     1      48.335 -38.916  43.900  0.00  0.00    +0.000 A 
ENDBRANCH  24  28
ENDBRANCH   4  24
TORSDOF 5
ENDMDL
MODEL 7
REMARK VINA RESULT:      -6.7      3.109      5.078
REMARK  Name = 
REMARK  5 active torsions:
REMARK  status: ('A' for Active; 'I' for Inactive)
REMARK    1  A    between atoms: O_5  and  C_10
REMARK    2  A    between atoms: N_9  and  C_20
REMARK    3  A    between atoms: N_9  and  C_25
REMARK    4  A    between atoms: C_10  and  C_11
REMARK    5  A    between atoms: C_18  and  C_19
REMARK                            x       y       z     vdW  Elec       q    Type
REMARK                         _______ _______ _______ _____ _____    ______ ____
ROOT
ATOM      1  F   UNL     1      49.266 -42.672  48.202  0.00  0.00    +0.000 F 
ATOM      2  F   UNL     1      48.625 -40.375  49.466  0.00  0.00    +0.000 F 
ATOM      3  C   UNL     1      48.139 -43.956  51.415  0.00  0.00    +0.000 A 
ATOM      4  C   UNL     1      48.637 -43.976  50.093  0.00  0.00    +0.000 A 
ATOM      5  C   UNL     1      47.822 -42.755  52.072  0.00  0.00    +0.000 A 
ATOM      6  C   UNL     1      48.783 -42.739  49.452  0.00  0.00    +0.000 A 
ATOM      7  C   UNL     1      47.989 -41.543  51.407  0.00  0.00    +0.000 A 
ATOM      8  C   UNL     1      48.469 -41.544  50.103  0.00  0.00    +0.000 A 
ENDROOT
BRANCH   3  14
ATOM      9  O   UNL     1      48.904 -45.842  52.558  0.00  0.00    +0.000 OA
ATOM     10  N   UNL     1      46.632 -45.689  52.219  0.00  0.00    +0.000 N 
ATOM     11  C   UNL     1      45.429 -47.078  51.229  0.00  0.00    +0.000 C 
ATOM     12  C   UNL     1      45.550 -45.528  51.249  0.00  0.00    +0.000 C 
ATOM     13  C   UNL     1      46.238 -47.055  52.560  0.00  0.00    +0.000 C 
ATOM     14  C   UNL     1      47.928 -45.234  52.130  0.00  0.00    +0.000 C 
BRANCH  11  16
ATOM     15  N   UNL     1      45.674 -49.222  50.006  0.00  0.00    +0.000 NA
ATOM     16  C   UNL     1      46.178 -47.828  50.095  0.00  0.00    +0.000 C 
ATOM     17  C   UNL     1      45.987 -47.133  48.735  0.00  0.00    +0.000 C 
ATOM     18  C   UNL     1      46.708 -47.897  47.624  0.00  0.00    +0.000 C 
ATOM     19  C   UNL     1      46.460 -49.980  49.022  0.00  0.00    +0.000 C 
ATOM     20  C   UNL     1      46.325 -49.373  47.627  0.00  0.00    +0.000 C 
ATOM     21  H   UNL     1      44.713 -49.186  49.656  0.00  0.00    +0.000 HD
ENDBRANCH  11  16
BRANCH  11  22
ATOM     22  O   UNL     1      44.069 -47.588  51.352  0.00  0.00    +0.000 OA
ATOM     23  H   UNL     1      43.701 -47.449  50.460  0.00  0.00    +0.000 HD
ENDBRANCH  11  22
ENDBRANCH   3  14
BRANCH   4  24
ATOM     24  N   UNL     1      48.883 -45.210  49.452  0.00  0.00    +0.000 N 
ATOM     25  H   UNL     1      48.031 -45.752  49.265  0.00  0.00    +0.000 HD
BRANCH  24  28
ATOM     26  I   UNL     1      53.850 -47.604  46.404  0.00  0.00    +0.000 I 
ATOM     27  F   UNL     1      48.920 -45.523  46.731  0.00  0.00    +0.000 F 
ATOM     28  C   UNL     1      50.022 -45.742  48.820  0.00  0.00    +0.000 A 
ATOM     29  C   UNL     1      50.006 -45.906  47.422  0.00  0.00    +0.000 A 
ATOM     30  C   UNL     1      51.172 -46.149  49.501  0.00  0.00    +0.000 A 
ATOM     31  C   UNL     1      51.085 -46.435  46.720  0.00  0.00    +0.000 A 
ATOM     32  C   UNL     1      52.267 -46.686  48.810  0.00  0.00    +0.000 A 
ATOM     33  C   UNL     1      52.219 -46.824  47.423  0.00  0.00    +0.000 A 
ENDBRANCH  24  28
ENDBRANCH   4  24
TORSDOF 5
ENDMDL
MODEL 8
REMARK VINA RESULT:      -6.6      7.600     11.035
REMARK  Name = 
REMARK  5 active torsions:
REMARK  status: ('A' for Active; 'I' for Inactive)
REMARK    1  A    between atoms: O_5  and  C_10
REMARK    2  A    between atoms: N_9  and  C_20
REMARK    3  A    between atoms: N_9  and  C_25
REMARK    4  A    between atoms: C_10  and  C_11
REMARK    5  A    between atoms: C_18  and  C_19
REMARK                            x       y       z     vdW  Elec       q    Type
REMARK                         _______ _______ _______ _____ _____    ______ ____
ROOT
ATOM      1  F   UNL     1      43.757 -54.165  54.509  0.00  0.00    +0.000 F 
ATOM      2  F   UNL     1      42.110 -54.850  56.536  0.00  0.00    +0.000 F 
ATOM      3  C   UNL     1      46.082 -54.152  57.308  0.00  0.00    +0.000 A 
ATOM      4  C   UNL     1      45.628 -54.026  55.976  0.00  0.00    +0.000 A 
ATOM      5  C   UNL     1      45.216 -54.495  58.360  0.00  0.00    +0.000 A 
ATOM      6  C   UNL     1      44.269 -54.280  55.744  0.00  0.00    +0.000 A 
ATOM      7  C   UNL     1      43.870 -54.730  58.093  0.00  0.00    +0.000 A 
ATOM      8  C   UNL     1      43.407 -54.620  56.788  0.00  0.00    +0.000 A 
ENDROOT
BRANCH   3  14
ATOM      9  O   UNL     1      47.957 -52.790  57.584  0.00  0.00    +0.000 OA
ATOM     10  N   UNL     1      48.277 -55.055  57.844  0.00  0.00    +0.000 N 
ATOM     11  C   UNL     1      49.608 -56.251  56.771  0.00  0.00    +0.000 C 
ATOM     12  C   UNL     1      48.136 -56.384  57.253  0.00  0.00    +0.000 C 
ATOM     13  C   UNL     1      49.738 -55.104  57.816  0.00  0.00    +0.000 C 
ATOM     14  C   UNL     1      47.514 -53.934  57.608  0.00  0.00    +0.000 C 
BRANCH  11  16
ATOM     15  N   UNL     1      51.161 -55.104  55.215  0.00  0.00    +0.000 NA
ATOM     16  C   UNL     1      49.830 -55.755  55.317  0.00  0.00    +0.000 C 
ATOM     17  C   UNL     1      49.755 -56.913  54.306  0.00  0.00    +0.000 C 
ATOM     18  C   UNL     1      50.001 -56.414  52.882  0.00  0.00    +0.000 C 
ATOM     19  C   UNL     1      51.334 -54.519  53.877  0.00  0.00    +0.000 C 
ATOM     20  C   UNL     1      51.286 -55.597  52.796  0.00  0.00    +0.000 C 
ATOM     21  H   UNL     1      51.874 -55.831  55.315  0.00  0.00    +0.000 HD
ENDBRANCH  11  16
BRANCH  11  22
ATOM     22  O   UNL     1      50.447 -57.414  57.036  0.00  0.00    +0.000 OA
ATOM     23  H   UNL     1      50.819 -57.621  56.158  0.00  0.00    +0.000 HD
ENDBRANCH  11  22
ENDBRANCH   3  14
BRANCH   4  24
ATOM     24  N   UNL     1      46.546 -53.742  54.942  0.00  0.00    +0.000 N 
ATOM     25  H   UNL     1      46.913 -54.581  54.477  0.00  0.00    +0.000 HD
BRANCH  24  28
ATOM     26  I   UNL     1      48.244 -48.537  51.824  0.00  0.00    +0.000 I 
ATOM     27  F   UNL     1      48.236 -53.811  52.788  0.00  0.00    +0.000 F 
ATOM     28  C   UNL     1      46.887 -52.550  54.275  0.00  0.00    +0.000 A 
ATOM     29  C   UNL     1      47.769 -52.615  53.182  0.00  0.00    +0.000 A 
ATOM     30  C   UNL     1      46.421 -51.287  54.651  0.00  0.00    +0.000 A 
ATOM     31  C   UNL     1      48.167 -51.484  52.475  0.00  0.00    +0.000 A 
ATOM     32  C   UNL     1      46.813 -50.138  53.952  0.00  0.00    +0.000 A 
ATOM     33  C   UNL     1      47.681 -50.241  52.866  0.00  0.00    +0.000 A 
ENDBRANCH  24  28
ENDBRANCH   4  24
TORSDOF 5
ENDMDL
MODEL 9
REMARK VINA RESULT:      -6.5      9.847     12.762
REMARK  Name = 
REMARK  5 active torsions:
REMARK  status: ('A' for Active; 'I' for Inactive)
REMARK    1  A    between atoms: O_5  and  C_10
REMARK    2  A    between atoms: N_9  and  C_20
REMARK    3  A    between atoms: N_9  and  C_25
REMARK    4  A    between atoms: C_10  and  C_11
REMARK    5  A    between atoms: C_18  and  C_19
REMARK                            x       y       z     vdW  Elec       q    Type
REMARK                         _______ _______ _______ _____ _____    ______ ____
ROOT
ATOM      1  F   UNL     1      45.194 -52.615  55.378  0.00  0.00    +0.000 F 
ATOM      2  F   UNL     1      46.246 -52.285  52.914  0.00  0.00    +0.000 F 
ATOM      3  C   UNL     1      48.632 -53.656  55.962  0.00  0.00    +0.000 A 
ATOM      4  C   UNL     1      47.279 -53.369  56.249  0.00  0.00    +0.000 A 
ATOM      5  C   UNL     1      49.169 -53.496  54.673  0.00  0.00    +0.000 A 
ATOM      6  C   UNL     1      46.493 -52.895  55.190  0.00  0.00    +0.000 A 
ATOM      7  C   UNL     1      48.355 -53.032  53.643  0.00  0.00    +0.000 A 
ATOM      8  C   UNL     1      47.024 -52.735  53.909  0.00  0.00    +0.000 A 
ENDROOT
BRANCH   3  14
ATOM      9  O   UNL     1      50.023 -53.297  57.801  0.00  0.00    +0.000 OA
ATOM     10  N   UNL     1      49.768 -55.478  57.108  0.00  0.00    +0.000 N 
ATOM     11  C   UNL     1      51.290 -56.779  56.520  0.00  0.00    +0.000 C 
ATOM     12  C   UNL     1      49.867 -56.426  56.001  0.00  0.00    +0.000 C 
ATOM     13  C   UNL     1      50.856 -56.105  57.856  0.00  0.00    +0.000 C 
ATOM     14  C   UNL     1      49.519 -54.125  57.048  0.00  0.00    +0.000 C 
BRANCH  11  16
ATOM     15  N   UNL     1      53.738 -56.798  56.123  0.00  0.00    +0.000 NA
ATOM     16  C   UNL     1      52.484 -56.049  55.850  0.00  0.00    +0.000 C 
ATOM     17  C   UNL     1      52.289 -55.926  54.328  0.00  0.00    +0.000 C 
ATOM     18  C   UNL     1      53.485 -55.229  53.678  0.00  0.00    +0.000 C 
ATOM     19  C   UNL     1      54.892 -56.054  55.600  0.00  0.00    +0.000 C 
ATOM     20  C   UNL     1      54.799 -55.887  54.085  0.00  0.00    +0.000 C 
ATOM     21  H   UNL     1      53.694 -57.680  55.606  0.00  0.00    +0.000 HD
ENDBRANCH  11  16
BRANCH  11  22
ATOM     22  O   UNL     1      51.568 -58.206  56.622  0.00  0.00    +0.000 OA
ATOM     23  H   UNL     1      52.378 -58.234  57.166  0.00  0.00    +0.000 HD
ENDBRANCH  11  22
ENDBRANCH   3  14
BRANCH   4  24
ATOM     24  N   UNL     1      46.800 -53.485  57.572  0.00  0.00    +0.000 N 
ATOM     25  H   UNL     1      46.950 -52.642  58.138  0.00  0.00    +0.000 HD
BRANCH  24  28
ATOM     26  I   UNL     1      43.266 -57.798  60.508  0.00  0.00    +0.000 I 
ATOM     27  F   UNL     1      47.778 -55.048  59.598  0.00  0.00    +0.000 F 
ATOM     28  C   UNL     1      45.965 -54.428  58.201  0.00  0.00    +0.000 A 
ATOM     29  C   UNL     1      46.500 -55.227  59.228  0.00  0.00    +0.000 A 
ATOM     30  C   UNL     1      44.630 -54.644  57.848  0.00  0.00    +0.000 A 
ATOM     31  C   UNL     1      45.747 -56.191  59.892  0.00  0.00    +0.000 A 
ATOM     32  C   UNL     1      43.858 -55.611  58.506  0.00  0.00    +0.000 A 
ATOM     33  C   UNL     1      44.419 -56.378  59.526  0.00  0.00    +0.000 A 
ENDBRANCH  24  28
ENDBRANCH   4  24
TORSDOF 5
ENDMDL
