MODEL 1
REMARK VINA RESULT:      -7.5      0.000      0.000
REMARK  Name = COUMESTROL.pdbqt.pdb
REMARK  2 active torsions:
REMARK  status: ('A' for Active; 'I' for Inactive)
REMARK    1  A    between atoms: C_16  and  O_19
REMARK    2  A    between atoms: C_18  and  O_21
REMARK                            x       y       z     vdW  Elec       q    Type
REMARK                         _______ _______ _______ _____ _____    ______ ____
ROOT
ATOM      1  O   UNL     1      47.880 -40.141  51.347  0.00  0.00    +0.000 OA
ATOM      2  O   UNL     1      49.558 -42.594  48.545  0.00  0.00    +0.000 OA
ATOM      3  O   UNL     1      50.051 -40.702  47.313  0.00  0.00    +0.000 OA
ATOM      4  C   UNL     1      48.943 -40.404  49.369  0.00  0.00    +0.000 A 
ATOM      5  C   UNL     1      48.413 -41.021  50.472  0.00  0.00    +0.000 A 
ATOM      6  C   UNL     1      48.728 -39.017  49.562  0.00  0.00    +0.000 A 
ATOM      7  C   UNL     1      48.402 -42.433  50.713  0.00  0.00    +0.000 A 
ATOM      8  C   UNL     1      48.071 -38.905  50.791  0.00  0.00    +0.000 A 
ATOM      9  C   UNL     1      48.996 -43.209  49.707  0.00  0.00    +0.000 A 
ATOM     10  C   UNL     1      49.559 -41.189  48.324  0.00  0.00    +0.000 A 
ATOM     11  C   UNL     1      49.010 -37.844  48.842  0.00  0.00    +0.000 A 
ATOM     12  C   UNL     1      47.861 -43.046  51.836  0.00  0.00    +0.000 A 
ATOM     13  C   UNL     1      47.671 -37.698  51.362  0.00  0.00    +0.000 A 
ATOM     14  C   UNL     1      49.060 -44.593  49.801  0.00  0.00    +0.000 A 
ATOM     15  C   UNL     1      48.623 -36.616  49.386  0.00  0.00    +0.000 A 
ATOM     16  C   UNL     1      47.970 -36.556  50.615  0.00  0.00    +0.000 A 
ATOM     17  C   UNL     1      47.919 -44.435  51.943  0.00  0.00    +0.000 A 
ATOM     18  C   UNL     1      48.514 -45.193  50.931  0.00  0.00    +0.000 A 
ENDROOT
BRANCH  16  19
ATOM     19  O   UNL     1      47.620 -35.320  51.088  0.00  0.00    +0.000 OA
ATOM     20  H   UNL     1      47.800 -35.294  52.043  0.00  0.00    +0.000 HD
ENDBRANCH  16  19
BRANCH  18  21
ATOM     21  O   UNL     1      48.574 -46.554  51.030  0.00  0.00    +0.000 OA
ATOM     22  H   UNL     1      48.425 -46.934  50.147  0.00  0.00    +0.000 HD
ENDBRANCH  18  21
TORSDOF 2
ENDMDL
MODEL 2
REMARK VINA RESULT:      -7.2      1.599      3.486
REMARK  Name = COUMESTROL.pdbqt.pdb
REMARK  2 active torsions:
REMARK  status: ('A' for Active; 'I' for Inactive)
REMARK    1  A    between atoms: C_16  and  O_19
REMARK    2  A    between atoms: C_18  and  O_21
REMARK                            x       y       z     vdW  Elec       q    Type
REMARK                         _______ _______ _______ _____ _____    ______ ____
ROOT
ATOM      1  O   UNL     1      49.376 -41.493  47.963  0.00  0.00    +0.000 OA
ATOM      2  O   UNL     1      47.902 -40.891  51.724  0.00  0.00    +0.000 OA
ATOM      3  O   UNL     1      47.825 -38.634  51.236  0.00  0.00    +0.000 OA
ATOM      4  C   UNL     1      48.618 -40.083  49.559  0.00  0.00    +0.000 A 
ATOM      5  C   UNL     1      48.894 -41.382  49.220  0.00  0.00    +0.000 A 
ATOM      6  C   UNL     1      48.953 -39.307  48.422  0.00  0.00    +0.000 A 
ATOM      7  C   UNL     1      48.709 -42.522  50.066  0.00  0.00    +0.000 A 
ATOM      8  C   UNL     1      49.414 -40.218  47.467  0.00  0.00    +0.000 A 
ATOM      9  C   UNL     1      48.200 -42.235  51.341  0.00  0.00    +0.000 A 
ATOM     10  C   UNL     1      48.093 -39.771  50.869  0.00  0.00    +0.000 A 
ATOM     11  C   UNL     1      48.920 -37.943  48.088  0.00  0.00    +0.000 A 
ATOM     12  C   UNL     1      48.993 -43.834  49.710  0.00  0.00    +0.000 A 
ATOM     13  C   UNL     1      49.850 -39.867  46.190  0.00  0.00    +0.000 A 
ATOM     14  C   UNL     1      47.968 -43.240  52.272  0.00  0.00    +0.000 A 
ATOM     15  C   UNL     1      49.351 -37.555  46.816  0.00  0.00    +0.000 A 
ATOM     16  C   UNL     1      49.802 -38.502  45.898  0.00  0.00    +0.000 A 
ATOM     17  C   UNL     1      48.765 -44.853  50.635  0.00  0.00    +0.000 A 
ATOM     18  C   UNL     1      48.257 -44.548  51.901  0.00  0.00    +0.000 A 
ENDROOT
BRANCH  16  19
ATOM     19  O   UNL     1      50.209 -38.051  44.671  0.00  0.00    +0.000 OA
ATOM     20  H   UNL     1      51.176 -37.947  44.687  0.00  0.00    +0.000 HD
ENDBRANCH  16  19
BRANCH  18  21
ATOM     21  O   UNL     1      48.031 -45.541  52.812  0.00  0.00    +0.000 OA
ATOM     22  H   UNL     1      48.151 -46.399  52.368  0.00  0.00    +0.000 HD
ENDBRANCH  18  21
TORSDOF 2
ENDMDL
MODEL 3
REMARK VINA RESULT:      -7.1     15.881     18.038
REMARK  Name = COUMESTROL.pdbqt.pdb
REMARK  2 active torsions:
REMARK  status: ('A' for Active; 'I' for Inactive)
REMARK    1  A    between atoms: C_16  and  O_19
REMARK    2  A    between atoms: C_18  and  O_21
REMARK                            x       y       z     vdW  Elec       q    Type
REMARK                         _______ _______ _______ _____ _____    ______ ____
ROOT
ATOM      1  O   UNL     1      58.423 -49.417  62.539  0.00  0.00    +0.000 OA
ATOM      2  O   UNL     1      59.219 -48.581  58.621  0.00  0.00    +0.000 OA
ATOM      3  O   UNL     1      58.309 -50.638  58.090  0.00  0.00    +0.000 OA
ATOM      4  C   UNL     1      58.362 -50.025  60.363  0.00  0.00    +0.000 A 
ATOM      5  C   UNL     1      58.720 -49.062  61.270  0.00  0.00    +0.000 A 
ATOM      6  C   UNL     1      57.791 -51.077  61.121  0.00  0.00    +0.000 A 
ATOM      7  C   UNL     1      59.340 -47.810  60.956  0.00  0.00    +0.000 A 
ATOM      8  C   UNL     1      57.851 -50.656  62.453  0.00  0.00    +0.000 A 
ATOM      9  C   UNL     1      59.581 -47.596  59.591  0.00  0.00    +0.000 A 
ATOM     10  C   UNL     1      58.604 -49.820  58.953  0.00  0.00    +0.000 A 
ATOM     11  C   UNL     1      57.231 -52.334  60.838  0.00  0.00    +0.000 A 
ATOM     12  C   UNL     1      59.698 -46.842  61.885  0.00  0.00    +0.000 A 
ATOM     13  C   UNL     1      57.389 -51.404  63.536  0.00  0.00    +0.000 A 
ATOM     14  C   UNL     1      60.176 -46.427  59.134  0.00  0.00    +0.000 A 
ATOM     15  C   UNL     1      56.757 -53.110  61.900  0.00  0.00    +0.000 A 
ATOM     16  C   UNL     1      56.840 -52.646  63.211  0.00  0.00    +0.000 A 
ATOM     17  C   UNL     1      60.296 -45.664  61.441  0.00  0.00    +0.000 A 
ATOM     18  C   UNL     1      60.529 -45.467  60.077  0.00  0.00    +0.000 A 
ENDROOT
BRANCH  16  19
ATOM     19  O   UNL     1      56.357 -53.459  64.202  0.00  0.00    +0.000 OA
ATOM     20  H   UNL     1      56.744 -54.344  64.090  0.00  0.00    +0.000 HD
ENDBRANCH  16  19
BRANCH  18  21
ATOM     21  O   UNL     1      61.115 -44.315  59.634  0.00  0.00    +0.000 OA
ATOM     22  H   UNL     1      61.793 -44.548  58.976  0.00  0.00    +0.000 HD
ENDBRANCH  18  21
TORSDOF 2
ENDMDL
MODEL 4
REMARK VINA RESULT:      -7.0     15.891     16.939
REMARK  Name = COUMESTROL.pdbqt.pdb
REMARK  2 active torsions:
REMARK  status: ('A' for Active; 'I' for Inactive)
REMARK    1  A    between atoms: C_16  and  O_19
REMARK    2  A    between atoms: C_18  and  O_21
REMARK                            x       y       z     vdW  Elec       q    Type
REMARK                         _______ _______ _______ _____ _____    ______ ____
ROOT
ATOM      1  O   UNL     1      59.191 -48.816  58.837  0.00  0.00    +0.000 OA
ATOM      2  O   UNL     1      57.758 -51.299  61.746  0.00  0.00    +0.000 OA
ATOM      3  O   UNL     1      58.236 -49.635  63.277  0.00  0.00    +0.000 OA
ATOM      4  C   UNL     1      58.727 -49.206  61.014  0.00  0.00    +0.000 A 
ATOM      5  C   UNL     1      58.701 -49.698  59.735  0.00  0.00    +0.000 A 
ATOM      6  C   UNL     1      59.281 -47.905  60.918  0.00  0.00    +0.000 A 
ATOM      7  C   UNL     1      58.219 -50.989  59.348  0.00  0.00    +0.000 A 
ATOM      8  C   UNL     1      59.550 -47.711  59.560  0.00  0.00    +0.000 A 
ATOM      9  C   UNL     1      57.743 -51.783  60.402  0.00  0.00    +0.000 A 
ATOM     10  C   UNL     1      58.241 -50.012  62.111  0.00  0.00    +0.000 A 
ATOM     11  C   UNL     1      59.585 -46.871  61.818  0.00  0.00    +0.000 A 
ATOM     12  C   UNL     1      58.198 -51.475  58.047  0.00  0.00    +0.000 A 
ATOM     13  C   UNL     1      60.106 -46.549  59.026  0.00  0.00    +0.000 A 
ATOM     14  C   UNL     1      57.244 -53.060  60.180  0.00  0.00    +0.000 A 
ATOM     15  C   UNL     1      60.144 -45.691  61.317  0.00  0.00    +0.000 A 
ATOM     16  C   UNL     1      60.393 -45.546  59.954  0.00  0.00    +0.000 A 
ATOM     17  C   UNL     1      57.700 -52.756  57.809  0.00  0.00    +0.000 A 
ATOM     18  C   UNL     1      57.230 -53.533  58.872  0.00  0.00    +0.000 A 
ENDROOT
BRANCH  16  19
ATOM     19  O   UNL     1      60.942 -44.364  59.533  0.00  0.00    +0.000 OA
ATOM     20  H   UNL     1      60.819 -44.294  58.570  0.00  0.00    +0.000 HD
ENDBRANCH  16  19
BRANCH  18  21
ATOM     21  O   UNL     1      56.740 -54.788  58.646  0.00  0.00    +0.000 OA
ATOM     22  H   UNL     1      56.550 -54.878  57.696  0.00  0.00    +0.000 HD
ENDBRANCH  18  21
TORSDOF 2
ENDMDL
MODEL 5
REMARK VINA RESULT:      -7.0     15.854     17.701
REMARK  Name = COUMESTROL.pdbqt.pdb
REMARK  2 active torsions:
REMARK  status: ('A' for Active; 'I' for Inactive)
REMARK    1  A    between atoms: C_16  and  O_19
REMARK    2  A    between atoms: C_18  and  O_21
REMARK                            x       y       z     vdW  Elec       q    Type
REMARK                         _______ _______ _______ _____ _____    ______ ____
ROOT
ATOM      1  O   UNL     1      58.857 -50.199  58.306  0.00  0.00    +0.000 OA
ATOM      2  O   UNL     1      58.826 -48.001  61.749  0.00  0.00    +0.000 OA
ATOM      3  O   UNL     1      57.735 -49.768  62.761  0.00  0.00    +0.000 OA
ATOM      4  C   UNL     1      58.302 -49.999  60.488  0.00  0.00    +0.000 A 
ATOM      5  C   UNL     1      58.889 -49.407  59.400  0.00  0.00    +0.000 A 
ATOM      6  C   UNL     1      57.862 -51.271  60.047  0.00  0.00    +0.000 A 
ATOM      7  C   UNL     1      59.480 -48.104  59.377  0.00  0.00    +0.000 A 
ATOM      8  C   UNL     1      58.226 -51.348  58.699  0.00  0.00    +0.000 A 
ATOM      9  C   UNL     1      59.431 -47.411  60.596  0.00  0.00    +0.000 A 
ATOM     10  C   UNL     1      58.244 -49.298  61.751  0.00  0.00    +0.000 A 
ATOM     11  C   UNL     1      57.200 -52.365  60.627  0.00  0.00    +0.000 A 
ATOM     12  C   UNL     1      60.072 -47.515  58.267  0.00  0.00    +0.000 A 
ATOM     13  C   UNL     1      57.976 -52.447  57.877  0.00  0.00    +0.000 A 
ATOM     14  C   UNL     1      59.964 -46.135  60.728  0.00  0.00    +0.000 A 
ATOM     15  C   UNL     1      56.933 -53.484  59.832  0.00  0.00    +0.000 A 
ATOM     16  C   UNL     1      57.316 -53.513  58.493  0.00  0.00    +0.000 A 
ATOM     17  C   UNL     1      60.612 -46.235  58.384  0.00  0.00    +0.000 A 
ATOM     18  C   UNL     1      60.553 -45.559  59.607  0.00  0.00    +0.000 A 
ENDROOT
BRANCH  16  19
ATOM     19  O   UNL     1      57.023 -54.641  57.774  0.00  0.00    +0.000 OA
ATOM     20  H   UNL     1      57.746 -55.279  57.896  0.00  0.00    +0.000 HD
ENDBRANCH  16  19
BRANCH  18  21
ATOM     21  O   UNL     1      61.080 -44.305  59.729  0.00  0.00    +0.000 OA
ATOM     22  H   UNL     1      60.638 -43.722  59.087  0.00  0.00    +0.000 HD
ENDBRANCH  18  21
TORSDOF 2
ENDMDL
MODEL 6
REMARK VINA RESULT:      -7.0      1.189      6.110
REMARK  Name = COUMESTROL.pdbqt.pdb
REMARK  2 active torsions:
REMARK  status: ('A' for Active; 'I' for Inactive)
REMARK    1  A    between atoms: C_16  and  O_19
REMARK    2  A    between atoms: C_18  and  O_21
REMARK                            x       y       z     vdW  Elec       q    Type
REMARK                         _______ _______ _______ _____ _____    ______ ____
ROOT
ATOM      1  O   UNL     1      48.176 -41.416  51.172  0.00  0.00    +0.000 OA
ATOM      2  O   UNL     1      49.713 -40.418  47.522  0.00  0.00    +0.000 OA
ATOM      3  O   UNL     1      50.049 -42.673  47.146  0.00  0.00    +0.000 OA
ATOM      4  C   UNL     1      49.093 -42.043  49.203  0.00  0.00    +0.000 A 
ATOM      5  C   UNL     1      48.669 -41.001  49.985  0.00  0.00    +0.000 A 
ATOM      6  C   UNL     1      48.848 -43.217  49.958  0.00  0.00    +0.000 A 
ATOM      7  C   UNL     1      48.722 -39.615  49.628  0.00  0.00    +0.000 A 
ATOM      8  C   UNL     1      48.284 -42.780  51.161  0.00  0.00    +0.000 A 
ATOM      9  C   UNL     1      49.262 -39.352  48.361  0.00  0.00    +0.000 A 
ATOM     10  C   UNL     1      49.651 -41.789  47.895  0.00  0.00    +0.000 A 
ATOM     11  C   UNL     1      49.037 -44.595  49.766  0.00  0.00    +0.000 A 
ATOM     12  C   UNL     1      48.289 -38.567  50.431  0.00  0.00    +0.000 A 
ATOM     13  C   UNL     1      47.890 -43.625  52.198  0.00  0.00    +0.000 A 
ATOM     14  C   UNL     1      49.378 -38.055  47.877  0.00  0.00    +0.000 A 
ATOM     15  C   UNL     1      48.652 -45.472  50.786  0.00  0.00    +0.000 A 
ATOM     16  C   UNL     1      48.094 -44.987  51.967  0.00  0.00    +0.000 A 
ATOM     17  C   UNL     1      48.399 -37.260  49.957  0.00  0.00    +0.000 A 
ATOM     18  C   UNL     1      48.940 -37.016  48.692  0.00  0.00    +0.000 A 
ENDROOT
BRANCH  16  19
ATOM     19  O   UNL     1      47.741 -45.902  52.923  0.00  0.00    +0.000 OA
ATOM     20  H   UNL     1      48.457 -46.556  53.002  0.00  0.00    +0.000 HD
ENDBRANCH  16  19
BRANCH  18  21
ATOM     21  O   UNL     1      49.051 -35.738  48.222  0.00  0.00    +0.000 OA
ATOM     22  H   UNL     1      49.773 -35.712  47.570  0.00  0.00    +0.000 HD
ENDBRANCH  18  21
TORSDOF 2
ENDMDL
MODEL 7
REMARK VINA RESULT:      -7.0      1.392      6.815
REMARK  Name = COUMESTROL.pdbqt.pdb
REMARK  2 active torsions:
REMARK  status: ('A' for Active; 'I' for Inactive)
REMARK    1  A    between atoms: C_16  and  O_19
REMARK    2  A    between atoms: C_18  and  O_21
REMARK                            x       y       z     vdW  Elec       q    Type
REMARK                         _______ _______ _______ _____ _____    ______ ____
ROOT
ATOM      1  O   UNL     1      49.852 -42.408  48.529  0.00  0.00    +0.000 OA
ATOM      2  O   UNL     1      47.803 -40.072  51.180  0.00  0.00    +0.000 OA
ATOM      3  O   UNL     1      47.257 -42.004  52.324  0.00  0.00    +0.000 OA
ATOM      4  C   UNL     1      48.581 -42.222  50.390  0.00  0.00    +0.000 A 
ATOM      5  C   UNL     1      49.198 -41.565  49.358  0.00  0.00    +0.000 A 
ATOM      6  C   UNL     1      48.868 -43.597  50.199  0.00  0.00    +0.000 A 
ATOM      7  C   UNL     1      49.180 -40.149  49.141  0.00  0.00    +0.000 A 
ATOM      8  C   UNL     1      49.651 -43.660  49.043  0.00  0.00    +0.000 A 
ATOM      9  C   UNL     1      48.457 -39.415  50.092  0.00  0.00    +0.000 A 
ATOM     10  C   UNL     1      47.832 -41.480  51.378  0.00  0.00    +0.000 A 
ATOM     11  C   UNL     1      48.557 -44.792  50.867  0.00  0.00    +0.000 A 
ATOM     12  C   UNL     1      49.811 -39.495  48.090  0.00  0.00    +0.000 A 
ATOM     13  C   UNL     1      50.154 -44.841  48.497  0.00  0.00    +0.000 A 
ATOM     14  C   UNL     1      48.351 -38.032  50.014  0.00  0.00    +0.000 A 
ATOM     15  C   UNL     1      49.045 -45.995  50.347  0.00  0.00    +0.000 A 
ATOM     16  C   UNL     1      49.822 -46.007  49.191  0.00  0.00    +0.000 A 
ATOM     17  C   UNL     1      49.712 -38.107  47.999  0.00  0.00    +0.000 A 
ATOM     18  C   UNL     1      48.987 -37.391  48.956  0.00  0.00    +0.000 A 
ENDROOT
BRANCH  16  19
ATOM     19  O   UNL     1      50.266 -47.221  48.738  0.00  0.00    +0.000 OA
ATOM     20  H   UNL     1      50.204 -47.862  49.468  0.00  0.00    +0.000 HD
ENDBRANCH  16  19
BRANCH  18  21
ATOM     21  O   UNL     1      48.886 -36.031  48.872  0.00  0.00    +0.000 OA
ATOM     22  H   UNL     1      47.978 -35.775  49.109  0.00  0.00    +0.000 HD
ENDBRANCH  18  21
TORSDOF 2
ENDMDL
MODEL 8
REMARK VINA RESULT:      -6.8      3.789      7.128
REMARK  Name = COUMESTROL.pdbqt.pdb
REMARK  2 active torsions:
REMARK  status: ('A' for Active; 'I' for Inactive)
REMARK    1  A    between atoms: C_16  and  O_19
REMARK    2  A    between atoms: C_18  and  O_21
REMARK                            x       y       z     vdW  Elec       q    Type
REMARK                         _______ _______ _______ _____ _____    ______ ____
ROOT
ATOM      1  O   UNL     1      48.649 -35.965  48.127  0.00  0.00    +0.000 OA
ATOM      2  O   UNL     1      49.686 -38.397  45.014  0.00  0.00    +0.000 OA
ATOM      3  O   UNL     1      50.234 -40.011  46.573  0.00  0.00    +0.000 OA
ATOM      4  C   UNL     1      49.427 -37.951  47.377  0.00  0.00    +0.000 A 
ATOM      5  C   UNL     1      48.969 -36.703  47.042  0.00  0.00    +0.000 A 
ATOM      6  C   UNL     1      49.394 -38.008  48.793  0.00  0.00    +0.000 A 
ATOM      7  C   UNL     1      48.830 -36.196  45.710  0.00  0.00    +0.000 A 
ATOM      8  C   UNL     1      48.909 -36.763  49.208  0.00  0.00    +0.000 A 
ATOM      9  C   UNL     1      49.205 -37.089  44.696  0.00  0.00    +0.000 A 
ATOM     10  C   UNL     1      49.817 -38.882  46.344  0.00  0.00    +0.000 A 
ATOM     11  C   UNL     1      49.716 -38.963  49.770  0.00  0.00    +0.000 A 
ATOM     12  C   UNL     1      48.365 -34.929  45.384  0.00  0.00    +0.000 A 
ATOM     13  C   UNL     1      48.719 -36.397  50.540  0.00  0.00    +0.000 A 
ATOM     14  C   UNL     1      49.125 -36.738  43.354  0.00  0.00    +0.000 A 
ATOM     15  C   UNL     1      49.538 -38.629  51.116  0.00  0.00    +0.000 A 
ATOM     16  C   UNL     1      49.052 -37.375  51.480  0.00  0.00    +0.000 A 
ATOM     17  C   UNL     1      48.279 -34.563  44.041  0.00  0.00    +0.000 A 
ATOM     18  C   UNL     1      48.657 -35.466  43.043  0.00  0.00    +0.000 A 
ENDROOT
BRANCH  16  19
ATOM     19  O   UNL     1      48.903 -37.116  52.816  0.00  0.00    +0.000 OA
ATOM     20  H   UNL     1      48.606 -36.195  52.919  0.00  0.00    +0.000 HD
ENDBRANCH  16  19
BRANCH  18  21
ATOM     21  O   UNL     1      48.575 -35.114  41.725  0.00  0.00    +0.000 OA
ATOM     22  H   UNL     1      48.702 -35.913  41.185  0.00  0.00    +0.000 HD
ENDBRANCH  18  21
TORSDOF 2
ENDMDL
MODEL 9
REMARK VINA RESULT:      -6.6      3.867      6.732
REMARK  Name = COUMESTROL.pdbqt.pdb
REMARK  2 active torsions:
REMARK  status: ('A' for Active; 'I' for Inactive)
REMARK    1  A    between atoms: C_16  and  O_19
REMARK    2  A    between atoms: C_18  and  O_21
REMARK                            x       y       z     vdW  Elec       q    Type
REMARK                         _______ _______ _______ _____ _____    ______ ____
ROOT
ATOM      1  O   UNL     1      50.111 -39.390  46.695  0.00  0.00    +0.000 OA
ATOM      2  O   UNL     1      48.545 -35.884  48.086  0.00  0.00    +0.000 OA
ATOM      3  O   UNL     1      48.306 -35.221  45.886  0.00  0.00    +0.000 OA
ATOM      4  C   UNL     1      49.228 -37.350  46.287  0.00  0.00    +0.000 A 
ATOM      5  C   UNL     1      49.605 -38.262  47.238  0.00  0.00    +0.000 A 
ATOM      6  C   UNL     1      49.520 -37.951  45.037  0.00  0.00    +0.000 A 
ATOM      7  C   UNL     1      49.494 -38.083  48.654  0.00  0.00    +0.000 A 
ATOM      8  C   UNL     1      50.061 -39.204  45.340  0.00  0.00    +0.000 A 
ATOM      9  C   UNL     1      48.948 -36.855  49.054  0.00  0.00    +0.000 A 
ATOM     10  C   UNL     1      48.663 -36.080  46.683  0.00  0.00    +0.000 A 
ATOM     11  C   UNL     1      49.390 -37.583  43.688  0.00  0.00    +0.000 A 
ATOM     12  C   UNL     1      49.880 -39.016  49.608  0.00  0.00    +0.000 A 
ATOM     13  C   UNL     1      50.487 -40.128  44.387  0.00  0.00    +0.000 A 
ATOM     14  C   UNL     1      48.778 -36.539  50.397  0.00  0.00    +0.000 A 
ATOM     15  C   UNL     1      49.808 -38.486  42.706  0.00  0.00    +0.000 A 
ATOM     16  C   UNL     1      50.341 -39.724  43.058  0.00  0.00    +0.000 A 
ATOM     17  C   UNL     1      49.716 -38.713  50.959  0.00  0.00    +0.000 A 
ATOM     18  C   UNL     1      49.170 -37.484  51.340  0.00  0.00    +0.000 A 
ENDROOT
BRANCH  16  19
ATOM     19  O   UNL     1      50.730 -40.558  42.044  0.00  0.00    +0.000 OA
ATOM     20  H   UNL     1      49.939 -40.821  41.543  0.00  0.00    +0.000 HD
ENDBRANCH  16  19
BRANCH  18  21
ATOM     21  O   UNL     1      49.006 -37.180  52.662  0.00  0.00    +0.000 OA
ATOM     22  H   UNL     1      48.980 -38.011  53.168  0.00  0.00    +0.000 HD
ENDBRANCH  18  21
TORSDOF 2
ENDMDL
