MODEL 1
REMARK VINA RESULT:      -8.4      0.000      0.000
REMARK  Name = CP466722.pdbqt.pdb
REMARK  3 active torsions:
REMARK  status: ('A' for Active; 'I' for Inactive)
REMARK    1  A    between atoms: C_5  and  C_23
REMARK    2  A    between atoms: C_14  and  O_16
REMARK    3  A    between atoms: C_15  and  O_18
REMARK                            x       y       z     vdW  Elec       q    Type
REMARK                         _______ _______ _______ _____ _____    ______ ____
ROOT
ATOM      1  N   UNL     1      49.097 -38.192  47.664  0.00  0.00    +0.000 N 
ATOM      2  N   UNL     1      48.844 -38.190  48.994  0.00  0.00    +0.000 NA
ATOM      3  N   UNL     1      48.769 -36.066  48.178  0.00  0.00    +0.000 NA
ATOM      4  C   UNL     1      49.030 -36.880  47.188  0.00  0.00    +0.000 A 
ATOM      5  C   UNL     1      48.653 -36.892  49.272  0.00  0.00    +0.000 A 
ATOM      6  C   UNL     1      49.417 -39.382  46.930  0.00  0.00    +0.000 A 
ATOM      7  N   UNL     1      49.781 -39.221  45.629  0.00  0.00    +0.000 NA
ATOM      8  C   UNL     1      50.101 -40.330  44.953  0.00  0.00    +0.000 A 
ATOM      9  N   UNL     1      50.100 -41.570  45.451  0.00  0.00    +0.000 NA
ATOM     10  C   UNL     1      49.742 -41.721  46.727  0.00  0.00    +0.000 A 
ATOM     11  C   UNL     1      49.370 -40.648  47.547  0.00  0.00    +0.000 A 
ATOM     12  C   UNL     1      49.747 -43.004  47.257  0.00  0.00    +0.000 A 
ATOM     13  C   UNL     1      48.976 -40.926  48.878  0.00  0.00    +0.000 A 
ATOM     14  C   UNL     1      48.949 -42.219  49.387  0.00  0.00    +0.000 A 
ATOM     15  C   UNL     1      49.392 -43.262  48.583  0.00  0.00    +0.000 A 
ATOM     16  N   UNL     1      49.202 -36.518  45.902  0.00  0.00    +0.000 N 
ATOM     17  H   UNL     1      49.372 -35.539  45.698  0.00  0.00    +0.000 HD
ATOM     18  H   UNL     1      49.618 -37.178  45.246  0.00  0.00    +0.000 HD
ENDROOT
BRANCH   5  19
ATOM     19  C   UNL     1      48.354 -36.374  50.610  0.00  0.00    +0.000 A 
ATOM     20  N   UNL     1      47.088 -35.939  50.859  0.00  0.00    +0.000 NA
ATOM     21  C   UNL     1      46.838 -35.465  52.099  0.00  0.00    +0.000 A 
ATOM     22  C   UNL     1      47.779 -35.402  53.111  0.00  0.00    +0.000 A 
ATOM     23  C   UNL     1      49.061 -35.856  52.830  0.00  0.00    +0.000 A 
ATOM     24  C   UNL     1      49.362 -36.349  51.566  0.00  0.00    +0.000 A 
ENDBRANCH   5  19
BRANCH  14  25
ATOM     25  O   UNL     1      48.576 -42.396  50.692  0.00  0.00    +0.000 OA
ATOM     26  C   UNL     1      47.885 -41.267  51.164  0.00  0.00    +0.000 C 
ENDBRANCH  14  25
BRANCH  15  27
ATOM     27  O   UNL     1      49.404 -44.551  49.043  0.00  0.00    +0.000 OA
ATOM     28  C   UNL     1      50.715 -45.059  49.029  0.00  0.00    +0.000 C 
ENDBRANCH  15  27
TORSDOF 3
ENDMDL
MODEL 2
REMARK VINA RESULT:      -8.1      2.849      4.487
REMARK  Name = CP466722.pdbqt.pdb
REMARK  3 active torsions:
REMARK  status: ('A' for Active; 'I' for Inactive)
REMARK    1  A    between atoms: C_5  and  C_23
REMARK    2  A    between atoms: C_14  and  O_16
REMARK    3  A    between atoms: C_15  and  O_18
REMARK                            x       y       z     vdW  Elec       q    Type
REMARK                         _______ _______ _______ _____ _____    ______ ____
ROOT
ATOM      1  N   UNL     1      48.790 -40.266  49.315  0.00  0.00    +0.000 N 
ATOM      2  N   UNL     1      48.571 -38.936  49.432  0.00  0.00    +0.000 NA
ATOM      3  N   UNL     1      48.172 -39.975  51.418  0.00  0.00    +0.000 NA
ATOM      4  C   UNL     1      48.552 -40.876  50.549  0.00  0.00    +0.000 A 
ATOM      5  C   UNL     1      48.198 -38.794  50.712  0.00  0.00    +0.000 A 
ATOM      6  C   UNL     1      49.164 -40.892  48.079  0.00  0.00    +0.000 A 
ATOM      7  N   UNL     1      49.219 -42.251  48.071  0.00  0.00    +0.000 NA
ATOM      8  C   UNL     1      49.545 -42.833  46.912  0.00  0.00    +0.000 A 
ATOM      9  N   UNL     1      49.810 -42.193  45.770  0.00  0.00    +0.000 NA
ATOM     10  C   UNL     1      49.755 -40.860  45.783  0.00  0.00    +0.000 A 
ATOM     11  C   UNL     1      49.438 -40.121  46.932  0.00  0.00    +0.000 A 
ATOM     12  C   UNL     1      50.019 -40.184  44.600  0.00  0.00    +0.000 A 
ATOM     13  C   UNL     1      49.440 -38.709  46.842  0.00  0.00    +0.000 A 
ATOM     14  C   UNL     1      49.744 -38.042  45.661  0.00  0.00    +0.000 A 
ATOM     15  C   UNL     1      49.982 -38.791  44.514  0.00  0.00    +0.000 A 
ATOM     16  N   UNL     1      48.701 -42.191  50.800  0.00  0.00    +0.000 N 
ATOM     17  H   UNL     1      48.280 -42.569  51.642  0.00  0.00    +0.000 HD
ATOM     18  H   UNL     1      48.781 -42.845  50.021  0.00  0.00    +0.000 HD
ENDROOT
BRANCH   5  19
ATOM     19  C   UNL     1      47.839 -37.512  51.326  0.00  0.00    +0.000 A 
ATOM     20  N   UNL     1      46.638 -36.961  50.998  0.00  0.00    +0.000 NA
ATOM     21  C   UNL     1      46.330 -35.779  51.576  0.00  0.00    +0.000 A 
ATOM     22  C   UNL     1      47.152 -35.113  52.467  0.00  0.00    +0.000 A 
ATOM     23  C   UNL     1      48.369 -35.701  52.786  0.00  0.00    +0.000 A 
ATOM     24  C   UNL     1      48.726 -36.915  52.213  0.00  0.00    +0.000 A 
ENDBRANCH   5  19
BRANCH  14  25
ATOM     25  O   UNL     1      49.701 -36.674  45.656  0.00  0.00    +0.000 OA
ATOM     26  C   UNL     1      48.372 -36.224  45.736  0.00  0.00    +0.000 C 
ENDBRANCH  14  25
BRANCH  15  27
ATOM     27  O   UNL     1      50.265 -38.184  43.321  0.00  0.00    +0.000 OA
ATOM     28  C   UNL     1      50.833 -39.110  42.428  0.00  0.00    +0.000 C 
ENDBRANCH  15  27
TORSDOF 3
ENDMDL
MODEL 3
REMARK VINA RESULT:      -7.6      1.975      2.942
REMARK  Name = CP466722.pdbqt.pdb
REMARK  3 active torsions:
REMARK  status: ('A' for Active; 'I' for Inactive)
REMARK    1  A    between atoms: C_5  and  C_23
REMARK    2  A    between atoms: C_14  and  O_16
REMARK    3  A    between atoms: C_15  and  O_18
REMARK                            x       y       z     vdW  Elec       q    Type
REMARK                         _______ _______ _______ _____ _____    ______ ____
ROOT
ATOM      1  N   UNL     1      49.622 -40.879  47.971  0.00  0.00    +0.000 N 
ATOM      2  N   UNL     1      49.370 -40.361  49.197  0.00  0.00    +0.000 NA
ATOM      3  N   UNL     1      49.926 -38.701  47.742  0.00  0.00    +0.000 NA
ATOM      4  C   UNL     1      49.945 -39.839  47.097  0.00  0.00    +0.000 A 
ATOM      5  C   UNL     1      49.565 -39.046  49.023  0.00  0.00    +0.000 A 
ATOM      6  C   UNL     1      49.586 -42.286  47.694  0.00  0.00    +0.000 A 
ATOM      7  N   UNL     1      49.991 -42.678  46.457  0.00  0.00    +0.000 NA
ATOM      8  C   UNL     1      49.978 -43.992  46.208  0.00  0.00    +0.000 A 
ATOM      9  N   UNL     1      49.611 -44.942  47.073  0.00  0.00    +0.000 NA
ATOM     10  C   UNL     1      49.214 -44.552  48.285  0.00  0.00    +0.000 A 
ATOM     11  C   UNL     1      49.166 -43.207  48.675  0.00  0.00    +0.000 A 
ATOM     12  C   UNL     1      48.840 -45.531  49.195  0.00  0.00    +0.000 A 
ATOM     13  C   UNL     1      48.698 -42.902  49.976  0.00  0.00    +0.000 A 
ATOM     14  C   UNL     1      48.289 -43.889  50.865  0.00  0.00    +0.000 A 
ATOM     15  C   UNL     1      48.414 -45.220  50.489  0.00  0.00    +0.000 A 
ATOM     16  N   UNL     1      50.225 -39.992  45.788  0.00  0.00    +0.000 N 
ATOM     17  H   UNL     1      50.676 -39.224  45.302  0.00  0.00    +0.000 HD
ATOM     18  H   UNL     1      50.435 -40.921  45.425  0.00  0.00    +0.000 HD
ENDROOT
BRANCH   5  19
ATOM     19  C   UNL     1      49.420 -38.047  50.087  0.00  0.00    +0.000 A 
ATOM     20  N   UNL     1      50.136 -38.223  51.231  0.00  0.00    +0.000 NA
ATOM     21  C   UNL     1      49.984 -37.290  52.196  0.00  0.00    +0.000 A 
ATOM     22  C   UNL     1      49.159 -36.186  52.086  0.00  0.00    +0.000 A 
ATOM     23  C   UNL     1      48.443 -36.030  50.906  0.00  0.00    +0.000 A 
ATOM     24  C   UNL     1      48.568 -36.967  49.889  0.00  0.00    +0.000 A 
ENDBRANCH   5  19
BRANCH  14  25
ATOM     25  O   UNL     1      47.871 -43.507  52.112  0.00  0.00    +0.000 OA
ATOM     26  C   UNL     1      47.868 -42.106  52.222  0.00  0.00    +0.000 C 
ENDBRANCH  14  25
BRANCH  15  27
ATOM     27  O   UNL     1      48.045 -46.231  51.335  0.00  0.00    +0.000 OA
ATOM     28  C   UNL     1      47.671 -47.368  50.598  0.00  0.00    +0.000 C 
ENDBRANCH  15  27
TORSDOF 3
ENDMDL
MODEL 4
REMARK VINA RESULT:      -7.5      2.958      7.467
REMARK  Name = CP466722.pdbqt.pdb
REMARK  3 active torsions:
REMARK  status: ('A' for Active; 'I' for Inactive)
REMARK    1  A    between atoms: C_5  and  C_23
REMARK    2  A    between atoms: C_14  and  O_16
REMARK    3  A    between atoms: C_15  and  O_18
REMARK                            x       y       z     vdW  Elec       q    Type
REMARK                         _______ _______ _______ _____ _____    ______ ____
ROOT
ATOM      1  N   UNL     1      48.821 -40.921  50.048  0.00  0.00    +0.000 N 
ATOM      2  N   UNL     1      49.404 -41.516  48.981  0.00  0.00    +0.000 NA
ATOM      3  N   UNL     1      48.958 -43.058  50.596  0.00  0.00    +0.000 NA
ATOM      4  C   UNL     1      48.545 -41.890  51.015  0.00  0.00    +0.000 A 
ATOM      5  C   UNL     1      49.474 -42.805  49.346  0.00  0.00    +0.000 A 
ATOM      6  C   UNL     1      48.590 -39.506  50.124  0.00  0.00    +0.000 A 
ATOM      7  N   UNL     1      48.121 -39.025  51.306  0.00  0.00    +0.000 NA
ATOM      8  C   UNL     1      47.928 -37.703  51.383  0.00  0.00    +0.000 A 
ATOM      9  N   UNL     1      48.165 -36.826  50.403  0.00  0.00    +0.000 NA
ATOM     10  C   UNL     1      48.625 -37.305  49.245  0.00  0.00    +0.000 A 
ATOM     11  C   UNL     1      48.860 -38.669  49.023  0.00  0.00    +0.000 A 
ATOM     12  C   UNL     1      48.884 -36.402  48.224  0.00  0.00    +0.000 A 
ATOM     13  C   UNL     1      49.317 -39.071  47.746  0.00  0.00    +0.000 A 
ATOM     14  C   UNL     1      49.537 -38.162  46.718  0.00  0.00    +0.000 A 
ATOM     15  C   UNL     1      49.371 -36.807  46.979  0.00  0.00    +0.000 A 
ATOM     16  N   UNL     1      47.939 -41.650  52.194  0.00  0.00    +0.000 N 
ATOM     17  H   UNL     1      48.000 -42.360  52.917  0.00  0.00    +0.000 HD
ATOM     18  H   UNL     1      47.856 -40.691  52.530  0.00  0.00    +0.000 HD
ENDROOT
BRANCH   5  19
ATOM     19  C   UNL     1      50.048 -43.865  48.512  0.00  0.00    +0.000 A 
ATOM     20  N   UNL     1      50.297 -43.584  47.203  0.00  0.00    +0.000 NA
ATOM     21  C   UNL     1      50.826 -44.577  46.455  0.00  0.00    +0.000 A 
ATOM     22  C   UNL     1      51.123 -45.839  46.938  0.00  0.00    +0.000 A 
ATOM     23  C   UNL     1      50.861 -46.096  48.277  0.00  0.00    +0.000 A 
ATOM     24  C   UNL     1      50.316 -45.104  49.082  0.00  0.00    +0.000 A 
ENDBRANCH   5  19
BRANCH  14  25
ATOM     25  O   UNL     1      50.000 -38.634  45.520  0.00  0.00    +0.000 OA
ATOM     26  C   UNL     1      49.926 -40.037  45.483  0.00  0.00    +0.000 C 
ENDBRANCH  14  25
BRANCH  15  27
ATOM     27  O   UNL     1      49.593 -35.869  46.007  0.00  0.00    +0.000 OA
ATOM     28  C   UNL     1      50.188 -34.724  46.566  0.00  0.00    +0.000 C 
ENDBRANCH  15  27
TORSDOF 3
ENDMDL
MODEL 5
REMARK VINA RESULT:      -7.4      2.978      7.113
REMARK  Name = CP466722.pdbqt.pdb
REMARK  3 active torsions:
REMARK  status: ('A' for Active; 'I' for Inactive)
REMARK    1  A    between atoms: C_5  and  C_23
REMARK    2  A    between atoms: C_14  and  O_16
REMARK    3  A    between atoms: C_15  and  O_18
REMARK                            x       y       z     vdW  Elec       q    Type
REMARK                         _______ _______ _______ _____ _____    ______ ____
ROOT
ATOM      1  N   UNL     1      49.245 -40.969  47.547  0.00  0.00    +0.000 N 
ATOM      2  N   UNL     1      49.623 -39.967  46.719  0.00  0.00    +0.000 NA
ATOM      3  N   UNL     1      49.853 -41.978  45.675  0.00  0.00    +0.000 NA
ATOM      4  C   UNL     1      49.383 -42.187  46.878  0.00  0.00    +0.000 A 
ATOM      5  C   UNL     1      49.986 -40.611  45.599  0.00  0.00    +0.000 A 
ATOM      6  C   UNL     1      48.821 -40.748  48.900  0.00  0.00    +0.000 A 
ATOM      7  N   UNL     1      48.600 -41.852  49.661  0.00  0.00    +0.000 NA
ATOM      8  C   UNL     1      48.227 -41.644  50.929  0.00  0.00    +0.000 A 
ATOM      9  N   UNL     1      48.065 -40.448  51.503  0.00  0.00    +0.000 NA
ATOM     10  C   UNL     1      48.283 -39.368  50.751  0.00  0.00    +0.000 A 
ATOM     11  C   UNL     1      48.665 -39.441  49.404  0.00  0.00    +0.000 A 
ATOM     12  C   UNL     1      48.126 -38.121  51.340  0.00  0.00    +0.000 A 
ATOM     13  C   UNL     1      48.838 -38.232  48.690  0.00  0.00    +0.000 A 
ATOM     14  C   UNL     1      48.641 -36.989  49.280  0.00  0.00    +0.000 A 
ATOM     15  C   UNL     1      48.336 -36.934  50.634  0.00  0.00    +0.000 A 
ATOM     16  N   UNL     1      49.068 -43.391  47.396  0.00  0.00    +0.000 N 
ATOM     17  H   UNL     1      49.423 -44.220  46.932  0.00  0.00    +0.000 HD
ATOM     18  H   UNL     1      48.924 -43.482  48.401  0.00  0.00    +0.000 HD
ENDROOT
BRANCH   5  19
ATOM     19  C   UNL     1      50.488 -39.943  44.394  0.00  0.00    +0.000 A 
ATOM     20  N   UNL     1      51.393 -40.609  43.625  0.00  0.00    +0.000 NA
ATOM     21  C   UNL     1      51.842 -39.972  42.521  0.00  0.00    +0.000 A 
ATOM     22  C   UNL     1      51.437 -38.707  42.135  0.00  0.00    +0.000 A 
ATOM     23  C   UNL     1      50.511 -38.053  42.938  0.00  0.00    +0.000 A 
ATOM     24  C   UNL     1      50.025 -38.671  44.083  0.00  0.00    +0.000 A 
ENDBRANCH   5  19
BRANCH  14  25
ATOM     25  O   UNL     1      48.852 -35.869  48.522  0.00  0.00    +0.000 OA
ATOM     26  C   UNL     1      49.057 -36.217  47.176  0.00  0.00    +0.000 C 
ENDBRANCH  14  25
BRANCH  15  27
ATOM     27  O   UNL     1      48.152 -35.735  51.268  0.00  0.00    +0.000 OA
ATOM     28  C   UNL     1      46.805 -35.588  51.645  0.00  0.00    +0.000 C 
ENDBRANCH  15  27
TORSDOF 3
ENDMDL
MODEL 6
REMARK VINA RESULT:      -7.0      2.807      5.906
REMARK  Name = CP466722.pdbqt.pdb
REMARK  3 active torsions:
REMARK  status: ('A' for Active; 'I' for Inactive)
REMARK    1  A    between atoms: C_5  and  C_23
REMARK    2  A    between atoms: C_14  and  O_16
REMARK    3  A    between atoms: C_15  and  O_18
REMARK                            x       y       z     vdW  Elec       q    Type
REMARK                         _______ _______ _______ _____ _____    ______ ____
ROOT
ATOM      1  N   UNL     1      48.642 -39.906  49.592  0.00  0.00    +0.000 N 
ATOM      2  N   UNL     1      48.696 -41.252  49.460  0.00  0.00    +0.000 NA
ATOM      3  N   UNL     1      48.110 -40.695  51.589  0.00  0.00    +0.000 NA
ATOM      4  C   UNL     1      48.267 -39.593  50.901  0.00  0.00    +0.000 A 
ATOM      5  C   UNL     1      48.372 -41.697  50.684  0.00  0.00    +0.000 A 
ATOM      6  C   UNL     1      48.970 -39.002  48.527  0.00  0.00    +0.000 A 
ATOM      7  N   UNL     1      49.004 -37.678  48.836  0.00  0.00    +0.000 NA
ATOM      8  C   UNL     1      49.333 -36.839  47.848  0.00  0.00    +0.000 A 
ATOM      9  N   UNL     1      49.637 -37.195  46.596  0.00  0.00    +0.000 NA
ATOM     10  C   UNL     1      49.602 -38.495  46.299  0.00  0.00    +0.000 A 
ATOM     11  C   UNL     1      49.260 -39.482  47.234  0.00  0.00    +0.000 A 
ATOM     12  C   UNL     1      49.924 -38.877  45.005  0.00  0.00    +0.000 A 
ATOM     13  C   UNL     1      49.223 -40.829  46.804  0.00  0.00    +0.000 A 
ATOM     14  C   UNL     1      49.511 -41.196  45.495  0.00  0.00    +0.000 A 
ATOM     15  C   UNL     1      49.920 -40.214  44.601  0.00  0.00    +0.000 A 
ATOM     16  N   UNL     1      48.088 -38.344  51.372  0.00  0.00    +0.000 N 
ATOM     17  H   UNL     1      48.053 -38.212  52.377  0.00  0.00    +0.000 HD
ATOM     18  H   UNL     1      48.444 -37.550  50.840  0.00  0.00    +0.000 HD
ENDROOT
BRANCH   5  19
ATOM     19  C   UNL     1      48.304 -43.115  51.051  0.00  0.00    +0.000 A 
ATOM     20  N   UNL     1      47.905 -43.429  52.314  0.00  0.00    +0.000 NA
ATOM     21  C   UNL     1      47.851 -44.742  52.628  0.00  0.00    +0.000 A 
ATOM     22  C   UNL     1      48.170 -45.764  51.753  0.00  0.00    +0.000 A 
ATOM     23  C   UNL     1      48.571 -45.414  50.470  0.00  0.00    +0.000 A 
ATOM     24  C   UNL     1      48.642 -44.075  50.106  0.00  0.00    +0.000 A 
ENDBRANCH   5  19
BRANCH  14  25
ATOM     25  O   UNL     1      49.472 -42.525  45.168  0.00  0.00    +0.000 OA
ATOM     26  C   UNL     1      49.684 -43.318  46.309  0.00  0.00    +0.000 C 
ENDBRANCH  14  25
BRANCH  15  27
ATOM     27  O   UNL     1      50.235 -40.525  43.305  0.00  0.00    +0.000 OA
ATOM     28  C   UNL     1      51.441 -39.905  42.937  0.00  0.00    +0.000 C 
ENDBRANCH  15  27
TORSDOF 3
ENDMDL
MODEL 7
REMARK VINA RESULT:      -7.0      2.186      4.569
REMARK  Name = CP466722.pdbqt.pdb
REMARK  3 active torsions:
REMARK  status: ('A' for Active; 'I' for Inactive)
REMARK    1  A    between atoms: C_5  and  C_23
REMARK    2  A    between atoms: C_14  and  O_16
REMARK    3  A    between atoms: C_15  and  O_18
REMARK                            x       y       z     vdW  Elec       q    Type
REMARK                         _______ _______ _______ _____ _____    ______ ____
ROOT
ATOM      1  N   UNL     1      48.662 -39.219  49.725  0.00  0.00    +0.000 N 
ATOM      2  N   UNL     1      48.954 -38.927  48.436  0.00  0.00    +0.000 NA
ATOM      3  N   UNL     1      48.609 -37.011  49.617  0.00  0.00    +0.000 NA
ATOM      4  C   UNL     1      48.470 -38.028  50.429  0.00  0.00    +0.000 A 
ATOM      5  C   UNL     1      48.911 -37.587  48.405  0.00  0.00    +0.000 A 
ATOM      6  C   UNL     1      48.544 -40.563  50.215  0.00  0.00    +0.000 A 
ATOM      7  N   UNL     1      48.114 -40.713  51.496  0.00  0.00    +0.000 NA
ATOM      8  C   UNL     1      47.982 -41.966  51.943  0.00  0.00    +0.000 A 
ATOM      9  N   UNL     1      48.228 -43.073  51.235  0.00  0.00    +0.000 NA
ATOM     10  C   UNL     1      48.650 -42.919  49.979  0.00  0.00    +0.000 A 
ATOM     11  C   UNL     1      48.844 -41.664  49.387  0.00  0.00    +0.000 A 
ATOM     12  C   UNL     1      48.899 -44.062  49.231  0.00  0.00    +0.000 A 
ATOM     13  C   UNL     1      49.326 -41.616  48.058  0.00  0.00    +0.000 A 
ATOM     14  C   UNL     1      49.608 -42.767  47.331  0.00  0.00    +0.000 A 
ATOM     15  C   UNL     1      49.339 -44.003  47.907  0.00  0.00    +0.000 A 
ATOM     16  N   UNL     1      48.192 -37.947  51.744  0.00  0.00    +0.000 N 
ATOM     17  H   UNL     1      47.838 -37.068  52.106  0.00  0.00    +0.000 HD
ATOM     18  H   UNL     1      47.884 -38.781  52.244  0.00  0.00    +0.000 HD
ENDROOT
BRANCH   5  19
ATOM     19  C   UNL     1      49.153 -36.785  47.202  0.00  0.00    +0.000 A 
ATOM     20  N   UNL     1      49.206 -35.431  47.336  0.00  0.00    +0.000 NA
ATOM     21  C   UNL     1      49.429 -34.714  46.213  0.00  0.00    +0.000 A 
ATOM     22  C   UNL     1      49.606 -35.270  44.958  0.00  0.00    +0.000 A 
ATOM     23  C   UNL     1      49.549 -36.654  44.852  0.00  0.00    +0.000 A 
ATOM     24  C   UNL     1      49.320 -37.429  45.982  0.00  0.00    +0.000 A 
ENDBRANCH   5  19
BRANCH  14  25
ATOM     25  O   UNL     1      50.050 -42.630  46.043  0.00  0.00    +0.000 OA
ATOM     26  C   UNL     1      49.373 -41.579  45.400  0.00  0.00    +0.000 C 
ENDBRANCH  14  25
BRANCH  15  27
ATOM     27  O   UNL     1      49.581 -45.166  47.227  0.00  0.00    +0.000 OA
ATOM     28  C   UNL     1      49.797 -46.220  48.131  0.00  0.00    +0.000 C 
ENDBRANCH  15  27
TORSDOF 3
ENDMDL
MODEL 8
REMARK VINA RESULT:      -6.8      4.177      8.758
REMARK  Name = CP466722.pdbqt.pdb
REMARK  3 active torsions:
REMARK  status: ('A' for Active; 'I' for Inactive)
REMARK    1  A    between atoms: C_5  and  C_23
REMARK    2  A    between atoms: C_14  and  O_16
REMARK    3  A    between atoms: C_15  and  O_18
REMARK                            x       y       z     vdW  Elec       q    Type
REMARK                         _______ _______ _______ _____ _____    ______ ____
ROOT
ATOM      1  N   UNL     1      49.912 -45.352  49.739  0.00  0.00    +0.000 N 
ATOM      2  N   UNL     1      50.781 -44.885  48.812  0.00  0.00    +0.000 NA
ATOM      3  N   UNL     1      51.030 -47.135  49.060  0.00  0.00    +0.000 NA
ATOM      4  C   UNL     1      50.076 -46.734  49.860  0.00  0.00    +0.000 A 
ATOM      5  C   UNL     1      51.442 -45.987  48.425  0.00  0.00    +0.000 A 
ATOM      6  C   UNL     1      49.020 -44.501  50.474  0.00  0.00    +0.000 A 
ATOM      7  N   UNL     1      48.298 -45.082  51.469  0.00  0.00    +0.000 NA
ATOM      8  C   UNL     1      47.485 -44.283  52.167  0.00  0.00    +0.000 A 
ATOM      9  N   UNL     1      47.333 -42.970  51.973  0.00  0.00    +0.000 NA
ATOM     10  C   UNL     1      48.044 -42.405  50.996  0.00  0.00    +0.000 A 
ATOM     11  C   UNL     1      48.924 -43.126  50.178  0.00  0.00    +0.000 A 
ATOM     12  C   UNL     1      47.902 -41.039  50.792  0.00  0.00    +0.000 A 
ATOM     13  C   UNL     1      49.604 -42.433  49.149  0.00  0.00    +0.000 A 
ATOM     14  C   UNL     1      49.425 -41.072  48.929  0.00  0.00    +0.000 A 
ATOM     15  C   UNL     1      48.606 -40.359  49.796  0.00  0.00    +0.000 A 
ATOM     16  N   UNL     1      49.352 -47.527  50.674  0.00  0.00    +0.000 N 
ATOM     17  H   UNL     1      49.700 -48.460  50.867  0.00  0.00    +0.000 HD
ATOM     18  H   UNL     1      48.792 -47.107  51.416  0.00  0.00    +0.000 HD
ENDROOT
BRANCH   5  19
ATOM     19  C   UNL     1      52.512 -45.992  47.423  0.00  0.00    +0.000 A 
ATOM     20  N   UNL     1      53.169 -44.824  47.184  0.00  0.00    +0.000 NA
ATOM     21  C   UNL     1      54.151 -44.855  46.256  0.00  0.00    +0.000 A 
ATOM     22  C   UNL     1      54.519 -45.987  45.551  0.00  0.00    +0.000 A 
ATOM     23  C   UNL     1      53.833 -47.165  45.819  0.00  0.00    +0.000 A 
ATOM     24  C   UNL     1      52.815 -47.177  46.764  0.00  0.00    +0.000 A 
ENDBRANCH   5  19
BRANCH  14  25
ATOM     25  O   UNL     1      50.139 -40.476  47.926  0.00  0.00    +0.000 OA
ATOM     26  C   UNL     1      49.436 -40.550  46.711  0.00  0.00    +0.000 C 
ENDBRANCH  14  25
BRANCH  15  27
ATOM     27  O   UNL     1      48.412 -39.013  49.637  0.00  0.00    +0.000 OA
ATOM     28  C   UNL     1      48.055 -38.426  50.863  0.00  0.00    +0.000 C 
ENDBRANCH  15  27
TORSDOF 3
ENDMDL
MODEL 9
REMARK VINA RESULT:      -6.8      3.231      4.986
REMARK  Name = CP466722.pdbqt.pdb
REMARK  3 active torsions:
REMARK  status: ('A' for Active; 'I' for Inactive)
REMARK    1  A    between atoms: C_5  and  C_23
REMARK    2  A    between atoms: C_14  and  O_16
REMARK    3  A    between atoms: C_15  and  O_18
REMARK                            x       y       z     vdW  Elec       q    Type
REMARK                         _______ _______ _______ _____ _____    ______ ____
ROOT
ATOM      1  N   UNL     1      48.487 -42.631  50.338  0.00  0.00    +0.000 N 
ATOM      2  N   UNL     1      48.588 -41.445  49.692  0.00  0.00    +0.000 NA
ATOM      3  N   UNL     1      48.060 -41.105  51.881  0.00  0.00    +0.000 NA
ATOM      4  C   UNL     1      48.177 -42.393  51.679  0.00  0.00    +0.000 A 
ATOM      5  C   UNL     1      48.322 -40.546  50.652  0.00  0.00    +0.000 A 
ATOM      6  C   UNL     1      48.643 -43.896  49.679  0.00  0.00    +0.000 A 
ATOM      7  N   UNL     1      48.382 -45.008  50.417  0.00  0.00    +0.000 NA
ATOM      8  C   UNL     1      48.506 -46.185  49.795  0.00  0.00    +0.000 A 
ATOM      9  N   UNL     1      48.854 -46.354  48.516  0.00  0.00    +0.000 NA
ATOM     10  C   UNL     1      49.109 -45.259  47.797  0.00  0.00    +0.000 A 
ATOM     11  C   UNL     1      49.030 -43.964  48.326  0.00  0.00    +0.000 A 
ATOM     12  C   UNL     1      49.462 -45.422  46.464  0.00  0.00    +0.000 A 
ATOM     13  C   UNL     1      49.354 -42.874  47.483  0.00  0.00    +0.000 A 
ATOM     14  C   UNL     1      49.743 -43.052  46.160  0.00  0.00    +0.000 A 
ATOM     15  C   UNL     1      49.743 -44.337  45.631  0.00  0.00    +0.000 A 
ATOM     16  N   UNL     1      48.031 -43.349  52.617  0.00  0.00    +0.000 N 
ATOM     17  H   UNL     1      47.578 -43.098  53.489  0.00  0.00    +0.000 HD
ATOM     18  H   UNL     1      47.919 -44.321  52.330  0.00  0.00    +0.000 HD
ENDROOT
BRANCH   5  19
ATOM     19  C   UNL     1      48.300 -39.097  50.436  0.00  0.00    +0.000 A 
ATOM     20  N   UNL     1      47.451 -38.350  51.195  0.00  0.00    +0.000 NA
ATOM     21  C   UNL     1      47.449 -37.017  50.976  0.00  0.00    +0.000 A 
ATOM     22  C   UNL     1      48.248 -36.381  50.043  0.00  0.00    +0.000 A 
ATOM     23  C   UNL     1      49.106 -37.168  49.285  0.00  0.00    +0.000 A 
ATOM     24  C   UNL     1      49.139 -38.543  49.477  0.00  0.00    +0.000 A 
ENDBRANCH   5  19
BRANCH  14  25
ATOM     25  O   UNL     1      50.017 -41.942  45.408  0.00  0.00    +0.000 OA
ATOM     26  C   UNL     1      49.321 -40.827  45.906  0.00  0.00    +0.000 C 
ENDBRANCH  14  25
BRANCH  15  27
ATOM     27  O   UNL     1      50.099 -44.564  44.329  0.00  0.00    +0.000 OA
ATOM     28  C   UNL     1      48.953 -44.789  43.546  0.00  0.00    +0.000 C 
ENDBRANCH  15  27
TORSDOF 3
ENDMDL
