MODEL 1
REMARK VINA RESULT:      -6.9      0.000      0.000
REMARK  Name = Curcumin.pdbqt.pdb
REMARK  8 active torsions:
REMARK  status: ('A' for Active; 'I' for Inactive)
REMARK    1  A    between atoms: C_2  and  C_4
REMARK    2  A    between atoms: C_5  and  C_6
REMARK    3  A    between atoms: C_8  and  O_12
REMARK    4  A    between atoms: C_9  and  O_14
REMARK    5  A    between atoms: C_16  and  C_18
REMARK    6  A    between atoms: C_19  and  C_20
REMARK    7  A    between atoms: C_22  and  O_26
REMARK    8  A    between atoms: C_23  and  O_28
REMARK                            x       y       z     vdW  Elec       q    Type
REMARK                         _______ _______ _______ _____ _____    ______ ____
ROOT
ATOM      1  C   UNL     1      48.100 -45.436  50.813  0.00  0.00    +0.000 C 
ATOM      2  C   UNL     1      48.806 -46.656  50.607  0.00  0.00    +0.000 C 
ATOM      3  O   UNL     1      49.686 -46.711  49.760  0.00  0.00    +0.000 OA
ATOM      4  C   UNL     1      47.392 -44.215  51.015  0.00  0.00    +0.000 C 
ATOM      5  O   UNL     1      46.327 -44.224  51.615  0.00  0.00    +0.000 OA
ENDROOT
BRANCH   2   6
ATOM      6  C   UNL     1      48.480 -47.815  51.398  0.00  0.00    +0.000 C 
ATOM      7  C   UNL     1      48.211 -48.782  52.058  0.00  0.00    +0.000 C 
BRANCH   7   8
ATOM      8  C   UNL     1      47.891 -49.929  52.844  0.00  0.00    +0.000 A 
ATOM      9  C   UNL     1      48.463 -51.162  52.539  0.00  0.00    +0.000 A 
ATOM     10  C   UNL     1      48.161 -52.297  53.299  0.00  0.00    +0.000 A 
ATOM     11  C   UNL     1      47.271 -52.170  54.371  0.00  0.00    +0.000 A 
ATOM     12  C   UNL     1      46.697 -50.937  54.678  0.00  0.00    +0.000 A 
ATOM     13  C   UNL     1      47.007 -49.815  53.913  0.00  0.00    +0.000 A 
BRANCH  10  14
ATOM     14  O   UNL     1      48.686 -53.542  53.059  0.00  0.00    +0.000 OA
ATOM     15  C   UNL     1      49.967 -53.779  53.569  0.00  0.00    +0.000 C 
ENDBRANCH  10  14
BRANCH  11  16
ATOM     16  O   UNL     1      46.915 -53.221  55.169  0.00  0.00    +0.000 OA
ATOM     17  H   UNL     1      46.620 -53.976  54.632  0.00  0.00    +0.000 HD
ENDBRANCH  11  16
ENDBRANCH   7   8
ENDBRANCH   2   6
BRANCH   4  18
ATOM     18  C   UNL     1      47.937 -42.981  50.511  0.00  0.00    +0.000 C 
ATOM     19  C   UNL     1      48.395 -41.952  50.091  0.00  0.00    +0.000 C 
BRANCH  19  20
ATOM     20  C   UNL     1      48.943 -40.734  49.594  0.00  0.00    +0.000 A 
ATOM     21  C   UNL     1      48.893 -39.580  50.376  0.00  0.00    +0.000 A 
ATOM     22  C   UNL     1      49.425 -38.377  49.904  0.00  0.00    +0.000 A 
ATOM     23  C   UNL     1      50.007 -38.354  48.633  0.00  0.00    +0.000 A 
ATOM     24  C   UNL     1      50.060 -39.504  47.847  0.00  0.00    +0.000 A 
ATOM     25  C   UNL     1      49.526 -40.696  48.329  0.00  0.00    +0.000 A 
BRANCH  22  26
ATOM     26  O   UNL     1      49.418 -37.198  50.608  0.00  0.00    +0.000 OA
ATOM     27  C   UNL     1      48.159 -36.596  50.767  0.00  0.00    +0.000 C 
ENDBRANCH  22  26
BRANCH  23  28
ATOM     28  O   UNL     1      50.533 -37.187  48.153  0.00  0.00    +0.000 OA
ATOM     29  H   UNL     1      51.370 -37.387  47.694  0.00  0.00    +0.000 HD
ENDBRANCH  23  28
ENDBRANCH  19  20
ENDBRANCH   4  18
TORSDOF 8
ENDMDL
MODEL 2
REMARK VINA RESULT:      -6.8      1.685     11.889
REMARK  Name = Curcumin.pdbqt.pdb
REMARK  8 active torsions:
REMARK  status: ('A' for Active; 'I' for Inactive)
REMARK    1  A    between atoms: C_2  and  C_4
REMARK    2  A    between atoms: C_5  and  C_6
REMARK    3  A    between atoms: C_8  and  O_12
REMARK    4  A    between atoms: C_9  and  O_14
REMARK    5  A    between atoms: C_16  and  C_18
REMARK    6  A    between atoms: C_19  and  C_20
REMARK    7  A    between atoms: C_22  and  O_26
REMARK    8  A    between atoms: C_23  and  O_28
REMARK                            x       y       z     vdW  Elec       q    Type
REMARK                         _______ _______ _______ _____ _____    ______ ____
ROOT
ATOM      1  C   UNL     1      48.441 -44.829  50.861  0.00  0.00    +0.000 C 
ATOM      2  C   UNL     1      48.981 -44.494  49.586  0.00  0.00    +0.000 C 
ATOM      3  O   UNL     1      49.277 -45.384  48.802  0.00  0.00    +0.000 OA
ATOM      4  C   UNL     1      47.904 -45.166  52.138  0.00  0.00    +0.000 C 
ATOM      5  O   UNL     1      47.898 -44.332  53.033  0.00  0.00    +0.000 OA
ENDROOT
BRANCH   2   6
ATOM      6  C   UNL     1      49.172 -43.112  49.229  0.00  0.00    +0.000 C 
ATOM      7  C   UNL     1      49.329 -41.959  48.930  0.00  0.00    +0.000 C 
BRANCH   7   8
ATOM      8  C   UNL     1      49.515 -40.589  48.577  0.00  0.00    +0.000 A 
ATOM      9  C   UNL     1      49.445 -39.603  49.558  0.00  0.00    +0.000 A 
ATOM     10  C   UNL     1      49.626 -38.255  49.230  0.00  0.00    +0.000 A 
ATOM     11  C   UNL     1      49.878 -37.917  47.897  0.00  0.00    +0.000 A 
ATOM     12  C   UNL     1      49.949 -38.902  46.913  0.00  0.00    +0.000 A 
ATOM     13  C   UNL     1      49.767 -40.240  47.253  0.00  0.00    +0.000 A 
BRANCH  10  14
ATOM     14  O   UNL     1      49.571 -37.231  50.142  0.00  0.00    +0.000 OA
ATOM     15  C   UNL     1      48.499 -37.263  51.041  0.00  0.00    +0.000 C 
ENDBRANCH  10  14
BRANCH  11  16
ATOM     16  O   UNL     1      50.067 -36.628  47.481  0.00  0.00    +0.000 OA
ATOM     17  H   UNL     1      49.250 -36.267  47.098  0.00  0.00    +0.000 HD
ENDBRANCH  11  16
ENDBRANCH   7   8
ENDBRANCH   2   6
BRANCH   4  18
ATOM     18  C   UNL     1      47.373 -46.486  52.365  0.00  0.00    +0.000 C 
ATOM     19  C   UNL     1      46.930 -47.587  52.551  0.00  0.00    +0.000 C 
BRANCH  19  20
ATOM     20  C   UNL     1      46.403 -48.894  52.767  0.00  0.00    +0.000 A 
ATOM     21  C   UNL     1      46.678 -49.565  53.958  0.00  0.00    +0.000 A 
ATOM     22  C   UNL     1      46.170 -50.847  54.185  0.00  0.00    +0.000 A 
ATOM     23  C   UNL     1      45.381 -51.441  53.196  0.00  0.00    +0.000 A 
ATOM     24  C   UNL     1      45.103 -50.775  52.004  0.00  0.00    +0.000 A 
ATOM     25  C   UNL     1      45.616 -49.499  51.790  0.00  0.00    +0.000 A 
BRANCH  22  26
ATOM     26  O   UNL     1      46.392 -51.576  55.328  0.00  0.00    +0.000 OA
ATOM     27  C   UNL     1      47.556 -52.361  55.329  0.00  0.00    +0.000 C 
ENDBRANCH  22  26
BRANCH  23  28
ATOM     28  O   UNL     1      44.874 -52.695  53.400  0.00  0.00    +0.000 OA
ATOM     29  H   UNL     1      44.152 -52.847  52.763  0.00  0.00    +0.000 HD
ENDBRANCH  23  28
ENDBRANCH  19  20
ENDBRANCH   4  18
TORSDOF 8
ENDMDL
MODEL 3
REMARK VINA RESULT:      -6.7      1.127     12.088
REMARK  Name = Curcumin.pdbqt.pdb
REMARK  8 active torsions:
REMARK  status: ('A' for Active; 'I' for Inactive)
REMARK    1  A    between atoms: C_2  and  C_4
REMARK    2  A    between atoms: C_5  and  C_6
REMARK    3  A    between atoms: C_8  and  O_12
REMARK    4  A    between atoms: C_9  and  O_14
REMARK    5  A    between atoms: C_16  and  C_18
REMARK    6  A    between atoms: C_19  and  C_20
REMARK    7  A    between atoms: C_22  and  O_26
REMARK    8  A    between atoms: C_23  and  O_28
REMARK                            x       y       z     vdW  Elec       q    Type
REMARK                         _______ _______ _______ _____ _____    ______ ____
ROOT
ATOM      1  C   UNL     1      47.627 -45.638  51.657  0.00  0.00    +0.000 C 
ATOM      2  C   UNL     1      47.927 -44.406  52.309  0.00  0.00    +0.000 C 
ATOM      3  O   UNL     1      47.949 -44.358  53.530  0.00  0.00    +0.000 OA
ATOM      4  C   UNL     1      47.323 -46.868  51.006  0.00  0.00    +0.000 C 
ATOM      5  O   UNL     1      46.994 -46.867  49.828  0.00  0.00    +0.000 OA
ENDROOT
BRANCH   2   6
ATOM      6  C   UNL     1      48.205 -43.230  51.525  0.00  0.00    +0.000 C 
ATOM      7  C   UNL     1      48.440 -42.249  50.872  0.00  0.00    +0.000 C 
BRANCH   7   8
ATOM      8  C   UNL     1      48.716 -41.085  50.094  0.00  0.00    +0.000 A 
ATOM      9  C   UNL     1      48.383 -39.826  50.587  0.00  0.00    +0.000 A 
ATOM     10  C   UNL     1      48.647 -38.674  49.839  0.00  0.00    +0.000 A 
ATOM     11  C   UNL     1      49.251 -38.811  48.585  0.00  0.00    +0.000 A 
ATOM     12  C   UNL     1      49.584 -40.071  48.090  0.00  0.00    +0.000 A 
ATOM     13  C   UNL     1      49.316 -41.210  48.845  0.00  0.00    +0.000 A 
BRANCH  10  14
ATOM     14  O   UNL     1      48.349 -37.402  50.260  0.00  0.00    +0.000 OA
ATOM     15  C   UNL     1      47.329 -37.291  51.211  0.00  0.00    +0.000 C 
ENDBRANCH  10  14
BRANCH  11  16
ATOM     16  O   UNL     1      49.547 -37.745  47.782  0.00  0.00    +0.000 OA
ATOM     17  H   UNL     1      49.645 -36.935  48.310  0.00  0.00    +0.000 HD
ENDBRANCH  11  16
ENDBRANCH   7   8
ENDBRANCH   2   6
BRANCH   4  18
ATOM     18  C   UNL     1      47.406 -48.105  51.740  0.00  0.00    +0.000 C 
ATOM     19  C   UNL     1      47.474 -49.139  52.349  0.00  0.00    +0.000 C 
BRANCH  19  20
ATOM     20  C   UNL     1      47.552 -50.367  53.068  0.00  0.00    +0.000 A 
ATOM     21  C   UNL     1      48.392 -51.384  52.616  0.00  0.00    +0.000 A 
ATOM     22  C   UNL     1      48.481 -52.594  53.310  0.00  0.00    +0.000 A 
ATOM     23  C   UNL     1      47.712 -52.763  54.465  0.00  0.00    +0.000 A 
ATOM     24  C   UNL     1      46.871 -51.750  54.921  0.00  0.00    +0.000 A 
ATOM     25  C   UNL     1      46.792 -50.550  54.221  0.00  0.00    +0.000 A 
BRANCH  22  26
ATOM     26  O   UNL     1      49.281 -53.646  52.934  0.00  0.00    +0.000 OA
ATOM     27  C   UNL     1      50.514 -53.735  53.598  0.00  0.00    +0.000 C 
ENDBRANCH  22  26
BRANCH  23  28
ATOM     28  O   UNL     1      47.785 -53.941  55.158  0.00  0.00    +0.000 OA
ATOM     29  H   UNL     1      48.165 -53.762  56.037  0.00  0.00    +0.000 HD
ENDBRANCH  23  28
ENDBRANCH  19  20
ENDBRANCH   4  18
TORSDOF 8
ENDMDL
MODEL 4
REMARK VINA RESULT:      -6.7      2.333     12.156
REMARK  Name = Curcumin.pdbqt.pdb
REMARK  8 active torsions:
REMARK  status: ('A' for Active; 'I' for Inactive)
REMARK    1  A    between atoms: C_2  and  C_4
REMARK    2  A    between atoms: C_5  and  C_6
REMARK    3  A    between atoms: C_8  and  O_12
REMARK    4  A    between atoms: C_9  and  O_14
REMARK    5  A    between atoms: C_16  and  C_18
REMARK    6  A    between atoms: C_19  and  C_20
REMARK    7  A    between atoms: C_22  and  O_26
REMARK    8  A    between atoms: C_23  and  O_28
REMARK                            x       y       z     vdW  Elec       q    Type
REMARK                         _______ _______ _______ _____ _____    ______ ____
ROOT
ATOM      1  C   UNL     1      46.921 -47.651  52.449  0.00  0.00    +0.000 C 
ATOM      2  C   UNL     1      46.150 -46.454  52.412  0.00  0.00    +0.000 C 
ATOM      3  O   UNL     1      45.008 -46.455  52.847  0.00  0.00    +0.000 OA
ATOM      4  C   UNL     1      47.690 -48.851  52.482  0.00  0.00    +0.000 C 
ATOM      5  O   UNL     1      48.689 -48.951  51.786  0.00  0.00    +0.000 OA
ENDROOT
BRANCH   2   6
ATOM      6  C   UNL     1      46.722 -45.249  51.865  0.00  0.00    +0.000 C 
ATOM      7  C   UNL     1      47.199 -44.246  51.408  0.00  0.00    +0.000 C 
BRANCH   7   8
ATOM      8  C   UNL     1      47.763 -43.054  50.865  0.00  0.00    +0.000 A 
ATOM      9  C   UNL     1      48.449 -43.098  49.653  0.00  0.00    +0.000 A 
ATOM     10  C   UNL     1      49.008 -41.939  49.106  0.00  0.00    +0.000 A 
ATOM     11  C   UNL     1      48.867 -40.733  49.800  0.00  0.00    +0.000 A 
ATOM     12  C   UNL     1      48.181 -40.686  51.013  0.00  0.00    +0.000 A 
ATOM     13  C   UNL     1      47.629 -41.847  51.547  0.00  0.00    +0.000 A 
BRANCH  10  14
ATOM     14  O   UNL     1      49.695 -41.906  47.919  0.00  0.00    +0.000 OA
ATOM     15  C   UNL     1      49.370 -42.903  46.991  0.00  0.00    +0.000 C 
ENDBRANCH  10  14
BRANCH  11  16
ATOM     16  O   UNL     1      49.378 -39.550  49.345  0.00  0.00    +0.000 OA
ATOM     17  H   UNL     1      49.009 -39.328  48.474  0.00  0.00    +0.000 HD
ENDBRANCH  11  16
ENDBRANCH   7   8
ENDBRANCH   2   6
BRANCH   4  18
ATOM     18  C   UNL     1      47.283 -49.937  53.338  0.00  0.00    +0.000 C 
ATOM     19  C   UNL     1      46.944 -50.846  54.047  0.00  0.00    +0.000 C 
BRANCH  19  20
ATOM     20  C   UNL     1      46.542 -51.925  54.886  0.00  0.00    +0.000 A 
ATOM     21  C   UNL     1      47.345 -52.307  55.960  0.00  0.00    +0.000 A 
ATOM     22  C   UNL     1      46.964 -53.363  56.792  0.00  0.00    +0.000 A 
ATOM     23  C   UNL     1      45.764 -54.028  56.526  0.00  0.00    +0.000 A 
ATOM     24  C   UNL     1      44.957 -53.651  55.454  0.00  0.00    +0.000 A 
ATOM     25  C   UNL     1      45.348 -52.598  54.633  0.00  0.00    +0.000 A 
BRANCH  22  26
ATOM     26  O   UNL     1      47.695 -53.803  57.869  0.00  0.00    +0.000 OA
ATOM     27  C   UNL     1      49.055 -54.045  57.620  0.00  0.00    +0.000 C 
ENDBRANCH  22  26
BRANCH  23  28
ATOM     28  O   UNL     1      45.374 -55.065  57.329  0.00  0.00    +0.000 OA
ATOM     29  H   UNL     1      44.403 -55.055  57.402  0.00  0.00    +0.000 HD
ENDBRANCH  23  28
ENDBRANCH  19  20
ENDBRANCH   4  18
TORSDOF 8
ENDMDL
MODEL 5
REMARK VINA RESULT:      -6.6      4.518      8.223
REMARK  Name = Curcumin.pdbqt.pdb
REMARK  8 active torsions:
REMARK  status: ('A' for Active; 'I' for Inactive)
REMARK    1  A    between atoms: C_2  and  C_4
REMARK    2  A    between atoms: C_5  and  C_6
REMARK    3  A    between atoms: C_8  and  O_12
REMARK    4  A    between atoms: C_9  and  O_14
REMARK    5  A    between atoms: C_16  and  C_18
REMARK    6  A    between atoms: C_19  and  C_20
REMARK    7  A    between atoms: C_22  and  O_26
REMARK    8  A    between atoms: C_23  and  O_28
REMARK                            x       y       z     vdW  Elec       q    Type
REMARK                         _______ _______ _______ _____ _____    ______ ____
ROOT
ATOM      1  C   UNL     1      49.407 -38.022  47.721  0.00  0.00    +0.000 C 
ATOM      2  C   UNL     1      49.709 -39.381  47.420  0.00  0.00    +0.000 C 
ATOM      3  O   UNL     1      50.247 -39.661  46.359  0.00  0.00    +0.000 OA
ATOM      4  C   UNL     1      49.101 -36.662  48.019  0.00  0.00    +0.000 C 
ATOM      5  O   UNL     1      48.301 -36.400  48.906  0.00  0.00    +0.000 OA
ENDROOT
BRANCH   2   6
ATOM      6  C   UNL     1      49.381 -40.416  48.368  0.00  0.00    +0.000 C 
ATOM      7  C   UNL     1      49.108 -41.277  49.160  0.00  0.00    +0.000 C 
BRANCH   7   8
ATOM      8  C   UNL     1      48.782 -42.299  50.099  0.00  0.00    +0.000 A 
ATOM      9  C   UNL     1      48.936 -43.639  49.750  0.00  0.00    +0.000 A 
ATOM     10  C   UNL     1      48.622 -44.655  50.659  0.00  0.00    +0.000 A 
ATOM     11  C   UNL     1      48.150 -44.299  51.926  0.00  0.00    +0.000 A 
ATOM     12  C   UNL     1      47.994 -42.959  52.278  0.00  0.00    +0.000 A 
ATOM     13  C   UNL     1      48.311 -41.958  51.364  0.00  0.00    +0.000 A 
BRANCH  10  14
ATOM     14  O   UNL     1      48.749 -45.994  50.386  0.00  0.00    +0.000 OA
ATOM     15  C   UNL     1      50.010 -46.416  49.948  0.00  0.00    +0.000 C 
ENDBRANCH  10  14
BRANCH  11  16
ATOM     16  O   UNL     1      47.817 -45.220  52.880  0.00  0.00    +0.000 OA
ATOM     17  H   UNL     1      47.420 -44.785  53.654  0.00  0.00    +0.000 HD
ENDBRANCH  11  16
ENDBRANCH   7   8
ENDBRANCH   2   6
BRANCH   4  18
ATOM     18  C   UNL     1      49.738 -35.606  47.274  0.00  0.00    +0.000 C 
ATOM     19  C   UNL     1      50.271 -34.728  46.651  0.00  0.00    +0.000 C 
BRANCH  19  20
ATOM     20  C   UNL     1      50.906 -33.689  45.910  0.00  0.00    +0.000 A 
ATOM     21  C   UNL     1      51.485 -32.612  46.580  0.00  0.00    +0.000 A 
ATOM     22  C   UNL     1      52.112 -31.585  45.869  0.00  0.00    +0.000 A 
ATOM     23  C   UNL     1      52.147 -31.660  44.474  0.00  0.00    +0.000 A 
ATOM     24  C   UNL     1      51.570 -32.735  43.798  0.00  0.00    +0.000 A 
ATOM     25  C   UNL     1      50.949 -33.751  44.519  0.00  0.00    +0.000 A 
BRANCH  22  26
ATOM     26  O   UNL     1      52.705 -30.491  46.450  0.00  0.00    +0.000 OA
ATOM     27  C   UNL     1      51.828 -29.578  47.057  0.00  0.00    +0.000 C 
ENDBRANCH  22  26
BRANCH  23  28
ATOM     28  O   UNL     1      52.756 -30.665  43.759  0.00  0.00    +0.000 OA
ATOM     29  H   UNL     1      53.525 -30.345  44.264  0.00  0.00    +0.000 HD
ENDBRANCH  23  28
ENDBRANCH  19  20
ENDBRANCH   4  18
TORSDOF 8
ENDMDL
MODEL 6
REMARK VINA RESULT:      -6.6      4.445     14.302
REMARK  Name = Curcumin.pdbqt.pdb
REMARK  8 active torsions:
REMARK  status: ('A' for Active; 'I' for Inactive)
REMARK    1  A    between atoms: C_2  and  C_4
REMARK    2  A    between atoms: C_5  and  C_6
REMARK    3  A    between atoms: C_8  and  O_12
REMARK    4  A    between atoms: C_9  and  O_14
REMARK    5  A    between atoms: C_16  and  C_18
REMARK    6  A    between atoms: C_19  and  C_20
REMARK    7  A    between atoms: C_22  and  O_26
REMARK    8  A    between atoms: C_23  and  O_28
REMARK                            x       y       z     vdW  Elec       q    Type
REMARK                         _______ _______ _______ _____ _____    ______ ____
ROOT
ATOM      1  C   UNL     1      49.409 -38.066  47.795  0.00  0.00    +0.000 C 
ATOM      2  C   UNL     1      49.092 -36.709  48.094  0.00  0.00    +0.000 C 
ATOM      3  O   UNL     1      48.284 -36.457  48.976  0.00  0.00    +0.000 OA
ATOM      4  C   UNL     1      49.722 -39.423  47.494  0.00  0.00    +0.000 C 
ATOM      5  O   UNL     1      50.270 -39.699  46.436  0.00  0.00    +0.000 OA
ENDROOT
BRANCH   2   6
ATOM      6  C   UNL     1      49.727 -35.645  47.358  0.00  0.00    +0.000 C 
ATOM      7  C   UNL     1      50.258 -34.759  46.745  0.00  0.00    +0.000 C 
BRANCH   7   8
ATOM      8  C   UNL     1      50.887 -33.708  46.015  0.00  0.00    +0.000 A 
ATOM      9  C   UNL     1      51.969 -33.990  45.184  0.00  0.00    +0.000 A 
ATOM     10  C   UNL     1      52.598 -32.971  44.460  0.00  0.00    +0.000 A 
ATOM     11  C   UNL     1      52.120 -31.663  44.588  0.00  0.00    +0.000 A 
ATOM     12  C   UNL     1      51.038 -31.378  45.420  0.00  0.00    +0.000 A 
ATOM     13  C   UNL     1      50.421 -32.402  46.134  0.00  0.00    +0.000 A 
BRANCH  10  14
ATOM     14  O   UNL     1      53.666 -33.174  43.623  0.00  0.00    +0.000 OA
ATOM     15  C   UNL     1      53.364 -33.662  42.346  0.00  0.00    +0.000 C 
ENDBRANCH  10  14
BRANCH  11  16
ATOM     16  O   UNL     1      52.670 -30.603  43.922  0.00  0.00    +0.000 OA
ATOM     17  H   UNL     1      53.398 -30.215  44.435  0.00  0.00    +0.000 HD
ENDBRANCH  11  16
ENDBRANCH   7   8
ENDBRANCH   2   6
BRANCH   4  18
ATOM     18  C   UNL     1      49.392 -40.460  48.438  0.00  0.00    +0.000 C 
ATOM     19  C   UNL     1      49.112 -41.323  49.225  0.00  0.00    +0.000 C 
BRANCH  19  20
ATOM     20  C   UNL     1      48.776 -42.346  50.160  0.00  0.00    +0.000 A 
ATOM     21  C   UNL     1      48.993 -43.684  49.832  0.00  0.00    +0.000 A 
ATOM     22  C   UNL     1      48.669 -44.699  50.737  0.00  0.00    +0.000 A 
ATOM     23  C   UNL     1      48.126 -44.345  51.975  0.00  0.00    +0.000 A 
ATOM     24  C   UNL     1      47.907 -43.009  52.308  0.00  0.00    +0.000 A 
ATOM     25  C   UNL     1      48.233 -42.009  51.397  0.00  0.00    +0.000 A 
BRANCH  22  26
ATOM     26  O   UNL     1      48.850 -46.039  50.495  0.00  0.00    +0.000 OA
ATOM     27  C   UNL     1      49.996 -46.371  49.756  0.00  0.00    +0.000 C 
ENDBRANCH  22  26
BRANCH  23  28
ATOM     28  O   UNL     1      47.802 -45.324  52.874  0.00  0.00    +0.000 OA
ATOM     29  H   UNL     1      46.890 -45.619  52.699  0.00  0.00    +0.000 HD
ENDBRANCH  23  28
ENDBRANCH  19  20
ENDBRANCH   4  18
TORSDOF 8
ENDMDL
MODEL 7
REMARK VINA RESULT:      -6.6      1.845      2.103
REMARK  Name = Curcumin.pdbqt.pdb
REMARK  8 active torsions:
REMARK  status: ('A' for Active; 'I' for Inactive)
REMARK    1  A    between atoms: C_2  and  C_4
REMARK    2  A    between atoms: C_5  and  C_6
REMARK    3  A    between atoms: C_8  and  O_12
REMARK    4  A    between atoms: C_9  and  O_14
REMARK    5  A    between atoms: C_16  and  C_18
REMARK    6  A    between atoms: C_19  and  C_20
REMARK    7  A    between atoms: C_22  and  O_26
REMARK    8  A    between atoms: C_23  and  O_28
REMARK                            x       y       z     vdW  Elec       q    Type
REMARK                         _______ _______ _______ _____ _____    ______ ____
ROOT
ATOM      1  C   UNL     1      47.078 -45.032  51.328  0.00  0.00    +0.000 C 
ATOM      2  C   UNL     1      46.352 -46.121  50.764  0.00  0.00    +0.000 C 
ATOM      3  O   UNL     1      45.817 -45.991  49.673  0.00  0.00    +0.000 OA
ATOM      4  C   UNL     1      47.799 -43.940  51.893  0.00  0.00    +0.000 C 
ATOM      5  O   UNL     1      48.066 -43.942  53.087  0.00  0.00    +0.000 OA
ENDROOT
BRANCH   2   6
ATOM      6  C   UNL     1      46.258 -47.367  51.481  0.00  0.00    +0.000 C 
ATOM      7  C   UNL     1      46.181 -48.407  52.078  0.00  0.00    +0.000 C 
BRANCH   7   8
ATOM      8  C   UNL     1      46.089 -49.640  52.789  0.00  0.00    +0.000 A 
ATOM      9  C   UNL     1      45.274 -50.662  52.306  0.00  0.00    +0.000 A 
ATOM     10  C   UNL     1      45.172 -51.878  52.989  0.00  0.00    +0.000 A 
ATOM     11  C   UNL     1      45.905 -52.048  54.168  0.00  0.00    +0.000 A 
ATOM     12  C   UNL     1      46.721 -51.027  54.654  0.00  0.00    +0.000 A 
ATOM     13  C   UNL     1      46.813 -49.822  53.963  0.00  0.00    +0.000 A 
BRANCH  10  14
ATOM     14  O   UNL     1      44.392 -52.927  52.574  0.00  0.00    +0.000 OA
ATOM     15  C   UNL     1      44.884 -53.672  51.496  0.00  0.00    +0.000 C 
ENDBRANCH  10  14
BRANCH  11  16
ATOM     16  O   UNL     1      45.870 -53.200  54.905  0.00  0.00    +0.000 OA
ATOM     17  H   UNL     1      45.023 -53.281  55.375  0.00  0.00    +0.000 HD
ENDBRANCH  11  16
ENDBRANCH   7   8
ENDBRANCH   2   6
BRANCH   4  18
ATOM     18  C   UNL     1      48.209 -42.843  51.054  0.00  0.00    +0.000 C 
ATOM     19  C   UNL     1      48.556 -41.928  50.357  0.00  0.00    +0.000 C 
BRANCH  19  20
ATOM     20  C   UNL     1      48.969 -40.841  49.532  0.00  0.00    +0.000 A 
ATOM     21  C   UNL     1      48.973 -39.544  50.044  0.00  0.00    +0.000 A 
ATOM     22  C   UNL     1      49.376 -38.468  49.248  0.00  0.00    +0.000 A 
ATOM     23  C   UNL     1      49.773 -38.718  47.932  0.00  0.00    +0.000 A 
ATOM     24  C   UNL     1      49.770 -40.012  47.415  0.00  0.00    +0.000 A 
ATOM     25  C   UNL     1      49.367 -41.075  48.218  0.00  0.00    +0.000 A 
BRANCH  22  26
ATOM     26  O   UNL     1      49.410 -37.161  49.673  0.00  0.00    +0.000 OA
ATOM     27  C   UNL     1      48.203 -36.659  50.184  0.00  0.00    +0.000 C 
ENDBRANCH  22  26
BRANCH  23  28
ATOM     28  O   UNL     1      50.170 -37.677  47.137  0.00  0.00    +0.000 OA
ATOM     29  H   UNL     1      50.491 -38.037  46.290  0.00  0.00    +0.000 HD
ENDBRANCH  23  28
ENDBRANCH  19  20
ENDBRANCH   4  18
TORSDOF 8
ENDMDL
MODEL 8
REMARK VINA RESULT:      -6.5      3.470     13.191
REMARK  Name = Curcumin.pdbqt.pdb
REMARK  8 active torsions:
REMARK  status: ('A' for Active; 'I' for Inactive)
REMARK    1  A    between atoms: C_2  and  C_4
REMARK    2  A    between atoms: C_5  and  C_6
REMARK    3  A    between atoms: C_8  and  O_12
REMARK    4  A    between atoms: C_9  and  O_14
REMARK    5  A    between atoms: C_16  and  C_18
REMARK    6  A    between atoms: C_19  and  C_20
REMARK    7  A    between atoms: C_22  and  O_26
REMARK    8  A    between atoms: C_23  and  O_28
REMARK                            x       y       z     vdW  Elec       q    Type
REMARK                         _______ _______ _______ _____ _____    ______ ____
ROOT
ATOM      1  C   UNL     1      48.908 -40.105  49.085  0.00  0.00    +0.000 C 
ATOM      2  C   UNL     1      49.534 -39.732  47.860  0.00  0.00    +0.000 C 
ATOM      3  O   UNL     1      50.149 -40.569  47.215  0.00  0.00    +0.000 OA
ATOM      4  C   UNL     1      48.286 -40.479  50.312  0.00  0.00    +0.000 C 
ATOM      5  O   UNL     1      47.946 -39.615  51.107  0.00  0.00    +0.000 OA
ENDROOT
BRANCH   2   6
ATOM      6  C   UNL     1      49.435 -38.374  47.389  0.00  0.00    +0.000 C 
ATOM      7  C   UNL     1      49.353 -37.241  46.998  0.00  0.00    +0.000 C 
BRANCH   7   8
ATOM      8  C   UNL     1      49.258 -35.896  46.532  0.00  0.00    +0.000 A 
ATOM      9  C   UNL     1      50.117 -34.923  47.037  0.00  0.00    +0.000 A 
ATOM     10  C   UNL     1      50.038 -33.600  46.591  0.00  0.00    +0.000 A 
ATOM     11  C   UNL     1      49.079 -33.272  45.628  0.00  0.00    +0.000 A 
ATOM     12  C   UNL     1      48.218 -34.244  45.120  0.00  0.00    +0.000 A 
ATOM     13  C   UNL     1      48.308 -35.558  45.573  0.00  0.00    +0.000 A 
BRANCH  10  14
ATOM     14  O   UNL     1      50.850 -32.590  47.042  0.00  0.00    +0.000 OA
ATOM     15  C   UNL     1      52.124 -32.520  46.467  0.00  0.00    +0.000 C 
ENDBRANCH  10  14
BRANCH  11  16
ATOM     16  O   UNL     1      48.926 -32.007  45.132  0.00  0.00    +0.000 OA
ATOM     17  H   UNL     1      48.029 -31.677  45.305  0.00  0.00    +0.000 HD
ENDBRANCH  11  16
ENDBRANCH   7   8
ENDBRANCH   2   6
BRANCH   4  18
ATOM     18  C   UNL     1      48.062 -41.871  50.605  0.00  0.00    +0.000 C 
ATOM     19  C   UNL     1      47.879 -43.034  50.847  0.00  0.00    +0.000 C 
BRANCH  19  20
ATOM     20  C   UNL     1      47.663 -44.414  51.130  0.00  0.00    +0.000 A 
ATOM     21  C   UNL     1      46.440 -44.832  51.655  0.00  0.00    +0.000 A 
ATOM     22  C   UNL     1      46.212 -46.181  51.939  0.00  0.00    +0.000 A 
ATOM     23  C   UNL     1      47.232 -47.102  51.685  0.00  0.00    +0.000 A 
ATOM     24  C   UNL     1      48.456 -46.690  51.160  0.00  0.00    +0.000 A 
ATOM     25  C   UNL     1      48.671 -45.343  50.882  0.00  0.00    +0.000 A 
BRANCH  22  26
ATOM     26  O   UNL     1      45.040 -46.676  52.457  0.00  0.00    +0.000 OA
ATOM     27  C   UNL     1      43.900 -46.493  51.658  0.00  0.00    +0.000 C 
ENDBRANCH  22  26
BRANCH  23  28
ATOM     28  O   UNL     1      47.029 -48.427  51.956  0.00  0.00    +0.000 OA
ATOM     29  H   UNL     1      46.346 -48.503  52.647  0.00  0.00    +0.000 HD
ENDBRANCH  23  28
ENDBRANCH  19  20
ENDBRANCH   4  18
TORSDOF 8
ENDMDL
MODEL 9
REMARK VINA RESULT:      -6.4      3.438      6.287
REMARK  Name = Curcumin.pdbqt.pdb
REMARK  8 active torsions:
REMARK  status: ('A' for Active; 'I' for Inactive)
REMARK    1  A    between atoms: C_2  and  C_4
REMARK    2  A    between atoms: C_5  and  C_6
REMARK    3  A    between atoms: C_8  and  O_12
REMARK    4  A    between atoms: C_9  and  O_14
REMARK    5  A    between atoms: C_16  and  C_18
REMARK    6  A    between atoms: C_19  and  C_20
REMARK    7  A    between atoms: C_22  and  O_26
REMARK    8  A    between atoms: C_23  and  O_28
REMARK                            x       y       z     vdW  Elec       q    Type
REMARK                         _______ _______ _______ _____ _____    ______ ____
ROOT
ATOM      1  C   UNL     1      49.069 -39.930  48.899  0.00  0.00    +0.000 C 
ATOM      2  C   UNL     1      48.538 -40.308  50.167  0.00  0.00    +0.000 C 
ATOM      3  O   UNL     1      48.278 -39.447  50.994  0.00  0.00    +0.000 OA
ATOM      4  C   UNL     1      49.603 -39.552  47.633  0.00  0.00    +0.000 C 
ATOM      5  O   UNL     1      50.151 -40.389  46.931  0.00  0.00    +0.000 OA
ENDROOT
BRANCH   2   6
ATOM      6  C   UNL     1      48.310 -41.699  50.463  0.00  0.00    +0.000 C 
ATOM      7  C   UNL     1      48.117 -42.859  50.709  0.00  0.00    +0.000 C 
BRANCH   7   8
ATOM      8  C   UNL     1      47.890 -44.237  51.000  0.00  0.00    +0.000 A 
ATOM      9  C   UNL     1      48.756 -45.206  50.497  0.00  0.00    +0.000 A 
ATOM     10  C   UNL     1      48.549 -46.561  50.773  0.00  0.00    +0.000 A 
ATOM     11  C   UNL     1      47.454 -46.926  51.563  0.00  0.00    +0.000 A 
ATOM     12  C   UNL     1      46.586 -45.959  52.067  0.00  0.00    +0.000 A 
ATOM     13  C   UNL     1      46.804 -44.613  51.785  0.00  0.00    +0.000 A 
BRANCH  10  14
ATOM     14  O   UNL     1      49.360 -47.569  50.314  0.00  0.00    +0.000 OA
ATOM     15  C   UNL     1      50.645 -47.625  50.865  0.00  0.00    +0.000 C 
ENDBRANCH  10  14
BRANCH  11  16
ATOM     16  O   UNL     1      47.171 -48.224  51.885  0.00  0.00    +0.000 OA
ATOM     17  H   UNL     1      47.914 -48.806  51.652  0.00  0.00    +0.000 HD
ENDBRANCH  11  16
ENDBRANCH   7   8
ENDBRANCH   2   6
BRANCH   4  18
ATOM     18  C   UNL     1      49.493 -38.185  47.190  0.00  0.00    +0.000 C 
ATOM     19  C   UNL     1      49.398 -37.045  46.823  0.00  0.00    +0.000 C 
BRANCH  19  20
ATOM     20  C   UNL     1      49.281 -35.692  46.390  0.00  0.00    +0.000 A 
ATOM     21  C   UNL     1      50.158 -34.727  46.884  0.00  0.00    +0.000 A 
ATOM     22  C   UNL     1      50.057 -33.396  46.469  0.00  0.00    +0.000 A 
ATOM     23  C   UNL     1      49.062 -33.053  45.550  0.00  0.00    +0.000 A 
ATOM     24  C   UNL     1      48.183 -34.014  45.052  0.00  0.00    +0.000 A 
ATOM     25  C   UNL     1      48.294 -35.336  45.474  0.00  0.00    +0.000 A 
BRANCH  22  26
ATOM     26  O   UNL     1      50.878 -32.385  46.906  0.00  0.00    +0.000 OA
ATOM     27  C   UNL     1      52.223 -32.488  46.519  0.00  0.00    +0.000 C 
ENDBRANCH  22  26
BRANCH  23  28
ATOM     28  O   UNL     1      48.947 -31.756  45.131  0.00  0.00    +0.000 OA
ATOM     29  H   UNL     1      48.935 -31.742  44.157  0.00  0.00    +0.000 HD
ENDBRANCH  23  28
ENDBRANCH  19  20
ENDBRANCH   4  18
TORSDOF 8
ENDMDL
