MODEL 1
REMARK VINA RESULT:      -9.6      0.000      0.000
REMARK  Name = Cyclosporin_A.pdbqt.pdb
REMARK  4 active torsions:
REMARK  status: ('A' for Active; 'I' for Inactive)
REMARK    1  A    between atoms: N_13  and  C_36
REMARK    2  A    between atoms: C_36  and  O_70
REMARK    3  A    between atoms: C_72  and  C_73
REMARK    4  A    between atoms: C_75  and  C_76
REMARK                            x       y       z     vdW  Elec       q    Type
REMARK                         _______ _______ _______ _____ _____    ______ ____
ROOT
ATOM      1  O   UNL     1      53.034 -44.452  44.031  0.00  0.00    +0.000 OA
ATOM      2  O   UNL     1      50.522 -43.886  39.595  0.00  0.00    +0.000 OA
ATOM      3  O   UNL     1      47.245 -47.360  39.916  0.00  0.00    +0.000 OA
ATOM      4  O   UNL     1      53.532 -48.950  45.908  0.00  0.00    +0.000 OA
ATOM      5  O   UNL     1      46.973 -42.503  41.352  0.00  0.00    +0.000 OA
ATOM      6  O   UNL     1      41.933 -46.216  50.728  0.00  0.00    +0.000 OA
ATOM      7  O   UNL     1      52.312 -44.753  49.371  0.00  0.00    +0.000 OA
ATOM      8  O   UNL     1      45.790 -49.266  51.018  0.00  0.00    +0.000 OA
ATOM      9  O   UNL     1      40.895 -44.162  46.464  0.00  0.00    +0.000 OA
ATOM     10  O   UNL     1      49.523 -47.582  51.337  0.00  0.00    +0.000 OA
ATOM     11  O   UNL     1      44.300 -42.144  44.751  0.00  0.00    +0.000 OA
ATOM     12  N   UNL     1      51.005 -44.768  41.250  0.00  0.00    +0.000 NA
ATOM     13  N   UNL     1      51.770 -46.475  43.725  0.00  0.00    +0.000 NA
ATOM     14  N   UNL     1      48.414 -45.788  39.604  0.00  0.00    +0.000 NA
ATOM     15  N   UNL     1      45.787 -44.790  41.091  0.00  0.00    +0.000 NA
ATOM     16  N   UNL     1      51.829 -47.381  46.673  0.00  0.00    +0.000 NA
ATOM     17  N   UNL     1      42.117 -47.128  48.565  0.00  0.00    +0.000 N 
ATOM     18  N   UNL     1      45.017 -47.605  49.561  0.00  0.00    +0.000 N 
ATOM     19  N   UNL     1      47.781 -47.396  50.429  0.00  0.00    +0.000 NA
ATOM     20  N   UNL     1      50.330 -45.443  48.492  0.00  0.00    +0.000 NA
ATOM     21  N   UNL     1      45.373 -44.251  43.995  0.00  0.00    +0.000 NA
ATOM     22  N   UNL     1      43.184 -44.902  46.680  0.00  0.00    +0.000 NA
ATOM     23  C   UNL     1      51.558 -44.279  42.397  0.00  0.00    +0.000 C 
ATOM     24  C   UNL     1      49.309 -45.828  40.595  0.00  0.00    +0.000 C 
ATOM     25  C   UNL     1      52.680 -47.330  44.318  0.00  0.00    +0.000 C 
ATOM     26  C   UNL     1      52.261 -43.089  42.456  0.00  0.00    +0.000 C 
ATOM     27  C   UNL     1      49.716 -47.241  40.414  0.00  0.00    +0.000 C 
ATOM     28  C   UNL     1      52.031 -45.152  43.354  0.00  0.00    +0.000 C 
ATOM     29  C   UNL     1      49.892 -44.616  40.442  0.00  0.00    +0.000 C 
ATOM     30  C   UNL     1      46.533 -45.001  40.042  0.00  0.00    +0.000 C 
ATOM     31  C   UNL     1      47.296 -46.109  40.261  0.00  0.00    +0.000 C 
ATOM     32  C   UNL     1      52.445 -48.060  45.600  0.00  0.00    +0.000 C 
ATOM     33  C   UNL     1      52.293 -42.746  41.069  0.00  0.00    +0.000 C 
ATOM     34  C   UNL     1      53.276 -43.285  43.333  0.00  0.00    +0.000 C 
ATOM     35  C   UNL     1      51.446 -43.689  40.507  0.00  0.00    +0.000 C 
ATOM     36  C   UNL     1      48.470 -47.161  39.242  0.00  0.00    +0.000 C 
ATOM     37  C   UNL     1      52.509 -46.626  47.662  0.00  0.00    +0.000 C 
ATOM     38  C   UNL     1      43.972 -47.078  50.275  0.00  0.00    +0.000 A 
ATOM     39  C   UNL     1      46.541 -43.829  41.616  0.00  0.00    +0.000 C 
ATOM     40  C   UNL     1      41.477 -46.101  47.825  0.00  0.00    +0.000 C 
ATOM     41  C   UNL     1      47.312 -48.559  49.917  0.00  0.00    +0.000 C 
ATOM     42  C   UNL     1      44.678 -44.382  40.189  0.00  0.00    +0.000 C 
ATOM     43  C   UNL     1      43.935 -46.623  51.629  0.00  0.00    +0.000 A 
ATOM     44  C   UNL     1      39.755 -46.598  48.088  0.00  0.00    +0.000 C 
ATOM     45  C   UNL     1      46.048 -43.725  43.020  0.00  0.00    +0.000 C 
ATOM     46  C   UNL     1      47.201 -49.471  51.109  0.00  0.00    +0.000 C 
ATOM     47  C   UNL     1      53.918 -46.849  47.680  0.00  0.00    +0.000 C 
ATOM     48  C   UNL     1      42.701 -46.828  49.767  0.00  0.00    +0.000 A 
ATOM     49  C   UNL     1      51.835 -45.727  48.422  0.00  0.00    +0.000 C 
ATOM     50  C   UNL     1      45.946 -48.384  50.070  0.00  0.00    +0.000 C 
ATOM     51  C   UNL     1      41.856 -45.038  47.039  0.00  0.00    +0.000 C 
ATOM     52  C   UNL     1      49.644 -46.531  49.194  0.00  0.00    +0.000 C 
ATOM     53  C   UNL     1      45.046 -46.571  52.644  0.00  0.00    +0.000 C 
ATOM     54  C   UNL     1      42.686 -46.104  51.856  0.00  0.00    +0.000 A 
ATOM     55  C   UNL     1      49.082 -47.538  50.022  0.00  0.00    +0.000 C 
ATOM     56  C   UNL     1      43.668 -43.956  45.942  0.00  0.00    +0.000 C 
ATOM     57  C   UNL     1      46.554 -42.552  42.528  0.00  0.00    +0.000 C 
ATOM     58  C   UNL     1      40.782 -47.341  48.611  0.00  0.00    +0.000 C 
ATOM     59  C   UNL     1      54.807 -47.428  47.121  0.00  0.00    +0.000 C 
ATOM     60  C   UNL     1      44.594 -43.556  44.811  0.00  0.00    +0.000 C 
ATOM     61  C   UNL     1      48.192 -47.896  51.856  0.00  0.00    +0.000 C 
ATOM     62  C   UNL     1      51.081 -44.685  49.268  0.00  0.00    +0.000 C 
ATOM     63  C   UNL     1      43.585 -42.638  45.639  0.00  0.00    +0.000 C 
ATOM     64  H   UNL     1      51.013 -46.855  46.359  0.00  0.00    +0.000 HD
ATOM     65  H   UNL     1      45.194 -47.188  48.651  0.00  0.00    +0.000 HD
ATOM     66  H   UNL     1      45.239 -45.259  43.975  0.00  0.00    +0.000 HD
ATOM     67  H   UNL     1      43.670 -45.792  46.732  0.00  0.00    +0.000 HD
ATOM     68  C   UNL     1      53.955 -47.299  44.044  0.00  0.00    +0.000 C 
ATOM     69  C   UNL     1      55.159 -47.702  44.687  0.00  0.00    +0.000 C 
ATOM     70  C   UNL     1      54.820 -48.308  45.990  0.00  0.00    +0.000 C 
ATOM     71  C   UNL     1      50.745 -48.149  39.458  0.00  0.00    +0.000 C 
ATOM     72  C   UNL     1      51.446 -49.216  39.836  0.00  0.00    +0.000 C 
ATOM     73  C   UNL     1      49.489 -47.951  38.878  0.00  0.00    +0.000 C 
ATOM     74  C   UNL     1      45.477 -44.730  39.056  0.00  0.00    +0.000 C 
ATOM     75  C   UNL     1      44.604 -43.667  38.873  0.00  0.00    +0.000 C 
ATOM     76  C   UNL     1      43.408 -43.767  37.903  0.00  0.00    +0.000 C 
ATOM     77  C   UNL     1      44.227 -43.081  40.067  0.00  0.00    +0.000 C 
ATOM     78  C   UNL     1      48.033 -50.461  52.053  0.00  0.00    +0.000 C 
ATOM     79  C   UNL     1      47.738 -51.544  52.767  0.00  0.00    +0.000 C 
ATOM     80  C   UNL     1      48.411 -49.151  52.352  0.00  0.00    +0.000 C 
ATOM     81  C   UNL     1      39.000 -45.690  47.466  0.00  0.00    +0.000 C 
ATOM     82  C   UNL     1      37.509 -45.767  47.451  0.00  0.00    +0.000 C 
ATOM     83  C   UNL     1      39.703 -44.661  46.792  0.00  0.00    +0.000 C 
ENDROOT
BRANCH  69  84
ATOM     84  C   UNL     1      56.462 -47.250  44.373  0.00  0.00    +0.000 C 
ATOM     85  C   UNL     1      57.570 -46.865  44.115  0.00  0.00    +0.000 C 
BRANCH  85  86
ATOM     86  C   UNL     1      58.984 -46.371  43.789  0.00  0.00    +0.000 C 
ATOM     87  C   UNL     1      60.214 -45.941  43.512  0.00  0.00    +0.000 C 
ENDBRANCH  85  86
ENDBRANCH  69  84
BRANCH  13  88
ATOM     88  C   UNL     1      50.375 -46.885  43.741  0.00  0.00    +0.000 C 
BRANCH  88  89
ATOM     89  O   UNL     1      49.103 -47.258  43.781  0.00  0.00    +0.000 OA
ATOM     90  H   UNL     1      48.641 -46.789  44.499  0.00  0.00    +0.000 HD
ENDBRANCH  88  89
ENDBRANCH  13  88
TORSDOF 4
ENDMDL
MODEL 2
REMARK VINA RESULT:      -9.5      9.532     18.251
REMARK  Name = Cyclosporin_A.pdbqt.pdb
REMARK  4 active torsions:
REMARK  status: ('A' for Active; 'I' for Inactive)
REMARK    1  A    between atoms: N_13  and  C_36
REMARK    2  A    between atoms: C_36  and  O_70
REMARK    3  A    between atoms: C_72  and  C_73
REMARK    4  A    between atoms: C_75  and  C_76
REMARK                            x       y       z     vdW  Elec       q    Type
REMARK                         _______ _______ _______ _____ _____    ______ ____
ROOT
ATOM      1  O   UNL     1      30.872 -51.003  50.834  0.00  0.00    +0.000 OA
ATOM      2  O   UNL     1      27.153 -47.535  50.157  0.00  0.00    +0.000 OA
ATOM      3  O   UNL     1      29.419 -43.482  51.324  0.00  0.00    +0.000 OA
ATOM      4  O   UNL     1      34.173 -50.267  54.379  0.00  0.00    +0.000 OA
ATOM      5  O   UNL     1      28.927 -45.738  46.808  0.00  0.00    +0.000 OA
ATOM      6  O   UNL     1      39.816 -43.340  45.136  0.00  0.00    +0.000 OA
ATOM      7  O   UNL     1      35.954 -52.180  49.453  0.00  0.00    +0.000 OA
ATOM      8  O   UNL     1      40.461 -45.450  49.540  0.00  0.00    +0.000 OA
ATOM      9  O   UNL     1      35.393 -41.777  43.920  0.00  0.00    +0.000 OA
ATOM     10  O   UNL     1      39.362 -49.388  49.937  0.00  0.00    +0.000 OA
ATOM     11  O   UNL     1      32.397 -44.849  44.359  0.00  0.00    +0.000 OA
ATOM     12  N   UNL     1      28.886 -48.174  50.739  0.00  0.00    +0.000 NA
ATOM     13  N   UNL     1      31.616 -49.009  51.955  0.00  0.00    +0.000 NA
ATOM     14  N   UNL     1      28.306 -44.993  50.678  0.00  0.00    +0.000 NA
ATOM     15  N   UNL     1      29.797 -43.718  48.176  0.00  0.00    +0.000 NA
ATOM     16  N   UNL     1      34.611 -49.744  52.037  0.00  0.00    +0.000 NA
ATOM     17  N   UNL     1      38.171 -42.352  46.500  0.00  0.00    +0.000 N 
ATOM     18  N   UNL     1      38.671 -44.954  48.117  0.00  0.00    +0.000 N 
ATOM     19  N   UNL     1      38.821 -47.674  49.124  0.00  0.00    +0.000 NA
ATOM     20  N   UNL     1      35.819 -49.919  49.241  0.00  0.00    +0.000 NA
ATOM     21  N   UNL     1      32.299 -44.626  46.829  0.00  0.00    +0.000 NA
ATOM     22  N   UNL     1      35.410 -43.480  45.633  0.00  0.00    +0.000 NA
ATOM     23  C   UNL     1      29.626 -49.248  50.338  0.00  0.00    +0.000 C 
ATOM     24  C   UNL     1      29.037 -46.083  50.926  0.00  0.00    +0.000 C 
ATOM     25  C   UNL     1      32.293 -49.639  52.981  0.00  0.00    +0.000 C 
ATOM     26  C   UNL     1      29.087 -50.343  49.687  0.00  0.00    +0.000 C 
ATOM     27  C   UNL     1      29.328 -45.787  52.347  0.00  0.00    +0.000 C 
ATOM     28  C   UNL     1      30.727 -49.632  51.074  0.00  0.00    +0.000 C 
ATOM     29  C   UNL     1      28.322 -47.011  50.247  0.00  0.00    +0.000 C 
ATOM     30  C   UNL     1      28.780 -43.886  48.975  0.00  0.00    +0.000 C 
ATOM     31  C   UNL     1      29.245 -44.156  50.228  0.00  0.00    +0.000 C 
ATOM     32  C   UNL     1      33.775 -49.603  53.166  0.00  0.00    +0.000 C 
ATOM     33  C   UNL     1      27.698 -50.014  49.748  0.00  0.00    +0.000 C 
ATOM     34  C   UNL     1      29.750 -51.430  50.151  0.00  0.00    +0.000 C 
ATOM     35  C   UNL     1      27.717 -48.717  50.240  0.00  0.00    +0.000 C 
ATOM     36  C   UNL     1      28.488 -44.353  51.934  0.00  0.00    +0.000 C 
ATOM     37  C   UNL     1      35.081 -50.975  51.515  0.00  0.00    +0.000 C 
ATOM     38  C   UNL     1      39.325 -44.543  46.984  0.00  0.00    +0.000 A 
ATOM     39  C   UNL     1      29.756 -44.930  47.631  0.00  0.00    +0.000 C 
ATOM     40  C   UNL     1      37.242 -41.966  45.501  0.00  0.00    +0.000 C 
ATOM     41  C   UNL     1      38.893 -46.624  49.977  0.00  0.00    +0.000 C 
ATOM     42  C   UNL     1      29.050 -42.630  47.494  0.00  0.00    +0.000 C 
ATOM     43  C   UNL     1      40.383 -45.181  46.265  0.00  0.00    +0.000 A 
ATOM     44  C   UNL     1      38.013 -40.410  44.987  0.00  0.00    +0.000 C 
ATOM     45  C   UNL     1      31.083 -45.060  46.963  0.00  0.00    +0.000 C 
ATOM     46  C   UNL     1      40.338 -46.587  50.397  0.00  0.00    +0.000 C 
ATOM     47  C   UNL     1      34.899 -52.077  52.405  0.00  0.00    +0.000 C 
ATOM     48  C   UNL     1      39.025 -43.395  46.259  0.00  0.00    +0.000 A 
ATOM     49  C   UNL     1      35.561 -51.044  50.249  0.00  0.00    +0.000 C 
ATOM     50  C   UNL     1      39.239 -45.601  49.110  0.00  0.00    +0.000 C 
ATOM     51  C   UNL     1      36.052 -42.436  44.995  0.00  0.00    +0.000 C 
ATOM     52  C   UNL     1      37.004 -49.151  49.633  0.00  0.00    +0.000 C 
ATOM     53  C   UNL     1      41.057 -46.499  46.538  0.00  0.00    +0.000 C 
ATOM     54  C   UNL     1      40.642 -44.422  45.153  0.00  0.00    +0.000 A 
ATOM     55  C   UNL     1      38.246 -48.566  49.992  0.00  0.00    +0.000 C 
ATOM     56  C   UNL     1      34.288 -44.007  45.265  0.00  0.00    +0.000 C 
ATOM     57  C   UNL     1      30.093 -45.785  46.359  0.00  0.00    +0.000 C 
ATOM     58  C   UNL     1      38.561 -41.159  45.997  0.00  0.00    +0.000 C 
ATOM     59  C   UNL     1      34.436 -52.389  53.465  0.00  0.00    +0.000 C 
ATOM     60  C   UNL     1      32.928 -44.545  45.666  0.00  0.00    +0.000 C 
ATOM     61  C   UNL     1      40.217 -48.327  49.408  0.00  0.00    +0.000 C 
ATOM     62  C   UNL     1      36.082 -51.136  48.802  0.00  0.00    +0.000 C 
ATOM     63  C   UNL     1      33.530 -44.364  44.199  0.00  0.00    +0.000 C 
ATOM     64  H   UNL     1      34.291 -49.159  51.265  0.00  0.00    +0.000 HD
ATOM     65  H   UNL     1      37.654 -44.947  48.075  0.00  0.00    +0.000 HD
ATOM     66  H   UNL     1      32.690 -44.097  47.605  0.00  0.00    +0.000 HD
ATOM     67  H   UNL     1      35.697 -43.546  46.605  0.00  0.00    +0.000 HD
ATOM     68  C   UNL     1      31.778 -50.627  53.661  0.00  0.00    +0.000 C 
ATOM     69  C   UNL     1      32.270 -51.705  54.448  0.00  0.00    +0.000 C 
ATOM     70  C   UNL     1      33.745 -51.640  54.472  0.00  0.00    +0.000 C 
ATOM     71  C   UNL     1      28.602 -45.943  53.846  0.00  0.00    +0.000 C 
ATOM     72  C   UNL     1      29.208 -46.235  54.996  0.00  0.00    +0.000 C 
ATOM     73  C   UNL     1      28.255 -44.760  53.189  0.00  0.00    +0.000 C 
ATOM     74  C   UNL     1      27.999 -42.755  48.454  0.00  0.00    +0.000 C 
ATOM     75  C   UNL     1      27.605 -42.387  47.175  0.00  0.00    +0.000 C 
ATOM     76  C   UNL     1      27.007 -40.994  46.888  0.00  0.00    +0.000 C 
ATOM     77  C   UNL     1      28.536 -42.734  46.215  0.00  0.00    +0.000 C 
ATOM     78  C   UNL     1      41.399 -47.222  51.413  0.00  0.00    +0.000 C 
ATOM     79  C   UNL     1      42.514 -46.789  51.996  0.00  0.00    +0.000 C 
ATOM     80  C   UNL     1      41.097 -48.178  50.443  0.00  0.00    +0.000 C 
ATOM     81  C   UNL     1      37.258 -39.921  44.001  0.00  0.00    +0.000 C 
ATOM     82  C   UNL     1      37.573 -38.631  43.320  0.00  0.00    +0.000 C 
ATOM     83  C   UNL     1      36.118 -40.690  43.658  0.00  0.00    +0.000 C 
ENDROOT
BRANCH  69  84
ATOM     84  C   UNL     1      31.554 -52.873  54.801  0.00  0.00    +0.000 C 
ATOM     85  C   UNL     1      30.951 -53.866  55.107  0.00  0.00    +0.000 C 
BRANCH  85  86
ATOM     86  C   UNL     1      30.186 -55.134  55.500  0.00  0.00    +0.000 C 
ATOM     87  C   UNL     1      29.515 -56.233  55.841  0.00  0.00    +0.000 C 
ENDBRANCH  85  86
ENDBRANCH  69  84
BRANCH  13  88
ATOM     88  C   UNL     1      32.066 -47.675  51.592  0.00  0.00    +0.000 C 
BRANCH  88  89
ATOM     89  O   UNL     1      32.494 -46.468  51.246  0.00  0.00    +0.000 OA
ATOM     90  H   UNL     1      33.465 -46.466  51.177  0.00  0.00    +0.000 HD
ENDBRANCH  88  89
ENDBRANCH  13  88
TORSDOF 4
ENDMDL
MODEL 3
REMARK VINA RESULT:      -9.3     27.564     31.483
REMARK  Name = Cyclosporin_A.pdbqt.pdb
REMARK  4 active torsions:
REMARK  status: ('A' for Active; 'I' for Inactive)
REMARK    1  A    between atoms: N_13  and  C_36
REMARK    2  A    between atoms: C_36  and  O_70
REMARK    3  A    between atoms: C_72  and  C_73
REMARK    4  A    between atoms: C_75  and  C_76
REMARK                            x       y       z     vdW  Elec       q    Type
REMARK                         _______ _______ _______ _____ _____    ______ ____
ROOT
ATOM      1  O   UNL     1      68.086 -25.059  57.275  0.00  0.00    +0.000 OA
ATOM      2  O   UNL     1      64.289 -21.874  58.600  0.00  0.00    +0.000 OA
ATOM      3  O   UNL     1      61.214 -24.890  60.689  0.00  0.00    +0.000 OA
ATOM      4  O   UNL     1      66.975 -29.656  55.993  0.00  0.00    +0.000 OA
ATOM      5  O   UNL     1      64.980 -22.171  62.727  0.00  0.00    +0.000 OA
ATOM      6  O   UNL     1      67.529 -31.374  68.720  0.00  0.00    +0.000 OA
ATOM      7  O   UNL     1      71.430 -28.812  59.238  0.00  0.00    +0.000 OA
ATOM      8  O   UNL     1      67.435 -33.656  64.356  0.00  0.00    +0.000 OA
ATOM      9  O   UNL     1      65.297 -27.096  69.168  0.00  0.00    +0.000 OA
ATOM     10  O   UNL     1      70.093 -32.386  61.493  0.00  0.00    +0.000 OA
ATOM     11  O   UNL     1      66.577 -24.265  66.176  0.00  0.00    +0.000 OA
ATOM     12  N   UNL     1      65.137 -23.594  58.329  0.00  0.00    +0.000 NA
ATOM     13  N   UNL     1      66.192 -26.458  57.770  0.00  0.00    +0.000 NA
ATOM     14  N   UNL     1      62.366 -23.434  59.990  0.00  0.00    +0.000 NA
ATOM     15  N   UNL     1      62.994 -23.795  63.086  0.00  0.00    +0.000 NA
ATOM     16  N   UNL     1      67.782 -29.063  58.217  0.00  0.00    +0.000 NA
ATOM     17  N   UNL     1      65.525 -30.641  67.724  0.00  0.00    +0.000 N 
ATOM     18  N   UNL     1      67.075 -31.493  65.173  0.00  0.00    +0.000 N 
ATOM     19  N   UNL     1      68.883 -31.749  62.914  0.00  0.00    +0.000 NA
ATOM     20  N   UNL     1      69.635 -28.869  60.634  0.00  0.00    +0.000 NA
ATOM     21  N   UNL     1      65.217 -25.305  64.378  0.00  0.00    +0.000 NA
ATOM     22  N   UNL     1      65.901 -27.670  66.901  0.00  0.00    +0.000 NA
ATOM     23  C   UNL     1      66.454 -23.943  58.260  0.00  0.00    +0.000 C 
ATOM     24  C   UNL     1      63.393 -24.062  59.411  0.00  0.00    +0.000 C 
ATOM     25  C   UNL     1      66.464 -27.440  56.837  0.00  0.00    +0.000 C 
ATOM     26  C   UNL     1      67.465 -23.044  57.975  0.00  0.00    +0.000 C 
ATOM     27  C   UNL     1      62.593 -24.988  58.579  0.00  0.00    +0.000 C 
ATOM     28  C   UNL     1      66.805 -25.202  57.819  0.00  0.00    +0.000 C 
ATOM     29  C   UNL     1      64.221 -23.014  59.188  0.00  0.00    +0.000 C 
ATOM     30  C   UNL     1      62.413 -23.228  62.065  0.00  0.00    +0.000 C 
ATOM     31  C   UNL     1      62.213 -24.166  61.096  0.00  0.00    +0.000 C 
ATOM     32  C   UNL     1      66.858 -28.842  57.174  0.00  0.00    +0.000 C 
ATOM     33  C   UNL     1      66.692 -21.878  57.685  0.00  0.00    +0.000 C 
ATOM     34  C   UNL     1      68.367 -23.708  57.211  0.00  0.00    +0.000 C 
ATOM     35  C   UNL     1      65.411 -22.270  58.044  0.00  0.00    +0.000 C 
ATOM     36  C   UNL     1      61.324 -24.232  59.444  0.00  0.00    +0.000 C 
ATOM     37  C   UNL     1      69.192 -29.101  58.068  0.00  0.00    +0.000 C 
ATOM     38  C   UNL     1      67.488 -31.618  66.475  0.00  0.00    +0.000 A 
ATOM     39  C   UNL     1      64.223 -23.370  62.808  0.00  0.00    +0.000 C 
ATOM     40  C   UNL     1      65.354 -29.418  68.420  0.00  0.00    +0.000 C 
ATOM     41  C   UNL     1      67.655 -32.319  62.875  0.00  0.00    +0.000 C 
ATOM     42  C   UNL     1      62.164 -22.959  63.991  0.00  0.00    +0.000 C 
ATOM     43  C   UNL     1      68.704 -32.160  66.993  0.00  0.00    +0.000 A 
ATOM     44  C   UNL     1      64.584 -30.060  69.930  0.00  0.00    +0.000 C 
ATOM     45  C   UNL     1      65.093 -24.234  63.656  0.00  0.00    +0.000 C 
ATOM     46  C   UNL     1      67.926 -33.792  63.021  0.00  0.00    +0.000 C 
ATOM     47  C   UNL     1      69.618 -29.203  56.709  0.00  0.00    +0.000 C 
ATOM     48  C   UNL     1      66.782 -31.166  67.585  0.00  0.00    +0.000 A 
ATOM     49  C   UNL     1      69.999 -28.954  59.148  0.00  0.00    +0.000 C 
ATOM     50  C   UNL     1      67.338 -32.361  64.223  0.00  0.00    +0.000 C 
ATOM     51  C   UNL     1      65.564 -28.081  68.177  0.00  0.00    +0.000 C 
ATOM     52  C   UNL     1      69.231 -30.186  61.131  0.00  0.00    +0.000 C 
ATOM     53  C   UNL     1      69.886 -32.721  66.249  0.00  0.00    +0.000 C 
ATOM     54  C   UNL     1      68.688 -31.985  68.353  0.00  0.00    +0.000 A 
ATOM     55  C   UNL     1      69.012 -31.518  61.570  0.00  0.00    +0.000 C 
ATOM     56  C   UNL     1      66.118 -26.447  66.539  0.00  0.00    +0.000 C 
ATOM     57  C   UNL     1      65.626 -22.999  63.404  0.00  0.00    +0.000 C 
ATOM     58  C   UNL     1      64.917 -30.906  68.903  0.00  0.00    +0.000 C 
ATOM     59  C   UNL     1      69.224 -29.227  55.578  0.00  0.00    +0.000 C 
ATOM     60  C   UNL     1      65.906 -25.356  65.509  0.00  0.00    +0.000 C 
ATOM     61  C   UNL     1      69.764 -33.035  62.761  0.00  0.00    +0.000 C 
ATOM     62  C   UNL     1      70.922 -28.761  60.365  0.00  0.00    +0.000 C 
ATOM     63  C   UNL     1      66.643 -25.257  66.921  0.00  0.00    +0.000 C 
ATOM     64  H   UNL     1      67.552 -28.506  59.040  0.00  0.00    +0.000 HD
ATOM     65  H   UNL     1      66.740 -30.573  64.896  0.00  0.00    +0.000 HD
ATOM     66  H   UNL     1      64.561 -26.061  64.203  0.00  0.00    +0.000 HD
ATOM     67  H   UNL     1      65.604 -28.350  66.207  0.00  0.00    +0.000 HD
ATOM     68  C   UNL     1      66.780 -27.168  55.601  0.00  0.00    +0.000 C 
ATOM     69  C   UNL     1      67.467 -27.826  54.542  0.00  0.00    +0.000 C 
ATOM     70  C   UNL     1      67.908 -29.153  55.015  0.00  0.00    +0.000 C 
ATOM     71  C   UNL     1      61.778 -24.994  57.118  0.00  0.00    +0.000 C 
ATOM     72  C   UNL     1      61.691 -26.009  56.260  0.00  0.00    +0.000 C 
ATOM     73  C   UNL     1      60.995 -24.535  58.182  0.00  0.00    +0.000 C 
ATOM     74  C   UNL     1      61.461 -22.439  62.860  0.00  0.00    +0.000 C 
ATOM     75  C   UNL     1      61.618 -21.564  63.926  0.00  0.00    +0.000 C 
ATOM     76  C   UNL     1      60.406 -21.072  64.746  0.00  0.00    +0.000 C 
ATOM     77  C   UNL     1      62.665 -21.920  64.754  0.00  0.00    +0.000 C 
ATOM     78  C   UNL     1      68.338 -35.111  62.212  0.00  0.00    +0.000 C 
ATOM     79  C   UNL     1      68.097 -36.411  62.353  0.00  0.00    +0.000 C 
ATOM     80  C   UNL     1      69.465 -34.295  62.323  0.00  0.00    +0.000 C 
ATOM     81  C   UNL     1      64.382 -29.009  70.727  0.00  0.00    +0.000 C 
ATOM     82  C   UNL     1      63.751 -29.140  72.074  0.00  0.00    +0.000 C 
ATOM     83  C   UNL     1      64.778 -27.753  70.205  0.00  0.00    +0.000 C 
ENDROOT
BRANCH  69  84
ATOM     84  C   UNL     1      68.012 -27.208  53.392  0.00  0.00    +0.000 C 
ATOM     85  C   UNL     1      68.480 -26.689  52.415  0.00  0.00    +0.000 C 
BRANCH  85  86
ATOM     86  C   UNL     1      69.082 -26.030  51.169  0.00  0.00    +0.000 C 
ATOM     87  C   UNL     1      69.608 -25.462  50.086  0.00  0.00    +0.000 C 
ENDBRANCH  85  86
ENDBRANCH  69  84
BRANCH  13  88
ATOM     88  C   UNL     1      65.425 -26.855  58.939  0.00  0.00    +0.000 C 
BRANCH  88  89
ATOM     89  O   UNL     1      64.745 -27.223  60.017  0.00  0.00    +0.000 OA
ATOM     90  H   UNL     1      63.808 -27.360  59.789  0.00  0.00    +0.000 HD
ENDBRANCH  88  89
ENDBRANCH  13  88
TORSDOF 4
ENDMDL
MODEL 4
REMARK VINA RESULT:      -9.2      5.032     11.571
REMARK  Name = Cyclosporin_A.pdbqt.pdb
REMARK  4 active torsions:
REMARK  status: ('A' for Active; 'I' for Inactive)
REMARK    1  A    between atoms: N_13  and  C_36
REMARK    2  A    between atoms: C_36  and  O_70
REMARK    3  A    between atoms: C_72  and  C_73
REMARK    4  A    between atoms: C_75  and  C_76
REMARK                            x       y       z     vdW  Elec       q    Type
REMARK                         _______ _______ _______ _____ _____    ______ ____
ROOT
ATOM      1  O   UNL     1      38.934 -50.311  44.711  0.00  0.00    +0.000 OA
ATOM      2  O   UNL     1      37.138 -45.739  43.234  0.00  0.00    +0.000 OA
ATOM      3  O   UNL     1      38.176 -43.040  47.049  0.00  0.00    +0.000 OA
ATOM      4  O   UNL     1      38.708 -51.520  49.454  0.00  0.00    +0.000 OA
ATOM      5  O   UNL     1      40.917 -43.953  42.880  0.00  0.00    +0.000 OA
ATOM      6  O   UNL     1      49.806 -45.037  49.729  0.00  0.00    +0.000 OA
ATOM      7  O   UNL     1      43.335 -52.790  46.612  0.00  0.00    +0.000 OA
ATOM      8  O   UNL     1      46.906 -48.152  52.211  0.00  0.00    +0.000 OA
ATOM      9  O   UNL     1      47.763 -41.857  46.698  0.00  0.00    +0.000 OA
ATOM     10  O   UNL     1      45.552 -51.479  50.219  0.00  0.00    +0.000 OA
ATOM     11  O   UNL     1      45.142 -43.764  43.852  0.00  0.00    +0.000 OA
ATOM     12  N   UNL     1      37.860 -47.033  44.481  0.00  0.00    +0.000 NA
ATOM     13  N   UNL     1      38.796 -48.979  46.709  0.00  0.00    +0.000 NA
ATOM     14  N   UNL     1      37.757 -43.910  45.315  0.00  0.00    +0.000 NA
ATOM     15  N   UNL     1      40.689 -42.693  45.131  0.00  0.00    +0.000 NA
ATOM     16  N   UNL     1      40.740 -50.674  48.402  0.00  0.00    +0.000 NA
ATOM     17  N   UNL     1      47.767 -43.880  49.955  0.00  0.00    +0.000 N 
ATOM     18  N   UNL     1      46.740 -46.785  50.318  0.00  0.00    +0.000 N 
ATOM     19  N   UNL     1      45.901 -49.549  50.009  0.00  0.00    +0.000 NA
ATOM     20  N   UNL     1      43.574 -50.627  47.273  0.00  0.00    +0.000 NA
ATOM     21  N   UNL     1      43.309 -44.068  45.500  0.00  0.00    +0.000 NA
ATOM     22  N   UNL     1      46.404 -43.798  47.166  0.00  0.00    +0.000 NA
ATOM     23  C   UNL     1      38.574 -48.177  44.271  0.00  0.00    +0.000 C 
ATOM     24  C   UNL     1      37.995 -45.209  45.521  0.00  0.00    +0.000 C 
ATOM     25  C   UNL     1      38.472 -50.008  47.572  0.00  0.00    +0.000 C 
ATOM     26  C   UNL     1      38.586 -48.857  43.067  0.00  0.00    +0.000 C 
ATOM     27  C   UNL     1      37.193 -45.346  46.758  0.00  0.00    +0.000 C 
ATOM     28  C   UNL     1      38.770 -49.060  45.313  0.00  0.00    +0.000 C 
ATOM     29  C   UNL     1      37.919 -45.671  44.250  0.00  0.00    +0.000 C 
ATOM     30  C   UNL     1      39.399 -42.681  44.936  0.00  0.00    +0.000 C 
ATOM     31  C   UNL     1      38.794 -43.359  45.952  0.00  0.00    +0.000 C 
ATOM     32  C   UNL     1      39.362 -50.512  48.661  0.00  0.00    +0.000 C 
ATOM     33  C   UNL     1      37.612 -48.104  42.343  0.00  0.00    +0.000 C 
ATOM     34  C   UNL     1      38.621 -50.178  43.372  0.00  0.00    +0.000 C 
ATOM     35  C   UNL     1      37.373 -47.030  43.187  0.00  0.00    +0.000 C 
ATOM     36  C   UNL     1      37.027 -43.660  46.509  0.00  0.00    +0.000 C 
ATOM     37  C   UNL     1      41.342 -51.846  47.878  0.00  0.00    +0.000 C 
ATOM     38  C   UNL     1      48.040 -46.380  50.156  0.00  0.00    +0.000 A 
ATOM     39  C   UNL     1      40.958 -43.671  44.271  0.00  0.00    +0.000 C 
ATOM     40  C   UNL     1      47.879 -42.996  48.852  0.00  0.00    +0.000 C 
ATOM     41  C   UNL     1      45.419 -48.798  51.029  0.00  0.00    +0.000 C 
ATOM     42  C   UNL     1      40.752 -41.296  44.630  0.00  0.00    +0.000 C 
ATOM     43  C   UNL     1      49.235 -47.161  50.115  0.00  0.00    +0.000 A 
ATOM     44  C   UNL     1      48.904 -41.715  49.622  0.00  0.00    +0.000 C 
ATOM     45  C   UNL     1      42.342 -44.088  44.635  0.00  0.00    +0.000 C 
ATOM     46  C   UNL     1      46.114 -49.340  52.249  0.00  0.00    +0.000 C 
ATOM     47  C   UNL     1      40.488 -52.989  47.913  0.00  0.00    +0.000 C 
ATOM     48  C   UNL     1      48.447 -45.068  49.937  0.00  0.00    +0.000 A 
ATOM     49  C   UNL     1      42.581 -51.792  47.328  0.00  0.00    +0.000 C 
ATOM     50  C   UNL     1      46.364 -47.786  51.082  0.00  0.00    +0.000 C 
ATOM     51  C   UNL     1      47.389 -42.916  47.570  0.00  0.00    +0.000 C 
ATOM     52  C   UNL     1      44.167 -50.405  48.595  0.00  0.00    +0.000 C 
ATOM     53  C   UNL     1      49.398 -48.654  50.210  0.00  0.00    +0.000 C 
ATOM     54  C   UNL     1      50.276 -46.308  49.848  0.00  0.00    +0.000 A 
ATOM     55  C   UNL     1      44.809 -50.364  49.860  0.00  0.00    +0.000 C 
ATOM     56  C   UNL     1      45.856 -43.825  45.995  0.00  0.00    +0.000 C 
ATOM     57  C   UNL     1      42.039 -44.288  43.316  0.00  0.00    +0.000 C 
ATOM     58  C   UNL     1      48.494 -42.806  50.343  0.00  0.00    +0.000 C 
ATOM     59  C   UNL     1      39.380 -53.353  48.189  0.00  0.00    +0.000 C 
ATOM     60  C   UNL     1      44.588 -43.950  45.173  0.00  0.00    +0.000 C 
ATOM     61  C   UNL     1      46.606 -50.677  50.838  0.00  0.00    +0.000 C 
ATOM     62  C   UNL     1      43.975 -51.733  46.677  0.00  0.00    +0.000 C 
ATOM     63  C   UNL     1      46.074 -43.664  44.667  0.00  0.00    +0.000 C 
ATOM     64  H   UNL     1      41.123 -49.861  47.918  0.00  0.00    +0.000 HD
ATOM     65  H   UNL     1      46.071 -46.429  49.639  0.00  0.00    +0.000 HD
ATOM     66  H   UNL     1      43.061 -43.885  46.469  0.00  0.00    +0.000 HD
ATOM     67  H   UNL     1      45.895 -44.168  47.964  0.00  0.00    +0.000 HD
ATOM     68  C   UNL     1      37.549 -50.890  47.300  0.00  0.00    +0.000 C 
ATOM     69  C   UNL     1      37.235 -52.216  47.710  0.00  0.00    +0.000 C 
ATOM     70  C   UNL     1      38.238 -52.655  48.701  0.00  0.00    +0.000 C 
ATOM     71  C   UNL     1      35.601 -45.575  47.215  0.00  0.00    +0.000 C 
ATOM     72  C   UNL     1      35.165 -46.297  48.246  0.00  0.00    +0.000 C 
ATOM     73  C   UNL     1      35.929 -44.230  47.024  0.00  0.00    +0.000 C 
ATOM     74  C   UNL     1      39.327 -41.269  44.535  0.00  0.00    +0.000 C 
ATOM     75  C   UNL     1      40.007 -40.520  43.585  0.00  0.00    +0.000 C 
ATOM     76  C   UNL     1      39.912 -38.980  43.558  0.00  0.00    +0.000 C 
ATOM     77  C   UNL     1      41.313 -40.939  43.417  0.00  0.00    +0.000 C 
ATOM     78  C   UNL     1      46.061 -50.500  53.351  0.00  0.00    +0.000 C 
ATOM     79  C   UNL     1      46.442 -50.604  54.621  0.00  0.00    +0.000 C 
ATOM     80  C   UNL     1      46.477 -51.063  52.143  0.00  0.00    +0.000 C 
ATOM     81  C   UNL     1      49.134 -40.798  48.679  0.00  0.00    +0.000 C 
ATOM     82  C   UNL     1      49.944 -39.572  48.941  0.00  0.00    +0.000 C 
ATOM     83  C   UNL     1      48.536 -41.045  47.419  0.00  0.00    +0.000 C 
ENDROOT
BRANCH  69  84
ATOM     84  C   UNL     1      36.395 -53.123  47.023  0.00  0.00    +0.000 C 
ATOM     85  C   UNL     1      35.688 -53.900  46.440  0.00  0.00    +0.000 C 
BRANCH  85  86
ATOM     86  C   UNL     1      34.790 -54.892  45.694  0.00  0.00    +0.000 C 
ATOM     87  C   UNL     1      34.005 -55.752  45.047  0.00  0.00    +0.000 C 
ENDBRANCH  85  86
ENDBRANCH  69  84
BRANCH  13  88
ATOM     88  C   UNL     1      39.473 -47.828  47.283  0.00  0.00    +0.000 C 
BRANCH  88  89
ATOM     89  O   UNL     1      40.113 -46.790  47.806  0.00  0.00    +0.000 OA
ATOM     90  H   UNL     1      41.067 -46.861  47.625  0.00  0.00    +0.000 HD
ENDBRANCH  88  89
ENDBRANCH  13  88
TORSDOF 4
ENDMDL
MODEL 5
REMARK VINA RESULT:      -9.1     26.310     30.440
REMARK  Name = Cyclosporin_A.pdbqt.pdb
REMARK  4 active torsions:
REMARK  status: ('A' for Active; 'I' for Inactive)
REMARK    1  A    between atoms: N_13  and  C_36
REMARK    2  A    between atoms: C_36  and  O_70
REMARK    3  A    between atoms: C_72  and  C_73
REMARK    4  A    between atoms: C_75  and  C_76
REMARK                            x       y       z     vdW  Elec       q    Type
REMARK                         _______ _______ _______ _____ _____    ______ ____
ROOT
ATOM      1  O   UNL     1      70.320 -40.899  64.907  0.00  0.00    +0.000 OA
ATOM      2  O   UNL     1      71.266 -36.565  62.331  0.00  0.00    +0.000 OA
ATOM      3  O   UNL     1      66.941 -34.515  62.311  0.00  0.00    +0.000 OA
ATOM      4  O   UNL     1      65.936 -43.031  64.415  0.00  0.00    +0.000 OA
ATOM      5  O   UNL     1      70.738 -34.043  65.640  0.00  0.00    +0.000 OA
ATOM      6  O   UNL     1      62.895 -34.692  73.713  0.00  0.00    +0.000 OA
ATOM      7  O   UNL     1      68.213 -42.796  69.499  0.00  0.00    +0.000 OA
ATOM      8  O   UNL     1      61.440 -38.737  71.306  0.00  0.00    +0.000 OA
ATOM      9  O   UNL     1      65.627 -31.441  71.380  0.00  0.00    +0.000 OA
ATOM     10  O   UNL     1      64.143 -41.809  70.950  0.00  0.00    +0.000 OA
ATOM     11  O   UNL     1      69.116 -33.229  69.582  0.00  0.00    +0.000 OA
ATOM     12  N   UNL     1      70.158 -37.912  63.173  0.00  0.00    +0.000 NA
ATOM     13  N   UNL     1      68.171 -40.036  64.254  0.00  0.00    +0.000 NA
ATOM     14  N   UNL     1      68.839 -35.094  62.292  0.00  0.00    +0.000 NA
ATOM     15  N   UNL     1      68.369 -33.317  64.887  0.00  0.00    +0.000 NA
ATOM     16  N   UNL     1      66.511 -41.617  66.317  0.00  0.00    +0.000 NA
ATOM     17  N   UNL     1      62.791 -34.021  71.459  0.00  0.00    +0.000 N 
ATOM     18  N   UNL     1      63.080 -37.085  71.060  0.00  0.00    +0.000 N 
ATOM     19  N   UNL     1      63.972 -39.845  70.889  0.00  0.00    +0.000 NA
ATOM     20  N   UNL     1      67.171 -40.799  69.181  0.00  0.00    +0.000 NA
ATOM     21  N   UNL     1      67.841 -34.200  67.686  0.00  0.00    +0.000 NA
ATOM     22  N   UNL     1      65.702 -33.663  70.436  0.00  0.00    +0.000 NA
ATOM     23  C   UNL     1      70.445 -38.831  64.139  0.00  0.00    +0.000 C 
ATOM     24  C   UNL     1      68.820 -36.336  62.785  0.00  0.00    +0.000 C 
ATOM     25  C   UNL     1      67.553 -41.257  64.068  0.00  0.00    +0.000 C 
ATOM     26  C   UNL     1      71.730 -39.248  64.437  0.00  0.00    +0.000 C 
ATOM     27  C   UNL     1      67.759 -36.866  61.898  0.00  0.00    +0.000 C 
ATOM     28  C   UNL     1      69.548 -39.845  64.405  0.00  0.00    +0.000 C 
ATOM     29  C   UNL     1      70.146 -36.546  62.957  0.00  0.00    +0.000 C 
ATOM     30  C   UNL     1      68.753 -33.518  63.657  0.00  0.00    +0.000 C 
ATOM     31  C   UNL     1      67.968 -34.487  63.104  0.00  0.00    +0.000 C 
ATOM     32  C   UNL     1      66.440 -41.781  64.917  0.00  0.00    +0.000 C 
ATOM     33  C   UNL     1      72.458 -38.571  63.410  0.00  0.00    +0.000 C 
ATOM     34  C   UNL     1      71.649 -40.569  64.726  0.00  0.00    +0.000 C 
ATOM     35  C   UNL     1      71.492 -37.751  62.847  0.00  0.00    +0.000 C 
ATOM     36  C   UNL     1      67.745 -35.229  61.394  0.00  0.00    +0.000 C 
ATOM     37  C   UNL     1      67.125 -42.524  67.217  0.00  0.00    +0.000 C 
ATOM     38  C   UNL     1      62.973 -36.411  72.249  0.00  0.00    +0.000 A 
ATOM     39  C   UNL     1      69.329 -34.036  65.460  0.00  0.00    +0.000 C 
ATOM     40  C   UNL     1      63.701 -32.934  71.498  0.00  0.00    +0.000 C 
ATOM     41  C   UNL     1      62.926 -39.416  70.141  0.00  0.00    +0.000 C 
ATOM     42  C   UNL     1      68.614 -31.864  64.699  0.00  0.00    +0.000 C 
ATOM     43  C   UNL     1      62.962 -36.920  73.583  0.00  0.00    +0.000 A 
ATOM     44  C   UNL     1      62.581 -31.654  72.123  0.00  0.00    +0.000 C 
ATOM     45  C   UNL     1      68.834 -34.238  66.852  0.00  0.00    +0.000 C 
ATOM     46  C   UNL     1      61.723 -40.040  70.795  0.00  0.00    +0.000 C 
ATOM     47  C   UNL     1      67.412 -43.796  66.637  0.00  0.00    +0.000 C 
ATOM     48  C   UNL     1      62.905 -35.028  72.381  0.00  0.00    +0.000 A 
ATOM     49  C   UNL     1      67.464 -42.123  68.468  0.00  0.00    +0.000 C 
ATOM     50  C   UNL     1      62.561 -38.270  70.828  0.00  0.00    +0.000 C 
ATOM     51  C   UNL     1      65.012 -32.703  71.151  0.00  0.00    +0.000 C 
ATOM     52  C   UNL     1      65.756 -40.729  69.557  0.00  0.00    +0.000 C 
ATOM     53  C   UNL     1      63.094 -38.343  74.058  0.00  0.00    +0.000 C 
ATOM     54  C   UNL     1      62.921 -35.846  74.435  0.00  0.00    +0.000 A 
ATOM     55  C   UNL     1      64.420 -40.811  70.026  0.00  0.00    +0.000 C 
ATOM     56  C   UNL     1      66.931 -33.567  70.044  0.00  0.00    +0.000 C 
ATOM     57  C   UNL     1      70.199 -34.232  66.752  0.00  0.00    +0.000 C 
ATOM     58  C   UNL     1      62.123 -32.924  71.883  0.00  0.00    +0.000 C 
ATOM     59  C   UNL     1      67.372 -44.415  65.612  0.00  0.00    +0.000 C 
ATOM     60  C   UNL     1      67.945 -33.773  68.936  0.00  0.00    +0.000 C 
ATOM     61  C   UNL     1      63.246 -40.953  71.725  0.00  0.00    +0.000 C 
ATOM     62  C   UNL     1      67.876 -41.668  69.880  0.00  0.00    +0.000 C 
ATOM     63  C   UNL     1      68.164 -33.110  70.371  0.00  0.00    +0.000 C 
ATOM     64  H   UNL     1      66.787 -40.667  66.565  0.00  0.00    +0.000 HD
ATOM     65  H   UNL     1      63.784 -36.741  70.411  0.00  0.00    +0.000 HD
ATOM     66  H   UNL     1      66.904 -34.261  67.296  0.00  0.00    +0.000 HD
ATOM     67  H   UNL     1      65.065 -34.273  69.934  0.00  0.00    +0.000 HD
ATOM     68  C   UNL     1      68.105 -42.231  63.398  0.00  0.00    +0.000 C 
ATOM     69  C   UNL     1      67.975 -43.647  63.338  0.00  0.00    +0.000 C 
ATOM     70  C   UNL     1      66.931 -44.067  64.294  0.00  0.00    +0.000 C 
ATOM     71  C   UNL     1      67.595 -37.485  60.353  0.00  0.00    +0.000 C 
ATOM     72  C   UNL     1      66.777 -38.466  59.972  0.00  0.00    +0.000 C 
ATOM     73  C   UNL     1      67.506 -36.091  60.397  0.00  0.00    +0.000 C 
ATOM     74  C   UNL     1      68.918 -32.097  63.322  0.00  0.00    +0.000 C 
ATOM     75  C   UNL     1      69.615 -31.058  63.925  0.00  0.00    +0.000 C 
ATOM     76  C   UNL     1      69.397 -29.591  63.498  0.00  0.00    +0.000 C 
ATOM     77  C   UNL     1      69.650 -31.174  65.301  0.00  0.00    +0.000 C 
ATOM     78  C   UNL     1      60.852 -41.381  70.873  0.00  0.00    +0.000 C 
ATOM     79  C   UNL     1      59.574 -41.656  71.121  0.00  0.00    +0.000 C 
ATOM     80  C   UNL     1      62.059 -41.604  71.537  0.00  0.00    +0.000 C 
ATOM     81  C   UNL     1      63.311 -30.544  72.251  0.00  0.00    +0.000 C 
ATOM     82  C   UNL     1      62.728 -29.258  72.737  0.00  0.00    +0.000 C 
ATOM     83  C   UNL     1      64.671 -30.652  71.869  0.00  0.00    +0.000 C 
ENDROOT
BRANCH  69  84
ATOM     84  C   UNL     1      68.924 -44.548  62.802  0.00  0.00    +0.000 C 
ATOM     85  C   UNL     1      69.735 -45.313  62.353  0.00  0.00    +0.000 C 
BRANCH  85  86
ATOM     86  C   UNL     1      70.772 -46.287  61.783  0.00  0.00    +0.000 C 
ATOM     87  C   UNL     1      71.677 -47.131  61.292  0.00  0.00    +0.000 C 
ENDBRANCH  85  86
ENDBRANCH  69  84
BRANCH  13  88
ATOM     88  C   UNL     1      67.316 -38.909  64.592  0.00  0.00    +0.000 C 
BRANCH  88  89
ATOM     89  O   UNL     1      66.527 -37.895  64.920  0.00  0.00    +0.000 OA
ATOM     90  H   UNL     1      65.598 -38.122  64.734  0.00  0.00    +0.000 HD
ENDBRANCH  88  89
ENDBRANCH  13  88
TORSDOF 4
ENDMDL
MODEL 6
REMARK VINA RESULT:      -9.0     21.881     28.207
REMARK  Name = Cyclosporin_A.pdbqt.pdb
REMARK  4 active torsions:
REMARK  status: ('A' for Active; 'I' for Inactive)
REMARK    1  A    between atoms: N_13  and  C_36
REMARK    2  A    between atoms: C_36  and  O_70
REMARK    3  A    between atoms: C_72  and  C_73
REMARK    4  A    between atoms: C_75  and  C_76
REMARK                            x       y       z     vdW  Elec       q    Type
REMARK                         _______ _______ _______ _____ _____    ______ ____
ROOT
ATOM      1  O   UNL     1      69.437 -43.549  65.839  0.00  0.00    +0.000 OA
ATOM      2  O   UNL     1      68.857 -44.831  70.772  0.00  0.00    +0.000 OA
ATOM      3  O   UNL     1      64.091 -45.106  71.121  0.00  0.00    +0.000 OA
ATOM      4  O   UNL     1      66.055 -40.705  63.722  0.00  0.00    +0.000 OA
ATOM      5  O   UNL     1      67.473 -48.712  69.986  0.00  0.00    +0.000 OA
ATOM      6  O   UNL     1      60.274 -52.054  61.978  0.00  0.00    +0.000 OA
ATOM      7  O   UNL     1      68.078 -45.019  60.827  0.00  0.00    +0.000 OA
ATOM      8  O   UNL     1      60.312 -47.313  60.640  0.00  0.00    +0.000 OA
ATOM      9  O   UNL     1      61.741 -53.232  66.444  0.00  0.00    +0.000 OA
ATOM     10  O   UNL     1      63.907 -45.694  59.490  0.00  0.00    +0.000 OA
ATOM     11  O   UNL     1      65.644 -51.638  67.355  0.00  0.00    +0.000 OA
ATOM     12  N   UNL     1      68.273 -44.261  69.015  0.00  0.00    +0.000 NA
ATOM     13  N   UNL     1      67.127 -43.128  66.363  0.00  0.00    +0.000 NA
ATOM     14  N   UNL     1      66.072 -45.179  71.200  0.00  0.00    +0.000 NA
ATOM     15  N   UNL     1      65.004 -48.075  70.437  0.00  0.00    +0.000 NA
ATOM     16  N   UNL     1      66.096 -43.129  63.457  0.00  0.00    +0.000 NA
ATOM     17  N   UNL     1      59.962 -50.878  63.994  0.00  0.00    +0.000 N 
ATOM     18  N   UNL     1      61.287 -48.638  62.305  0.00  0.00    +0.000 N 
ATOM     19  N   UNL     1      63.072 -46.909  60.800  0.00  0.00    +0.000 NA
ATOM     20  N   UNL     1      66.416 -45.860  62.134  0.00  0.00    +0.000 NA
ATOM     21  N   UNL     1      64.792 -49.339  67.745  0.00  0.00    +0.000 NA
ATOM     22  N   UNL     1      62.580 -51.112  65.649  0.00  0.00    +0.000 NA
ATOM     23  C   UNL     1      68.851 -44.406  67.788  0.00  0.00    +0.000 C 
ATOM     24  C   UNL     1      66.477 -44.700  70.021  0.00  0.00    +0.000 C 
ATOM     25  C   UNL     1      66.966 -42.034  65.535  0.00  0.00    +0.000 C 
ATOM     26  C   UNL     1      70.199 -44.658  67.607  0.00  0.00    +0.000 C 
ATOM     27  C   UNL     1      65.669 -43.460  70.042  0.00  0.00    +0.000 C 
ATOM     28  C   UNL     1      68.355 -43.701  66.712  0.00  0.00    +0.000 C 
ATOM     29  C   UNL     1      67.794 -45.010  70.075  0.00  0.00    +0.000 C 
ATOM     30  C   UNL     1      65.442 -47.167  71.264  0.00  0.00    +0.000 C 
ATOM     31  C   UNL     1      65.041 -45.940  70.824  0.00  0.00    +0.000 C 
ATOM     32  C   UNL     1      66.096 -42.013  64.321  0.00  0.00    +0.000 C 
ATOM     33  C   UNL     1      70.657 -44.560  68.956  0.00  0.00    +0.000 C 
ATOM     34  C   UNL     1      70.574 -43.968  66.503  0.00  0.00    +0.000 C 
ATOM     35  C   UNL     1      69.473 -44.466  69.671  0.00  0.00    +0.000 C 
ATOM     36  C   UNL     1      65.097 -44.184  71.484  0.00  0.00    +0.000 C 
ATOM     37  C   UNL     1      66.978 -43.317  62.363  0.00  0.00    +0.000 C 
ATOM     38  C   UNL     1      60.947 -49.899  61.888  0.00  0.00    +0.000 A 
ATOM     39  C   UNL     1      66.149 -48.241  69.783  0.00  0.00    +0.000 C 
ATOM     40  C   UNL     1      60.443 -51.851  64.907  0.00  0.00    +0.000 C 
ATOM     41  C   UNL     1      61.948 -46.406  61.365  0.00  0.00    +0.000 C 
ATOM     42  C   UNL     1      64.736 -48.965  71.597  0.00  0.00    +0.000 C 
ATOM     43  C   UNL     1      61.103 -50.503  60.603  0.00  0.00    +0.000 A 
ATOM     44  C   UNL     1      58.948 -52.864  65.051  0.00  0.00    +0.000 C 
ATOM     45  C   UNL     1      65.743 -48.969  68.546  0.00  0.00    +0.000 C 
ATOM     46  C   UNL     1      61.028 -46.157  60.201  0.00  0.00    +0.000 C 
ATOM     47  C   UNL     1      67.688 -42.135  61.994  0.00  0.00    +0.000 C 
ATOM     48  C   UNL     1      60.407 -50.891  62.699  0.00  0.00    +0.000 A 
ATOM     49  C   UNL     1      67.150 -44.551  61.825  0.00  0.00    +0.000 C 
ATOM     50  C   UNL     1      61.207 -47.561  61.556  0.00  0.00    +0.000 C 
ATOM     51  C   UNL     1      61.597 -52.083  65.619  0.00  0.00    +0.000 C 
ATOM     52  C   UNL     1      65.061 -45.822  61.578  0.00  0.00    +0.000 C 
ATOM     53  C   UNL     1      61.711 -49.929  59.351  0.00  0.00    +0.000 C 
ATOM     54  C   UNL     1      60.690 -51.806  60.706  0.00  0.00    +0.000 A 
ATOM     55  C   UNL     1      63.830 -45.770  60.873  0.00  0.00    +0.000 C 
ATOM     56  C   UNL     1      63.704 -51.201  66.283  0.00  0.00    +0.000 C 
ATOM     57  C   UNL     1      67.024 -49.240  68.946  0.00  0.00    +0.000 C 
ATOM     58  C   UNL     1      58.955 -51.740  64.266  0.00  0.00    +0.000 C 
ATOM     59  C   UNL     1      67.870 -40.990  62.297  0.00  0.00    +0.000 C 
ATOM     60  C   UNL     1      64.735 -50.532  67.170  0.00  0.00    +0.000 C 
ATOM     61  C   UNL     1      62.765 -46.587  59.298  0.00  0.00    +0.000 C 
ATOM     62  C   UNL     1      67.372 -45.953  61.229  0.00  0.00    +0.000 C 
ATOM     63  C   UNL     1      64.703 -52.040  66.649  0.00  0.00    +0.000 C 
ATOM     64  H   UNL     1      66.028 -44.002  63.980  0.00  0.00    +0.000 HD
ATOM     65  H   UNL     1      61.834 -48.581  63.161  0.00  0.00    +0.000 HD
ATOM     66  H   UNL     1      63.936 -48.791  67.757  0.00  0.00    +0.000 HD
ATOM     67  H   UNL     1      62.194 -50.194  65.446  0.00  0.00    +0.000 HD
ATOM     68  C   UNL     1      67.824 -41.052  65.491  0.00  0.00    +0.000 C 
ATOM     69  C   UNL     1      68.188 -40.040  64.559  0.00  0.00    +0.000 C 
ATOM     70  C   UNL     1      67.345 -40.179  63.355  0.00  0.00    +0.000 C 
ATOM     71  C   UNL     1      65.737 -41.916  70.683  0.00  0.00    +0.000 C 
ATOM     72  C   UNL     1      65.308 -40.795  70.104  0.00  0.00    +0.000 C 
ATOM     73  C   UNL     1      65.175 -42.849  71.558  0.00  0.00    +0.000 C 
ATOM     74  C   UNL     1      65.112 -47.912  72.487  0.00  0.00    +0.000 C 
ATOM     75  C   UNL     1      65.406 -49.198  72.918  0.00  0.00    +0.000 C 
ATOM     76  C   UNL     1      64.701 -49.815  74.146  0.00  0.00    +0.000 C 
ATOM     77  C   UNL     1      65.469 -50.104  71.876  0.00  0.00    +0.000 C 
ATOM     78  C   UNL     1      60.669 -45.110  59.045  0.00  0.00    +0.000 C 
ATOM     79  C   UNL     1      59.561 -44.787  58.383  0.00  0.00    +0.000 C 
ATOM     80  C   UNL     1      61.875 -45.729  58.714  0.00  0.00    +0.000 C 
ATOM     81  C   UNL     1      59.252 -53.871  65.874  0.00  0.00    +0.000 C 
ATOM     82  C   UNL     1      58.259 -54.922  66.247  0.00  0.00    +0.000 C 
ATOM     83  C   UNL     1      60.568 -53.865  66.396  0.00  0.00    +0.000 C 
ENDROOT
BRANCH  69  84
ATOM     84  C   UNL     1      69.393 -39.298  64.564  0.00  0.00    +0.000 C 
ATOM     85  C   UNL     1      70.420 -38.675  64.568  0.00  0.00    +0.000 C 
BRANCH  85  86
ATOM     86  C   UNL     1      71.732 -37.884  64.574  0.00  0.00    +0.000 C 
ATOM     87  C   UNL     1      72.875 -37.200  64.576  0.00  0.00    +0.000 C 
ENDBRANCH  85  86
ENDBRANCH  69  84
BRANCH  13  88
ATOM     88  C   UNL     1      65.936 -43.902  66.671  0.00  0.00    +0.000 C 
BRANCH  88  89
ATOM     89  O   UNL     1      64.841 -44.604  66.928  0.00  0.00    +0.000 OA
ATOM     90  H   UNL     1      64.968 -45.137  67.733  0.00  0.00    +0.000 HD
ENDBRANCH  88  89
ENDBRANCH  13  88
TORSDOF 4
ENDMDL
MODEL 7
REMARK VINA RESULT:      -9.0     14.463     19.548
REMARK  Name = Cyclosporin_A.pdbqt.pdb
REMARK  4 active torsions:
REMARK  status: ('A' for Active; 'I' for Inactive)
REMARK    1  A    between atoms: N_13  and  C_36
REMARK    2  A    between atoms: C_36  and  O_70
REMARK    3  A    between atoms: C_72  and  C_73
REMARK    4  A    between atoms: C_75  and  C_76
REMARK                            x       y       z     vdW  Elec       q    Type
REMARK                         _______ _______ _______ _____ _____    ______ ____
ROOT
ATOM      1  O   UNL     1      42.391 -30.858  39.679  0.00  0.00    +0.000 OA
ATOM      2  O   UNL     1      40.853 -26.121  40.905  0.00  0.00    +0.000 OA
ATOM      3  O   UNL     1      41.986 -25.934  45.552  0.00  0.00    +0.000 OA
ATOM      4  O   UNL     1      42.048 -34.401  43.047  0.00  0.00    +0.000 OA
ATOM      5  O   UNL     1      44.724 -24.614  41.491  0.00  0.00    +0.000 OA
ATOM      6  O   UNL     1      53.464 -29.634  46.541  0.00  0.00    +0.000 OA
ATOM      7  O   UNL     1      46.634 -34.187  39.883  0.00  0.00    +0.000 OA
ATOM      8  O   UNL     1      50.378 -33.443  47.027  0.00  0.00    +0.000 OA
ATOM      9  O   UNL     1      51.625 -25.229  45.714  0.00  0.00    +0.000 OA
ATOM     10  O   UNL     1      48.875 -35.119  43.592  0.00  0.00    +0.000 OA
ATOM     11  O   UNL     1      48.941 -25.187  42.338  0.00  0.00    +0.000 OA
ATOM     12  N   UNL     1      41.492 -27.915  41.255  0.00  0.00    +0.000 NA
ATOM     13  N   UNL     1      42.300 -30.795  42.082  0.00  0.00    +0.000 NA
ATOM     14  N   UNL     1      41.542 -25.721  43.630  0.00  0.00    +0.000 NA
ATOM     15  N   UNL     1      44.536 -24.743  44.070  0.00  0.00    +0.000 NA
ATOM     16  N   UNL     1      44.133 -33.227  42.572  0.00  0.00    +0.000 NA
ATOM     17  N   UNL     1      51.487 -28.676  47.387  0.00  0.00    +0.000 N 
ATOM     18  N   UNL     1      50.305 -31.271  46.160  0.00  0.00    +0.000 N 
ATOM     19  N   UNL     1      49.327 -33.396  44.438  0.00  0.00    +0.000 NA
ATOM     20  N   UNL     1      46.979 -32.726  41.592  0.00  0.00    +0.000 NA
ATOM     21  N   UNL     1      47.076 -26.231  43.601  0.00  0.00    +0.000 NA
ATOM     22  N   UNL     1      50.162 -27.049  45.098  0.00  0.00    +0.000 NA
ATOM     23  C   UNL     1      42.148 -28.804  40.454  0.00  0.00    +0.000 C 
ATOM     24  C   UNL     1      41.710 -26.938  43.105  0.00  0.00    +0.000 C 
ATOM     25  C   UNL     1      41.912 -32.108  42.267  0.00  0.00    +0.000 C 
ATOM     26  C   UNL     1      42.138 -28.736  39.073  0.00  0.00    +0.000 C 
ATOM     27  C   UNL     1      40.888 -27.675  44.092  0.00  0.00    +0.000 C 
ATOM     28  C   UNL     1      42.286 -30.116  40.859  0.00  0.00    +0.000 C 
ATOM     29  C   UNL     1      41.625 -26.645  41.786  0.00  0.00    +0.000 C 
ATOM     30  C   UNL     1      43.251 -24.563  43.935  0.00  0.00    +0.000 C 
ATOM     31  C   UNL     1      42.599 -25.648  44.443  0.00  0.00    +0.000 C 
ATOM     32  C   UNL     1      42.762 -33.160  42.903  0.00  0.00    +0.000 C 
ATOM     33  C   UNL     1      41.213 -27.664  38.880  0.00  0.00    +0.000 C 
ATOM     34  C   UNL     1      42.101 -30.015  38.624  0.00  0.00    +0.000 C 
ATOM     35  C   UNL     1      41.021 -27.197  40.172  0.00  0.00    +0.000 C 
ATOM     36  C   UNL     1      40.812 -26.111  44.786  0.00  0.00    +0.000 C 
ATOM     37  C   UNL     1      44.679 -33.966  41.493  0.00  0.00    +0.000 C 
ATOM     38  C   UNL     1      51.626 -30.907  46.216  0.00  0.00    +0.000 A 
ATOM     39  C   UNL     1      44.763 -25.121  42.817  0.00  0.00    +0.000 C 
ATOM     40  C   UNL     1      51.657 -27.347  46.924  0.00  0.00    +0.000 C 
ATOM     41  C   UNL     1      48.873 -33.283  45.710  0.00  0.00    +0.000 C 
ATOM     42  C   UNL     1      44.677 -23.299  44.392  0.00  0.00    +0.000 C 
ATOM     43  C   UNL     1      52.779 -31.604  45.742  0.00  0.00    +0.000 A 
ATOM     44  C   UNL     1      52.738 -26.729  48.240  0.00  0.00    +0.000 C 
ATOM     45  C   UNL     1      46.120 -25.737  42.877  0.00  0.00    +0.000 C 
ATOM     46  C   UNL     1      49.524 -34.426  46.439  0.00  0.00    +0.000 C 
ATOM     47  C   UNL     1      43.767 -34.907  40.928  0.00  0.00    +0.000 C 
ATOM     48  C   UNL     1      52.104 -29.704  46.724  0.00  0.00    +0.000 A 
ATOM     49  C   UNL     1      45.925 -33.689  41.034  0.00  0.00    +0.000 C 
ATOM     50  C   UNL     1      49.868 -32.504  46.279  0.00  0.00    +0.000 C 
ATOM     51  C   UNL     1      51.186 -26.570  45.892  0.00  0.00    +0.000 C 
ATOM     52  C   UNL     1      47.567 -33.275  42.817  0.00  0.00    +0.000 C 
ATOM     53  C   UNL     1      52.863 -32.924  45.023  0.00  0.00    +0.000 C 
ATOM     54  C   UNL     1      53.866 -30.795  45.953  0.00  0.00    +0.000 A 
ATOM     55  C   UNL     1      48.196 -33.948  43.897  0.00  0.00    +0.000 C 
ATOM     56  C   UNL     1      49.626 -26.418  44.103  0.00  0.00    +0.000 C 
ATOM     57  C   UNL     1      45.822 -25.187  41.660  0.00  0.00    +0.000 C 
ATOM     58  C   UNL     1      52.263 -28.015  48.275  0.00  0.00    +0.000 C 
ATOM     59  C   UNL     1      42.638 -35.306  40.987  0.00  0.00    +0.000 C 
ATOM     60  C   UNL     1      48.363 -26.021  43.364  0.00  0.00    +0.000 C 
ATOM     61  C   UNL     1      49.962 -34.825  44.524  0.00  0.00    +0.000 C 
ATOM     62  C   UNL     1      47.328 -33.362  40.490  0.00  0.00    +0.000 C 
ATOM     63  C   UNL     1      49.868 -25.584  43.063  0.00  0.00    +0.000 C 
ATOM     64  H   UNL     1      44.564 -32.302  42.591  0.00  0.00    +0.000 HD
ATOM     65  H   UNL     1      49.664 -30.574  45.789  0.00  0.00    +0.000 HD
ATOM     66  H   UNL     1      46.827 -26.582  44.522  0.00  0.00    +0.000 HD
ATOM     67  H   UNL     1      49.625 -27.761  45.583  0.00  0.00    +0.000 HD
ATOM     68  C   UNL     1      40.948 -32.660  41.583  0.00  0.00    +0.000 C 
ATOM     69  C   UNL     1      40.561 -33.982  41.228  0.00  0.00    +0.000 C 
ATOM     70  C   UNL     1      41.528 -34.933  41.813  0.00  0.00    +0.000 C 
ATOM     71  C   UNL     1      39.280 -28.032  44.385  0.00  0.00    +0.000 C 
ATOM     72  C   UNL     1      38.796 -29.170  44.879  0.00  0.00    +0.000 C 
ATOM     73  C   UNL     1      39.681 -26.811  44.936  0.00  0.00    +0.000 C 
ATOM     74  C   UNL     1      43.256 -23.154  44.352  0.00  0.00    +0.000 C 
ATOM     75  C   UNL     1      43.986 -22.048  43.937  0.00  0.00    +0.000 C 
ATOM     76  C   UNL     1      43.972 -20.729  44.738  0.00  0.00    +0.000 C 
ATOM     77  C   UNL     1      45.270 -22.378  43.548  0.00  0.00    +0.000 C 
ATOM     78  C   UNL     1      49.398 -35.991  46.752  0.00  0.00    +0.000 C 
ATOM     79  C   UNL     1      49.759 -36.777  47.763  0.00  0.00    +0.000 C 
ATOM     80  C   UNL     1      49.798 -35.842  45.423  0.00  0.00    +0.000 C 
ATOM     81  C   UNL     1      53.026 -25.463  47.929  0.00  0.00    +0.000 C 
ATOM     82  C   UNL     1      53.896 -24.609  48.791  0.00  0.00    +0.000 C 
ATOM     83  C   UNL     1      52.431 -24.968  46.743  0.00  0.00    +0.000 C 
ENDROOT
BRANCH  69  84
ATOM     84  C   UNL     1      39.683 -34.339  40.177  0.00  0.00    +0.000 C 
ATOM     85  C   UNL     1      38.944 -34.641  39.280  0.00  0.00    +0.000 C 
BRANCH  85  86
ATOM     86  C   UNL     1      38.004 -35.025  38.133  0.00  0.00    +0.000 C 
ATOM     87  C   UNL     1      37.183 -35.357  37.138  0.00  0.00    +0.000 C 
ENDBRANCH  85  86
ENDBRANCH  69  84
BRANCH  13  88
ATOM     88  C   UNL     1      43.029 -30.164  43.170  0.00  0.00    +0.000 C 
BRANCH  88  89
ATOM     89  O   UNL     1      43.711 -29.607  44.162  0.00  0.00    +0.000 OA
ATOM     90  H   UNL     1      43.672 -30.174  44.953  0.00  0.00    +0.000 HD
ENDBRANCH  88  89
ENDBRANCH  13  88
TORSDOF 4
ENDMDL
MODEL 8
REMARK VINA RESULT:      -8.8      4.554     12.562
REMARK  Name = Cyclosporin_A.pdbqt.pdb
REMARK  4 active torsions:
REMARK  status: ('A' for Active; 'I' for Inactive)
REMARK    1  A    between atoms: N_13  and  C_36
REMARK    2  A    between atoms: C_36  and  O_70
REMARK    3  A    between atoms: C_72  and  C_73
REMARK    4  A    between atoms: C_75  and  C_76
REMARK                            x       y       z     vdW  Elec       q    Type
REMARK                         _______ _______ _______ _____ _____    ______ ____
ROOT
ATOM      1  O   UNL     1      41.364 -46.656  49.826  0.00  0.00    +0.000 OA
ATOM      2  O   UNL     1      46.123 -48.290  50.826  0.00  0.00    +0.000 OA
ATOM      3  O   UNL     1      48.055 -48.306  46.447  0.00  0.00    +0.000 OA
ATOM      4  O   UNL     1      39.277 -47.917  45.576  0.00  0.00    +0.000 OA
ATOM      5  O   UNL     1      47.966 -44.628  49.938  0.00  0.00    +0.000 OA
ATOM      6  O   UNL     1      45.656 -37.532  41.488  0.00  0.00    +0.000 OA
ATOM      7  O   UNL     1      38.596 -42.699  47.419  0.00  0.00    +0.000 OA
ATOM      8  O   UNL     1      42.109 -40.767  40.380  0.00  0.00    +0.000 OA
ATOM      9  O   UNL     1      49.341 -38.973  44.285  0.00  0.00    +0.000 OA
ATOM     10  O   UNL     1      39.212 -41.450  43.211  0.00  0.00    +0.000 OA
ATOM     11  O   UNL     1      47.992 -40.761  47.971  0.00  0.00    +0.000 OA
ATOM     12  N   UNL     1      44.620 -47.813  49.702  0.00  0.00    +0.000 NA
ATOM     13  N   UNL     1      42.293 -47.323  47.709  0.00  0.00    +0.000 NA
ATOM     14  N   UNL     1      47.527 -48.266  48.359  0.00  0.00    +0.000 NA
ATOM     15  N   UNL     1      48.775 -45.437  47.615  0.00  0.00    +0.000 NA
ATOM     16  N   UNL     1      40.319 -45.743  45.942  0.00  0.00    +0.000 NA
ATOM     17  N   UNL     1      46.737 -39.623  41.546  0.00  0.00    +0.000 N 
ATOM     18  N   UNL     1      43.809 -40.558  41.976  0.00  0.00    +0.000 N 
ATOM     19  N   UNL     1      41.149 -41.160  42.975  0.00  0.00    +0.000 NA
ATOM     20  N   UNL     1      40.596 -42.730  46.336  0.00  0.00    +0.000 NA
ATOM     21  N   UNL     1      47.370 -42.908  46.891  0.00  0.00    +0.000 NA
ATOM     22  N   UNL     1      47.338 -40.303  44.516  0.00  0.00    +0.000 NA
ATOM     23  C   UNL     1      43.541 -47.013  49.941  0.00  0.00    +0.000 C 
ATOM     24  C   UNL     1      46.215 -48.016  48.344  0.00  0.00    +0.000 C 
ATOM     25  C   UNL     1      41.117 -47.786  47.152  0.00  0.00    +0.000 C 
ATOM     26  C   UNL     1      43.101 -46.687  51.211  0.00  0.00    +0.000 C 
ATOM     27  C   UNL     1      45.841 -49.075  47.380  0.00  0.00    +0.000 C 
ATOM     28  C   UNL     1      42.478 -47.019  49.062  0.00  0.00    +0.000 C 
ATOM     29  C   UNL     1      46.002 -47.771  49.658  0.00  0.00    +0.000 C 
ATOM     30  C   UNL     1      48.816 -46.645  48.106  0.00  0.00    +0.000 C 
ATOM     31  C   UNL     1      47.954 -47.434  47.404  0.00  0.00    +0.000 C 
ATOM     32  C   UNL     1      40.420 -47.149  45.993  0.00  0.00    +0.000 C 
ATOM     33  C   UNL     1      43.973 -47.503  51.996  0.00  0.00    +0.000 C 
ATOM     34  C   UNL     1      41.748 -46.656  51.153  0.00  0.00    +0.000 C 
ATOM     35  C   UNL     1      44.866 -47.986  51.051  0.00  0.00    +0.000 C 
ATOM     36  C   UNL     1      47.542 -49.265  47.348  0.00  0.00    +0.000 C 
ATOM     37  C   UNL     1      39.271 -44.976  46.512  0.00  0.00    +0.000 C 
ATOM     38  C   UNL     1      44.245 -39.278  41.747  0.00  0.00    +0.000 A 
ATOM     39  C   UNL     1      47.980 -44.926  48.550  0.00  0.00    +0.000 C 
ATOM     40  C   UNL     1      47.815 -39.303  42.410  0.00  0.00    +0.000 C 
ATOM     41  C   UNL     1      41.690 -41.904  41.980  0.00  0.00    +0.000 C 
ATOM     42  C   UNL     1      50.242 -45.330  47.823  0.00  0.00    +0.000 C 
ATOM     43  C   UNL     1      43.494 -38.067  41.645  0.00  0.00    +0.000 A 
ATOM     44  C   UNL     1      48.932 -38.551  41.198  0.00  0.00    +0.000 C 
ATOM     45  C   UNL     1      47.510 -43.645  47.950  0.00  0.00    +0.000 C 
ATOM     46  C   UNL     1      40.931 -41.485  40.750  0.00  0.00    +0.000 C 
ATOM     47  C   UNL     1      38.137 -45.755  46.891  0.00  0.00    +0.000 C 
ATOM     48  C   UNL     1      45.577 -38.898  41.619  0.00  0.00    +0.000 A 
ATOM     49  C   UNL     1      39.436 -43.648  46.733  0.00  0.00    +0.000 C 
ATOM     50  C   UNL     1      42.679 -41.050  41.519  0.00  0.00    +0.000 C 
ATOM     51  C   UNL     1      48.133 -39.485  43.736  0.00  0.00    +0.000 C 
ATOM     52  C   UNL     1      40.567 -42.472  44.893  0.00  0.00    +0.000 C 
ATOM     53  C   UNL     1      42.010 -37.856  41.788  0.00  0.00    +0.000 C 
ATOM     54  C   UNL     1      44.387 -37.038  41.496  0.00  0.00    +0.000 A 
ATOM     55  C   UNL     1      40.371 -42.145  43.527  0.00  0.00    +0.000 C 
ATOM     56  C   UNL     1      47.531 -40.562  45.769  0.00  0.00    +0.000 C 
ATOM     57  C   UNL     1      47.561 -43.623  49.317  0.00  0.00    +0.000 C 
ATOM     58  C   UNL     1      47.721 -39.062  40.807  0.00  0.00    +0.000 C 
ATOM     59  C   UNL     1      37.721 -46.877  46.958  0.00  0.00    +0.000 C 
ATOM     60  C   UNL     1      47.556 -41.596  46.877  0.00  0.00    +0.000 C 
ATOM     61  C   UNL     1      39.889 -40.611  42.223  0.00  0.00    +0.000 C 
ATOM     62  C   UNL     1      39.625 -42.145  47.012  0.00  0.00    +0.000 C 
ATOM     63  C   UNL     1      47.941 -40.049  46.954  0.00  0.00    +0.000 C 
ATOM     64  H   UNL     1      41.211 -45.299  46.164  0.00  0.00    +0.000 HD
ATOM     65  H   UNL     1      44.283 -41.067  42.717  0.00  0.00    +0.000 HD
ATOM     66  H   UNL     1      47.365 -43.383  45.992  0.00  0.00    +0.000 HD
ATOM     67  H   UNL     1      46.821 -40.964  43.944  0.00  0.00    +0.000 HD
ATOM     68  C   UNL     1      40.297 -48.574  47.792  0.00  0.00    +0.000 C 
ATOM     69  C   UNL     1      38.915 -48.907  47.717  0.00  0.00    +0.000 C 
ATOM     70  C   UNL     1      38.302 -48.141  46.614  0.00  0.00    +0.000 C 
ATOM     71  C   UNL     1      45.520 -50.717  47.364  0.00  0.00    +0.000 C 
ATOM     72  C   UNL     1      44.613 -51.343  46.616  0.00  0.00    +0.000 C 
ATOM     73  C   UNL     1      46.879 -50.422  47.222  0.00  0.00    +0.000 C 
ATOM     74  C   UNL     1      50.278 -46.694  48.247  0.00  0.00    +0.000 C 
ATOM     75  C   UNL     1      51.198 -45.850  48.854  0.00  0.00    +0.000 C 
ATOM     76  C   UNL     1      52.715 -46.014  48.621  0.00  0.00    +0.000 C 
ATOM     77  C   UNL     1      50.826 -44.522  48.780  0.00  0.00    +0.000 C 
ATOM     78  C   UNL     1      39.583 -41.733  39.924  0.00  0.00    +0.000 C 
ATOM     79  C   UNL     1      39.241 -41.653  38.640  0.00  0.00    +0.000 C 
ATOM     80  C   UNL     1      39.262 -41.020  41.080  0.00  0.00    +0.000 C 
ATOM     81  C   UNL     1      50.013 -38.156  41.875  0.00  0.00    +0.000 C 
ATOM     82  C   UNL     1      51.172 -37.492  41.208  0.00  0.00    +0.000 C 
ATOM     83  C   UNL     1      50.005 -38.431  43.264  0.00  0.00    +0.000 C 
ENDROOT
BRANCH  69  84
ATOM     84  C   UNL     1      38.150 -49.517  48.739  0.00  0.00    +0.000 C 
ATOM     85  C   UNL     1      37.497 -50.040  49.601  0.00  0.00    +0.000 C 
BRANCH  85  86
ATOM     86  C   UNL     1      36.661 -50.710  50.696  0.00  0.00    +0.000 C 
ATOM     87  C   UNL     1      35.936 -51.297  51.647  0.00  0.00    +0.000 C 
ENDBRANCH  85  86
ENDBRANCH  69  84
BRANCH  13  88
ATOM     88  C   UNL     1      43.318 -46.857  46.790  0.00  0.00    +0.000 C 
BRANCH  88  89
ATOM     89  O   UNL     1      44.236 -46.420  45.938  0.00  0.00    +0.000 OA
ATOM     90  H   UNL     1      43.877 -46.420  45.033  0.00  0.00    +0.000 HD
ENDBRANCH  88  89
ENDBRANCH  13  88
TORSDOF 4
ENDMDL
MODEL 9
REMARK VINA RESULT:      -8.8     20.889     26.758
REMARK  Name = Cyclosporin_A.pdbqt.pdb
REMARK  4 active torsions:
REMARK  status: ('A' for Active; 'I' for Inactive)
REMARK    1  A    between atoms: N_13  and  C_36
REMARK    2  A    between atoms: C_36  and  O_70
REMARK    3  A    between atoms: C_72  and  C_73
REMARK    4  A    between atoms: C_75  and  C_76
REMARK                            x       y       z     vdW  Elec       q    Type
REMARK                         _______ _______ _______ _____ _____    ______ ____
ROOT
ATOM      1  O   UNL     1      63.700 -53.658  64.206  0.00  0.00    +0.000 OA
ATOM      2  O   UNL     1      60.861 -51.755  60.381  0.00  0.00    +0.000 OA
ATOM      3  O   UNL     1      58.906 -47.919  62.476  0.00  0.00    +0.000 OA
ATOM      4  O   UNL     1      62.087 -53.187  68.808  0.00  0.00    +0.000 OA
ATOM      5  O   UNL     1      63.219 -48.329  59.838  0.00  0.00    +0.000 OA
ATOM      6  O   UNL     1      67.920 -41.783  67.721  0.00  0.00    +0.000 OA
ATOM      7  O   UNL     1      67.506 -52.344  67.799  0.00  0.00    +0.000 OA
ATOM      8  O   UNL     1      65.966 -45.014  70.885  0.00  0.00    +0.000 OA
ATOM      9  O   UNL     1      66.146 -41.558  63.218  0.00  0.00    +0.000 OA
ATOM     10  O   UNL     1      67.190 -48.925  70.602  0.00  0.00    +0.000 OA
ATOM     11  O   UNL     1      66.089 -45.416  61.291  0.00  0.00    +0.000 OA
ATOM     12  N   UNL     1      61.490 -51.906  62.207  0.00  0.00    +0.000 NA
ATOM     13  N   UNL     1      62.171 -52.107  65.227  0.00  0.00    +0.000 NA
ATOM     14  N   UNL     1      59.678 -49.365  61.357  0.00  0.00    +0.000 NA
ATOM     15  N   UNL     1      61.546 -46.805  61.095  0.00  0.00    +0.000 NA
ATOM     16  N   UNL     1      63.764 -51.705  67.838  0.00  0.00    +0.000 NA
ATOM     17  N   UNL     1      65.694 -42.033  66.996  0.00  0.00    +0.000 N 
ATOM     18  N   UNL     1      66.014 -44.690  68.567  0.00  0.00    +0.000 N 
ATOM     19  N   UNL     1      66.700 -47.344  69.528  0.00  0.00    +0.000 NA
ATOM     20  N   UNL     1      66.464 -50.376  67.333  0.00  0.00    +0.000 NA
ATOM     21  N   UNL     1      64.084 -46.188  62.535  0.00  0.00    +0.000 NA
ATOM     22  N   UNL     1      65.732 -43.653  64.346  0.00  0.00    +0.000 NA
ATOM     23  C   UNL     1      62.651 -52.411  62.715  0.00  0.00    +0.000 C 
ATOM     24  C   UNL     1      60.357 -50.132  62.214  0.00  0.00    +0.000 C 
ATOM     25  C   UNL     1      62.011 -52.792  66.416  0.00  0.00    +0.000 C 
ATOM     26  C   UNL     1      63.461 -53.296  62.027  0.00  0.00    +0.000 C 
ATOM     27  C   UNL     1      59.268 -50.309  63.201  0.00  0.00    +0.000 C 
ATOM     28  C   UNL     1      62.766 -52.627  64.073  0.00  0.00    +0.000 C 
ATOM     29  C   UNL     1      61.029 -50.926  61.347  0.00  0.00    +0.000 C 
ATOM     30  C   UNL     1      60.597 -47.609  60.704  0.00  0.00    +0.000 C 
ATOM     31  C   UNL     1      59.994 -48.146  61.803  0.00  0.00    +0.000 C 
ATOM     32  C   UNL     1      62.490 -52.304  67.745  0.00  0.00    +0.000 C 
ATOM     33  C   UNL     1      62.654 -53.530  60.871  0.00  0.00    +0.000 C 
ATOM     34  C   UNL     1      63.948 -54.166  62.945  0.00  0.00    +0.000 C 
ATOM     35  C   UNL     1      61.638 -52.599  61.020  0.00  0.00    +0.000 C 
ATOM     36  C   UNL     1      58.492 -49.225  62.127  0.00  0.00    +0.000 C 
ATOM     37  C   UNL     1      64.979 -52.396  68.073  0.00  0.00    +0.000 C 
ATOM     38  C   UNL     1      66.935 -43.681  68.450  0.00  0.00    +0.000 A 
ATOM     39  C   UNL     1      62.549 -47.652  60.891  0.00  0.00    +0.000 C 
ATOM     40  C   UNL     1      65.849 -41.658  65.638  0.00  0.00    +0.000 C 
ATOM     41  C   UNL     1      65.561 -46.740  69.944  0.00  0.00    +0.000 C 
ATOM     42  C   UNL     1      61.185 -45.882  59.988  0.00  0.00    +0.000 C 
ATOM     43  C   UNL     1      68.248 -43.581  69.003  0.00  0.00    +0.000 A 
ATOM     44  C   UNL     1      65.776 -39.858  65.834  0.00  0.00    +0.000 C 
ATOM     45  C   UNL     1      63.683 -47.041  61.643  0.00  0.00    +0.000 C 
ATOM     46  C   UNL     1      65.847 -46.353  71.370  0.00  0.00    +0.000 C 
ATOM     47  C   UNL     1      64.792 -53.738  68.523  0.00  0.00    +0.000 C 
ATOM     48  C   UNL     1      66.768 -42.532  67.684  0.00  0.00    +0.000 A 
ATOM     49  C   UNL     1      66.168 -51.809  67.788  0.00  0.00    +0.000 C 
ATOM     50  C   UNL     1      65.841 -45.415  69.650  0.00  0.00    +0.000 C 
ATOM     51  C   UNL     1      65.956 -42.292  64.422  0.00  0.00    +0.000 C 
ATOM     52  C   UNL     1      66.288 -49.445  68.451  0.00  0.00    +0.000 C 
ATOM     53  C   UNL     1      68.999 -44.573  69.850  0.00  0.00    +0.000 C 
ATOM     54  C   UNL     1      68.808 -42.422  68.531  0.00  0.00    +0.000 A 
ATOM     55  C   UNL     1      66.255 -48.638  69.618  0.00  0.00    +0.000 C 
ATOM     56  C   UNL     1      65.794 -44.365  63.268  0.00  0.00    +0.000 C 
ATOM     57  C   UNL     1      64.078 -47.787  60.566  0.00  0.00    +0.000 C 
ATOM     58  C   UNL     1      65.634 -40.684  66.920  0.00  0.00    +0.000 C 
ATOM     59  C   UNL     1      63.958 -54.568  68.750  0.00  0.00    +0.000 C 
ATOM     60  C   UNL     1      65.183 -45.459  62.414  0.00  0.00    +0.000 C 
ATOM     61  C   UNL     1      67.416 -47.514  70.912  0.00  0.00    +0.000 C 
ATOM     62  C   UNL     1      67.520 -51.159  67.440  0.00  0.00    +0.000 C 
ATOM     63  C   UNL     1      66.448 -44.539  62.094  0.00  0.00    +0.000 C 
ATOM     64  H   UNL     1      63.909 -51.027  67.089  0.00  0.00    +0.000 HD
ATOM     65  H   UNL     1      65.606 -45.029  67.699  0.00  0.00    +0.000 HD
ATOM     66  H   UNL     1      63.403 -45.888  63.228  0.00  0.00    +0.000 HD
ATOM     67  H   UNL     1      65.160 -43.973  65.123  0.00  0.00    +0.000 HD
ATOM     68  C   UNL     1      61.782 -54.076  66.464  0.00  0.00    +0.000 C 
ATOM     69  C   UNL     1      61.949 -55.120  67.416  0.00  0.00    +0.000 C 
ATOM     70  C   UNL     1      62.529 -54.550  68.648  0.00  0.00    +0.000 C 
ATOM     71  C   UNL     1      57.914 -51.263  63.433  0.00  0.00    +0.000 C 
ATOM     72  C   UNL     1      57.459 -51.729  64.595  0.00  0.00    +0.000 C 
ATOM     73  C   UNL     1      57.658 -50.126  62.661  0.00  0.00    +0.000 C 
ATOM     74  C   UNL     1      60.080 -46.723  59.652  0.00  0.00    +0.000 C 
ATOM     75  C   UNL     1      60.683 -46.068  58.587  0.00  0.00    +0.000 C 
ATOM     76  C   UNL     1      59.936 -44.980  57.787  0.00  0.00    +0.000 C 
ATOM     77  C   UNL     1      61.976 -45.674  58.873  0.00  0.00    +0.000 C 
ATOM     78  C   UNL     1      65.861 -46.901  72.874  0.00  0.00    +0.000 C 
ATOM     79  C   UNL     1      65.683 -46.353  74.073  0.00  0.00    +0.000 C 
ATOM     80  C   UNL     1      66.942 -47.463  72.193  0.00  0.00    +0.000 C 
ATOM     81  C   UNL     1      65.944 -39.338  64.616  0.00  0.00    +0.000 C 
ATOM     82  C   UNL     1      65.936 -37.865  64.371  0.00  0.00    +0.000 C 
ATOM     83  C   UNL     1      66.102 -40.271  63.563  0.00  0.00    +0.000 C 
ENDROOT
BRANCH  69  84
ATOM     84  C   UNL     1      61.969 -56.507  67.136  0.00  0.00    +0.000 C 
ATOM     85  C   UNL     1      61.991 -57.685  66.905  0.00  0.00    +0.000 C 
BRANCH  85  86
ATOM     86  C   UNL     1      62.022 -59.189  66.613  0.00  0.00    +0.000 C 
ATOM     87  C   UNL     1      62.047 -60.496  66.355  0.00  0.00    +0.000 C 
ENDBRANCH  85  86
ENDBRANCH  69  84
BRANCH  13  88
ATOM     88  C   UNL     1      61.961 -50.669  65.262  0.00  0.00    +0.000 C 
BRANCH  88  89
ATOM     89  O   UNL     1      61.784 -49.356  65.314  0.00  0.00    +0.000 OA
ATOM     90  H   UNL     1      60.915 -49.122  64.943  0.00  0.00    +0.000 HD
ENDBRANCH  88  89
ENDBRANCH  13  88
TORSDOF 4
ENDMDL
