MODEL 1
REMARK VINA RESULT:      -6.7      0.000      0.000
REMARK  Name = Danazol.pdbqt.pdb
REMARK  2 active torsions:
REMARK  status: ('A' for Active; 'I' for Inactive)
REMARK    1  A    between atoms: C_9  and  O_23
REMARK    2  A    between atoms: C_9  and  C_25
REMARK                            x       y       z     vdW  Elec       q    Type
REMARK                         _______ _______ _______ _____ _____    ______ ____
ROOT
ATOM      1  O   UNL     1      41.811 -47.363  50.366  0.00  0.00    +0.000 OA
ATOM      2  N   UNL     1      41.542 -46.096  50.925  0.00  0.00    +0.000 NA
ATOM      3  C   UNL     1      49.350 -48.231  49.769  0.00  0.00    +0.000 C 
ATOM      4  C   UNL     1      50.284 -47.137  50.508  0.00  0.00    +0.000 C 
ATOM      5  C   UNL     1      47.981 -48.548  50.218  0.00  0.00    +0.000 C 
ATOM      6  C   UNL     1      47.208 -47.829  51.290  0.00  0.00    +0.000 C 
ATOM      7  C   UNL     1      45.828 -48.287  51.818  0.00  0.00    +0.000 C 
ATOM      8  C   UNL     1      49.384 -46.434  51.434  0.00  0.00    +0.000 C 
ATOM      9  C   UNL     1      50.885 -46.247  49.279  0.00  0.00    +0.000 C 
ATOM     10  C   UNL     1      47.961 -46.748  51.825  0.00  0.00    +0.000 C 
ATOM     11  C   UNL     1      49.718 -48.308  48.395  0.00  0.00    +0.000 C 
ATOM     12  C   UNL     1      47.202 -49.528  49.561  0.00  0.00    +0.000 C 
ATOM     13  C   UNL     1      50.638 -47.152  48.136  0.00  0.00    +0.000 C 
ATOM     14  C   UNL     1      44.981 -49.277  50.789  0.00  0.00    +0.000 C 
ATOM     15  C   UNL     1      51.365 -47.961  51.299  0.00  0.00    +0.000 C 
ATOM     16  C   UNL     1      45.770 -49.907  49.796  0.00  0.00    +0.000 C 
ATOM     17  C   UNL     1      44.923 -47.096  51.996  0.00  0.00    +0.000 C 
ATOM     18  C   UNL     1      46.017 -49.067  53.150  0.00  0.00    +0.000 C 
ATOM     19  C   UNL     1      43.768 -48.887  50.464  0.00  0.00    +0.000 C 
ATOM     20  C   UNL     1      43.610 -46.756  51.559  0.00  0.00    +0.000 A 
ATOM     21  C   UNL     1      43.037 -47.716  50.770  0.00  0.00    +0.000 A 
ATOM     22  C   UNL     1      42.638 -45.763  51.640  0.00  0.00    +0.000 A 
ENDROOT
BRANCH   9  23
ATOM     23  O   UNL     1      52.292 -45.971  49.364  0.00  0.00    +0.000 OA
ATOM     24  H   UNL     1      52.729 -46.771  49.704  0.00  0.00    +0.000 HD
ENDBRANCH   9  23
BRANCH   9  25
ATOM     25  C   UNL     1      50.142 -44.973  49.124  0.00  0.00    +0.000 C 
ATOM     26  C   UNL     1      49.529 -43.951  49.023  0.00  0.00    +0.000 C 
ENDBRANCH   9  25
TORSDOF 2
ENDMDL
MODEL 2
REMARK VINA RESULT:      -6.3     15.413     17.819
REMARK  Name = Danazol.pdbqt.pdb
REMARK  2 active torsions:
REMARK  status: ('A' for Active; 'I' for Inactive)
REMARK    1  A    between atoms: C_9  and  O_23
REMARK    2  A    between atoms: C_9  and  C_25
REMARK                            x       y       z     vdW  Elec       q    Type
REMARK                         _______ _______ _______ _____ _____    ______ ____
ROOT
ATOM      1  O   UNL     1      64.137 -44.717  60.066  0.00  0.00    +0.000 OA
ATOM      2  N   UNL     1      64.958 -45.046  61.165  0.00  0.00    +0.000 NA
ATOM      3  C   UNL     1      58.963 -50.221  59.131  0.00  0.00    +0.000 C 
ATOM      4  C   UNL     1      58.832 -51.324  60.307  0.00  0.00    +0.000 C 
ATOM      5  C   UNL     1      59.456 -48.851  59.371  0.00  0.00    +0.000 C 
ATOM      6  C   UNL     1      60.037 -48.328  60.657  0.00  0.00    +0.000 C 
ATOM      7  C   UNL     1      60.413 -46.846  60.897  0.00  0.00    +0.000 C 
ATOM      8  C   UNL     1      59.538 -50.738  61.456  0.00  0.00    +0.000 C 
ATOM      9  C   UNL     1      59.504 -52.662  59.658  0.00  0.00    +0.000 C 
ATOM     10  C   UNL     1      60.089 -49.347  61.646  0.00  0.00    +0.000 C 
ATOM     11  C   UNL     1      59.185 -50.884  57.891  0.00  0.00    +0.000 C 
ATOM     12  C   UNL     1      59.535 -47.906  58.323  0.00  0.00    +0.000 C 
ATOM     13  C   UNL     1      59.474 -52.318  58.221  0.00  0.00    +0.000 C 
ATOM     14  C   UNL     1      60.666 -45.958  59.518  0.00  0.00    +0.000 C 
ATOM     15  C   UNL     1      57.293 -51.453  60.604  0.00  0.00    +0.000 C 
ATOM     16  C   UNL     1      60.105 -46.519  58.345  0.00  0.00    +0.000 C 
ATOM     17  C   UNL     1      61.729 -46.760  61.626  0.00  0.00    +0.000 C 
ATOM     18  C   UNL     1      59.273 -46.147  61.690  0.00  0.00    +0.000 C 
ATOM     19  C   UNL     1      61.824 -45.341  59.419  0.00  0.00    +0.000 C 
ATOM     20  C   UNL     1      62.958 -46.074  61.405  0.00  0.00    +0.000 A 
ATOM     21  C   UNL     1      62.967 -45.340  60.251  0.00  0.00    +0.000 A 
ATOM     22  C   UNL     1      64.219 -45.856  61.953  0.00  0.00    +0.000 A 
ENDROOT
BRANCH   9  23
ATOM     23  O   UNL     1      58.762 -53.873  59.868  0.00  0.00    +0.000 OA
ATOM     24  H   UNL     1      57.821 -53.634  59.932  0.00  0.00    +0.000 HD
ENDBRANCH   9  23
BRANCH   9  25
ATOM     25  C   UNL     1      60.896 -52.850  60.136  0.00  0.00    +0.000 C 
ATOM     26  C   UNL     1      62.026 -53.001  60.494  0.00  0.00    +0.000 C 
ENDBRANCH   9  25
TORSDOF 2
ENDMDL
MODEL 3
REMARK VINA RESULT:      -6.2     15.303     17.302
REMARK  Name = Danazol.pdbqt.pdb
REMARK  2 active torsions:
REMARK  status: ('A' for Active; 'I' for Inactive)
REMARK    1  A    between atoms: C_9  and  O_23
REMARK    2  A    between atoms: C_9  and  C_25
REMARK                            x       y       z     vdW  Elec       q    Type
REMARK                         _______ _______ _______ _____ _____    ______ ____
ROOT
ATOM      1  O   UNL     1      59.768 -53.779  62.629  0.00  0.00    +0.000 OA
ATOM      2  N   UNL     1      60.030 -54.599  61.512  0.00  0.00    +0.000 NA
ATOM      3  C   UNL     1      60.849 -46.510  60.646  0.00  0.00    +0.000 C 
ATOM      4  C   UNL     1      61.043 -46.190  59.072  0.00  0.00    +0.000 C 
ATOM      5  C   UNL     1      60.102 -47.683  61.137  0.00  0.00    +0.000 C 
ATOM      6  C   UNL     1      59.559 -48.807  60.297  0.00  0.00    +0.000 C 
ATOM      7  C   UNL     1      58.665 -49.945  60.846  0.00  0.00    +0.000 C 
ATOM      8  C   UNL     1      60.587 -47.405  58.380  0.00  0.00    +0.000 C 
ATOM      9  C   UNL     1      62.633 -45.845  58.941  0.00  0.00    +0.000 C 
ATOM     10  C   UNL     1      59.881 -48.622  58.925  0.00  0.00    +0.000 C 
ATOM     11  C   UNL     1      61.950 -45.972  61.371  0.00  0.00    +0.000 C 
ATOM     12  C   UNL     1      59.933 -47.918  62.521  0.00  0.00    +0.000 C 
ATOM     13  C   UNL     1      62.972 -45.564  60.352  0.00  0.00    +0.000 C 
ATOM     14  C   UNL     1      58.775 -50.190  62.484  0.00  0.00    +0.000 C 
ATOM     15  C   UNL     1      60.090 -44.980  58.760  0.00  0.00    +0.000 C 
ATOM     16  C   UNL     1      59.310 -49.096  63.209  0.00  0.00    +0.000 C 
ATOM     17  C   UNL     1      59.090 -51.264  60.257  0.00  0.00    +0.000 C 
ATOM     18  C   UNL     1      57.175 -49.630  60.530  0.00  0.00    +0.000 C 
ATOM     19  C   UNL     1      59.083 -51.406  62.878  0.00  0.00    +0.000 C 
ATOM     20  C   UNL     1      59.444 -52.538  60.790  0.00  0.00    +0.000 A 
ATOM     21  C   UNL     1      59.421 -52.575  62.158  0.00  0.00    +0.000 A 
ATOM     22  C   UNL     1      59.820 -53.826  60.424  0.00  0.00    +0.000 A 
ENDROOT
BRANCH   9  23
ATOM     23  O   UNL     1      62.936 -44.688  58.146  0.00  0.00    +0.000 OA
ATOM     24  H   UNL     1      63.130 -44.994  57.243  0.00  0.00    +0.000 HD
ENDBRANCH   9  23
BRANCH   9  25
ATOM     25  C   UNL     1      63.396 -47.009  58.427  0.00  0.00    +0.000 C 
ATOM     26  C   UNL     1      64.033 -47.935  58.021  0.00  0.00    +0.000 C 
ENDBRANCH   9  25
TORSDOF 2
ENDMDL
MODEL 4
REMARK VINA RESULT:      -6.2      7.382      9.757
REMARK  Name = Danazol.pdbqt.pdb
REMARK  2 active torsions:
REMARK  status: ('A' for Active; 'I' for Inactive)
REMARK    1  A    between atoms: C_9  and  O_23
REMARK    2  A    between atoms: C_9  and  C_25
REMARK                            x       y       z     vdW  Elec       q    Type
REMARK                         _______ _______ _______ _____ _____    ______ ____
ROOT
ATOM      1  O   UNL     1      49.795 -58.578  56.832  0.00  0.00    +0.000 OA
ATOM      2  N   UNL     1      48.717 -58.979  57.648  0.00  0.00    +0.000 NA
ATOM      3  C   UNL     1      47.910 -52.118  53.273  0.00  0.00    +0.000 C 
ATOM      4  C   UNL     1      46.568 -51.363  53.767  0.00  0.00    +0.000 C 
ATOM      5  C   UNL     1      48.702 -53.000  54.153  0.00  0.00    +0.000 C 
ATOM      6  C   UNL     1      48.323 -53.444  55.540  0.00  0.00    +0.000 C 
ATOM      7  C   UNL     1      49.252 -54.257  56.473  0.00  0.00    +0.000 C 
ATOM      8  C   UNL     1      46.248 -51.971  55.067  0.00  0.00    +0.000 C 
ATOM      9  C   UNL     1      45.502 -51.642  52.563  0.00  0.00    +0.000 C 
ATOM     10  C   UNL     1      47.054 -52.923  55.915  0.00  0.00    +0.000 C 
ATOM     11  C   UNL     1      47.828 -52.349  51.871  0.00  0.00    +0.000 C 
ATOM     12  C   UNL     1      49.883 -53.625  53.694  0.00  0.00    +0.000 C 
ATOM     13  C   UNL     1      46.415 -52.038  51.471  0.00  0.00    +0.000 C 
ATOM     14  C   UNL     1      50.461 -55.091  55.699  0.00  0.00    +0.000 C 
ATOM     15  C   UNL     1      46.966 -49.852  53.941  0.00  0.00    +0.000 C 
ATOM     16  C   UNL     1      50.752 -54.628  54.392  0.00  0.00    +0.000 C 
ATOM     17  C   UNL     1      48.465 -55.334  57.172  0.00  0.00    +0.000 C 
ATOM     18  C   UNL     1      49.935 -53.296  57.487  0.00  0.00    +0.000 C 
ATOM     19  C   UNL     1      50.524 -56.384  55.928  0.00  0.00    +0.000 C 
ATOM     20  C   UNL     1      48.607 -56.743  57.330  0.00  0.00    +0.000 A 
ATOM     21  C   UNL     1      49.694 -57.253  56.675  0.00  0.00    +0.000 A 
ATOM     22  C   UNL     1      48.027 -57.854  57.935  0.00  0.00    +0.000 A 
ENDROOT
BRANCH   9  23
ATOM     23  O   UNL     1      44.744 -50.495  52.149  0.00  0.00    +0.000 OA
ATOM     24  H   UNL     1      44.668 -50.526  51.180  0.00  0.00    +0.000 HD
ENDBRANCH   9  23
BRANCH   9  25
ATOM     25  C   UNL     1      44.573 -52.745  52.912  0.00  0.00    +0.000 C 
ATOM     26  C   UNL     1      43.808 -53.625  53.174  0.00  0.00    +0.000 C 
ENDBRANCH   9  25
TORSDOF 2
ENDMDL
MODEL 5
REMARK VINA RESULT:      -6.2     15.019     18.019
REMARK  Name = Danazol.pdbqt.pdb
REMARK  2 active torsions:
REMARK  status: ('A' for Active; 'I' for Inactive)
REMARK    1  A    between atoms: C_9  and  O_23
REMARK    2  A    between atoms: C_9  and  C_25
REMARK                            x       y       z     vdW  Elec       q    Type
REMARK                         _______ _______ _______ _____ _____    ______ ____
ROOT
ATOM      1  O   UNL     1      58.099 -49.819  60.717  0.00  0.00    +0.000 OA
ATOM      2  N   UNL     1      58.180 -50.775  59.682  0.00  0.00    +0.000 NA
ATOM      3  C   UNL     1      64.022 -45.073  60.138  0.00  0.00    +0.000 C 
ATOM      4  C   UNL     1      64.916 -45.161  58.793  0.00  0.00    +0.000 C 
ATOM      5  C   UNL     1      62.601 -45.467  60.182  0.00  0.00    +0.000 C 
ATOM      6  C   UNL     1      61.829 -46.132  59.075  0.00  0.00    +0.000 C 
ATOM      7  C   UNL     1      60.306 -46.401  59.122  0.00  0.00    +0.000 C 
ATOM      8  C   UNL     1      64.096 -45.929  57.844  0.00  0.00    +0.000 C 
ATOM      9  C   UNL     1      66.296 -45.876  59.291  0.00  0.00    +0.000 C 
ATOM     10  C   UNL     1      62.659 -46.374  57.947  0.00  0.00    +0.000 C 
ATOM     11  C   UNL     1      64.870 -45.221  61.273  0.00  0.00    +0.000 C 
ATOM     12  C   UNL     1      61.845 -45.354  61.371  0.00  0.00    +0.000 C 
ATOM     13  C   UNL     1      66.204 -45.667  60.751  0.00  0.00    +0.000 C 
ATOM     14  C   UNL     1      59.649 -46.431  60.646  0.00  0.00    +0.000 C 
ATOM     15  C   UNL     1      65.097 -43.679  58.301  0.00  0.00    +0.000 C 
ATOM     16  C   UNL     1      60.439 -45.801  61.640  0.00  0.00    +0.000 C 
ATOM     17  C   UNL     1      60.008 -47.773  58.576  0.00  0.00    +0.000 C 
ATOM     18  C   UNL     1      59.561 -45.293  58.325  0.00  0.00    +0.000 C 
ATOM     19  C   UNL     1      58.981 -47.514  60.978  0.00  0.00    +0.000 C 
ATOM     20  C   UNL     1      59.286 -48.908  59.047  0.00  0.00    +0.000 A 
ATOM     21  C   UNL     1      58.760 -48.734  60.298  0.00  0.00    +0.000 A 
ATOM     22  C   UNL     1      58.893 -50.195  58.693  0.00  0.00    +0.000 A 
ENDROOT
BRANCH   9  23
ATOM     23  O   UNL     1      67.502 -45.267  58.804  0.00  0.00    +0.000 OA
ATOM     24  H   UNL     1      67.860 -45.842  58.105  0.00  0.00    +0.000 HD
ENDBRANCH   9  23
BRANCH   9  25
ATOM     25  C   UNL     1      66.304 -47.321  58.956  0.00  0.00    +0.000 C 
ATOM     26  C   UNL     1      66.329 -48.490  58.706  0.00  0.00    +0.000 C 
ENDBRANCH   9  25
TORSDOF 2
ENDMDL
MODEL 6
REMARK VINA RESULT:      -6.2      2.269      3.196
REMARK  Name = Danazol.pdbqt.pdb
REMARK  2 active torsions:
REMARK  status: ('A' for Active; 'I' for Inactive)
REMARK    1  A    between atoms: C_9  and  O_23
REMARK    2  A    between atoms: C_9  and  C_25
REMARK                            x       y       z     vdW  Elec       q    Type
REMARK                         _______ _______ _______ _____ _____    ______ ____
ROOT
ATOM      1  O   UNL     1      44.601 -51.361  51.563  0.00  0.00    +0.000 OA
ATOM      2  N   UNL     1      43.459 -51.133  50.767  0.00  0.00    +0.000 NA
ATOM      3  C   UNL     1      49.825 -46.068  49.938  0.00  0.00    +0.000 C 
ATOM      4  C   UNL     1      49.357 -44.818  49.026  0.00  0.00    +0.000 C 
ATOM      5  C   UNL     1      48.891 -46.835  50.785  0.00  0.00    +0.000 C 
ATOM      6  C   UNL     1      47.394 -46.688  50.816  0.00  0.00    +0.000 C 
ATOM      7  C   UNL     1      46.473 -47.420  51.820  0.00  0.00    +0.000 C 
ATOM      8  C   UNL     1      47.887 -44.863  49.048  0.00  0.00    +0.000 C 
ATOM      9  C   UNL     1      50.061 -45.107  47.582  0.00  0.00    +0.000 C 
ATOM     10  C   UNL     1      46.957 -45.708  49.882  0.00  0.00    +0.000 C 
ATOM     11  C   UNL     1      50.962 -46.682  49.341  0.00  0.00    +0.000 C 
ATOM     12  C   UNL     1      49.341 -47.908  51.588  0.00  0.00    +0.000 C 
ATOM     13  C   UNL     1      51.098 -46.086  47.971  0.00  0.00    +0.000 C 
ATOM     14  C   UNL     1      47.127 -48.786  52.499  0.00  0.00    +0.000 C 
ATOM     15  C   UNL     1      49.886 -43.531  49.757  0.00  0.00    +0.000 C 
ATOM     16  C   UNL     1      48.539 -48.865  52.419  0.00  0.00    +0.000 C 
ATOM     17  C   UNL     1      45.241 -47.926  51.115  0.00  0.00    +0.000 C 
ATOM     18  C   UNL     1      46.110 -46.457  52.986  0.00  0.00    +0.000 C 
ATOM     19  C   UNL     1      46.435 -49.897  52.372  0.00  0.00    +0.000 C 
ATOM     20  C   UNL     1      44.586 -49.188  51.012  0.00  0.00    +0.000 A 
ATOM     21  C   UNL     1      45.233 -50.187  51.686  0.00  0.00    +0.000 A 
ATOM     22  C   UNL     1      43.476 -49.818  50.458  0.00  0.00    +0.000 A 
ENDROOT
BRANCH   9  23
ATOM     23  O   UNL     1      50.692 -43.967  46.979  0.00  0.00    +0.000 OA
ATOM     24  H   UNL     1      50.262 -43.170  47.334  0.00  0.00    +0.000 HD
ENDBRANCH   9  23
BRANCH   9  25
ATOM     25  C   UNL     1      49.097 -45.701  46.623  0.00  0.00    +0.000 C 
ATOM     26  C   UNL     1      48.338 -46.173  45.830  0.00  0.00    +0.000 C 
ENDBRANCH   9  25
TORSDOF 2
ENDMDL
MODEL 7
REMARK VINA RESULT:      -6.0     14.951     18.306
REMARK  Name = Danazol.pdbqt.pdb
REMARK  2 active torsions:
REMARK  status: ('A' for Active; 'I' for Inactive)
REMARK    1  A    between atoms: C_9  and  O_23
REMARK    2  A    between atoms: C_9  and  C_25
REMARK                            x       y       z     vdW  Elec       q    Type
REMARK                         _______ _______ _______ _____ _____    ______ ____
ROOT
ATOM      1  O   UNL     1      64.069 -44.766  57.659  0.00  0.00    +0.000 OA
ATOM      2  N   UNL     1      64.693 -45.657  56.759  0.00  0.00    +0.000 NA
ATOM      3  C   UNL     1      59.012 -48.633  61.832  0.00  0.00    +0.000 C 
ATOM      4  C   UNL     1      59.047 -50.247  61.733  0.00  0.00    +0.000 C 
ATOM      5  C   UNL     1      60.196 -47.790  61.575  0.00  0.00    +0.000 C 
ATOM      6  C   UNL     1      61.526 -48.260  61.052  0.00  0.00    +0.000 C 
ATOM      7  C   UNL     1      62.776 -47.358  60.930  0.00  0.00    +0.000 C 
ATOM      8  C   UNL     1      60.338 -50.560  61.102  0.00  0.00    +0.000 C 
ATOM      9  C   UNL     1      57.716 -50.610  60.860  0.00  0.00    +0.000 C 
ATOM     10  C   UNL     1      61.508 -49.658  60.794  0.00  0.00    +0.000 C 
ATOM     11  C   UNL     1      57.696 -48.175  61.538  0.00  0.00    +0.000 C 
ATOM     12  C   UNL     1      60.133 -46.383  61.694  0.00  0.00    +0.000 C 
ATOM     13  C   UNL     1      56.946 -49.356  60.995  0.00  0.00    +0.000 C 
ATOM     14  C   UNL     1      62.460 -45.730  60.878  0.00  0.00    +0.000 C 
ATOM     15  C   UNL     1      59.010 -50.768  63.216  0.00  0.00    +0.000 C 
ATOM     16  C   UNL     1      61.184 -45.362  61.371  0.00  0.00    +0.000 C 
ATOM     17  C   UNL     1      63.482 -47.628  59.627  0.00  0.00    +0.000 C 
ATOM     18  C   UNL     1      63.711 -47.604  62.149  0.00  0.00    +0.000 C 
ATOM     19  C   UNL     1      62.941 -45.069  59.848  0.00  0.00    +0.000 C 
ATOM     20  C   UNL     1      63.935 -46.822  58.542  0.00  0.00    +0.000 A 
ATOM     21  C   UNL     1      63.642 -45.495  58.696  0.00  0.00    +0.000 A 
ATOM     22  C   UNL     1      64.601 -46.881  57.321  0.00  0.00    +0.000 A 
ENDROOT
BRANCH   9  23
ATOM     23  O   UNL     1      56.935 -51.699  61.375  0.00  0.00    +0.000 OA
ATOM     24  H   UNL     1      57.482 -52.503  61.327  0.00  0.00    +0.000 HD
ENDBRANCH   9  23
BRANCH   9  25
ATOM     25  C   UNL     1      58.060 -50.879  59.442  0.00  0.00    +0.000 C 
ATOM     26  C   UNL     1      58.317 -51.079  58.292  0.00  0.00    +0.000 C 
ENDBRANCH   9  25
TORSDOF 2
ENDMDL
MODEL 8
REMARK VINA RESULT:      -6.0      4.384      5.631
REMARK  Name = Danazol.pdbqt.pdb
REMARK  2 active torsions:
REMARK  status: ('A' for Active; 'I' for Inactive)
REMARK    1  A    between atoms: C_9  and  O_23
REMARK    2  A    between atoms: C_9  and  C_25
REMARK                            x       y       z     vdW  Elec       q    Type
REMARK                         _______ _______ _______ _____ _____    ______ ____
ROOT
ATOM      1  O   UNL     1      43.302 -55.406  54.351  0.00  0.00    +0.000 OA
ATOM      2  N   UNL     1      42.218 -54.709  54.924  0.00  0.00    +0.000 NA
ATOM      3  C   UNL     1      48.252 -50.358  51.531  0.00  0.00    +0.000 C 
ATOM      4  C   UNL     1      48.029 -48.804  51.918  0.00  0.00    +0.000 C 
ATOM      5  C   UNL     1      47.787 -51.469  52.383  0.00  0.00    +0.000 C 
ATOM      6  C   UNL     1      46.932 -51.347  53.615  0.00  0.00    +0.000 C 
ATOM      7  C   UNL     1      46.586 -52.530  54.550  0.00  0.00    +0.000 C 
ATOM      8  C   UNL     1      47.090 -48.826  53.050  0.00  0.00    +0.000 C 
ATOM      9  C   UNL     1      47.470 -48.137  50.536  0.00  0.00    +0.000 C 
ATOM     10  C   UNL     1      46.583 -49.991  53.862  0.00  0.00    +0.000 C 
ATOM     11  C   UNL     1      48.311 -50.483  50.114  0.00  0.00    +0.000 C 
ATOM     12  C   UNL     1      48.021 -52.816  52.024  0.00  0.00    +0.000 C 
ATOM     13  C   UNL     1      47.874 -49.162  49.552  0.00  0.00    +0.000 C 
ATOM     14  C   UNL     1      46.730 -54.032  53.857  0.00  0.00    +0.000 C 
ATOM     15  C   UNL     1      49.436 -48.268  52.370  0.00  0.00    +0.000 C 
ATOM     16  C   UNL     1      47.536 -54.068  52.693  0.00  0.00    +0.000 C 
ATOM     17  C   UNL     1      45.137 -52.460  54.955  0.00  0.00    +0.000 C 
ATOM     18  C   UNL     1      47.528 -52.504  55.787  0.00  0.00    +0.000 C 
ATOM     19  C   UNL     1      45.668 -54.805  53.902  0.00  0.00    +0.000 C 
ATOM     20  C   UNL     1      44.038 -53.368  54.925  0.00  0.00    +0.000 A 
ATOM     21  C   UNL     1      44.355 -54.581  54.376  0.00  0.00    +0.000 A 
ATOM     22  C   UNL     1      42.694 -53.492  55.263  0.00  0.00    +0.000 A 
ENDROOT
BRANCH   9  23
ATOM     23  O   UNL     1      48.073 -46.883  50.184  0.00  0.00    +0.000 OA
ATOM     24  H   UNL     1      49.005 -46.917  50.459  0.00  0.00    +0.000 HD
ENDBRANCH   9  23
BRANCH   9  25
ATOM     25  C   UNL     1      45.995 -47.982  50.573  0.00  0.00    +0.000 C 
ATOM     26  C   UNL     1      44.805 -47.867  50.578  0.00  0.00    +0.000 C 
ENDBRANCH   9  25
TORSDOF 2
ENDMDL
MODEL 9
REMARK VINA RESULT:      -6.0     15.465     17.687
REMARK  Name = Danazol.pdbqt.pdb
REMARK  2 active torsions:
REMARK  status: ('A' for Active; 'I' for Inactive)
REMARK    1  A    between atoms: C_9  and  O_23
REMARK    2  A    between atoms: C_9  and  C_25
REMARK                            x       y       z     vdW  Elec       q    Type
REMARK                         _______ _______ _______ _____ _____    ______ ____
ROOT
ATOM      1  O   UNL     1      61.268 -44.854  60.508  0.00  0.00    +0.000 OA
ATOM      2  N   UNL     1      62.646 -44.979  60.232  0.00  0.00    +0.000 NA
ATOM      3  C   UNL     1      58.222 -51.811  61.018  0.00  0.00    +0.000 C 
ATOM      4  C   UNL     1      59.241 -53.066  61.070  0.00  0.00    +0.000 C 
ATOM      5  C   UNL     1      58.595 -50.459  61.474  0.00  0.00    +0.000 C 
ATOM      6  C   UNL     1      59.968 -50.009  61.896  0.00  0.00    +0.000 C 
ATOM      7  C   UNL     1      60.277 -48.617  62.495  0.00  0.00    +0.000 C 
ATOM      8  C   UNL     1      60.554 -52.475  61.372  0.00  0.00    +0.000 C 
ATOM      9  C   UNL     1      59.087 -53.752  59.597  0.00  0.00    +0.000 C 
ATOM     10  C   UNL     1      60.911 -51.066  61.775  0.00  0.00    +0.000 C 
ATOM     11  C   UNL     1      57.293 -52.008  59.957  0.00  0.00    +0.000 C 
ATOM     12  C   UNL     1      57.669 -49.391  61.435  0.00  0.00    +0.000 C 
ATOM     13  C   UNL     1      57.804 -53.166  59.152  0.00  0.00    +0.000 C 
ATOM     14  C   UNL     1      59.153 -47.444  62.152  0.00  0.00    +0.000 C 
ATOM     15  C   UNL     1      58.749 -53.969  62.258  0.00  0.00    +0.000 C 
ATOM     16  C   UNL     1      57.890 -47.940  61.746  0.00  0.00    +0.000 C 
ATOM     17  C   UNL     1      61.553 -48.075  61.907  0.00  0.00    +0.000 C 
ATOM     18  C   UNL     1      60.363 -48.730  64.044  0.00  0.00    +0.000 C 
ATOM     19  C   UNL     1      59.602 -46.348  61.583  0.00  0.00    +0.000 C 
ATOM     20  C   UNL     1      61.928 -46.858  61.266  0.00  0.00    +0.000 A 
ATOM     21  C   UNL     1      60.888 -45.981  61.122  0.00  0.00    +0.000 A 
ATOM     22  C   UNL     1      63.012 -46.190  60.705  0.00  0.00    +0.000 A 
ENDROOT
BRANCH   9  23
ATOM     23  O   UNL     1      58.972 -55.183  59.606  0.00  0.00    +0.000 OA
ATOM     24  H   UNL     1      59.344 -55.503  60.446  0.00  0.00    +0.000 HD
ENDBRANCH   9  23
BRANCH   9  25
ATOM     25  C   UNL     1      60.198 -53.353  58.698  0.00  0.00    +0.000 C 
ATOM     26  C   UNL     1      61.110 -53.030  57.996  0.00  0.00    +0.000 C 
ENDBRANCH   9  25
TORSDOF 2
ENDMDL
