MODEL 1
REMARK VINA RESULT:      -6.5      0.000      0.000
REMARK  Name = Decitabine.pdbqt.pdb
REMARK  4 active torsions:
REMARK  status: ('A' for Active; 'I' for Inactive)
REMARK    1  A    between atoms: N_2  and  C1*_8
REMARK    2  A    between atoms: C4*_10  and  C5*_13
REMARK    3  A    between atoms: C3*_11  and  O3*_16
REMARK    4  A    between atoms: C5*_13  and  O5*_14
REMARK                            x       y       z     vdW  Elec       q    Type
REMARK                         _______ _______ _______ _____ _____    ______ ____
ROOT
ATOM      1  O   UNL     1      47.056 -41.651  51.986  0.00  0.00    +0.000 OA
ATOM      2  N   UNL     1      48.421 -40.721  50.364  0.00  0.00    +0.000 N 
ATOM      3  N   UNL     1      48.053 -43.034  50.462  0.00  0.00    +0.000 NA
ATOM      4  N   UNL     1      49.477 -42.099  48.799  0.00  0.00    +0.000 NA
ATOM      5  C   UNL     1      47.788 -41.778  51.010  0.00  0.00    +0.000 A 
ATOM      6  C   UNL     1      49.173 -41.110  49.338  0.00  0.00    +0.000 A 
ATOM      7  C   UNL     1      48.835 -43.156  49.421  0.00  0.00    +0.000 A 
ATOM      8  N   UNL     1      49.056 -44.399  48.921  0.00  0.00    +0.000 N 
ATOM      9  H   UNL     1      49.933 -44.502  48.429  0.00  0.00    +0.000 HD
ATOM     10  H   UNL     1      48.850 -45.139  49.582  0.00  0.00    +0.000 HD
ENDROOT
BRANCH   2  11
ATOM     11  C1* UNL     1      48.331 -39.405  50.694  0.00  0.00    +0.000 A 
ATOM     12  O4* UNL     1      47.115 -38.714  50.666  0.00  0.00    +0.000 OA
ATOM     13  C4* UNL     1      47.386 -37.399  51.066  0.00  0.00    +0.000 A 
ATOM     14  C3* UNL     1      48.794 -37.269  51.342  0.00  0.00    +0.000 A 
ATOM     15  C2* UNL     1      49.358 -38.537  51.115  0.00  0.00    +0.000 A 
BRANCH  14  16
ATOM     16  O3* UNL     1      49.250 -36.381  52.274  0.00  0.00    +0.000 OA
ATOM     17  H3* UNL     1      48.532 -36.095  52.864  0.00  0.00    +0.000 HD
ENDBRANCH  14  16
BRANCH  13  18
ATOM     18  C5* UNL     1      46.368 -36.459  51.320  0.00  0.00    +0.000 C 
BRANCH  18  19
ATOM     19  O5* UNL     1      45.404 -35.575  51.561  0.00  0.00    +0.000 OA
ATOM     20  H5* UNL     1      45.011 -35.736  52.436  0.00  0.00    +0.000 HD
ENDBRANCH  18  19
ENDBRANCH  13  18
ENDBRANCH   2  11
TORSDOF 4
ENDMDL
MODEL 2
REMARK VINA RESULT:      -5.6      3.223      5.980
REMARK  Name = Decitabine.pdbqt.pdb
REMARK  4 active torsions:
REMARK  status: ('A' for Active; 'I' for Inactive)
REMARK    1  A    between atoms: N_2  and  C1*_8
REMARK    2  A    between atoms: C4*_10  and  C5*_13
REMARK    3  A    between atoms: C3*_11  and  O3*_16
REMARK    4  A    between atoms: C5*_13  and  O5*_14
REMARK                            x       y       z     vdW  Elec       q    Type
REMARK                         _______ _______ _______ _____ _____    ______ ____
ROOT
ATOM      1  O   UNL     1      50.597 -38.385  51.264  0.00  0.00    +0.000 OA
ATOM      2  N   UNL     1      48.334 -38.302  50.782  0.00  0.00    +0.000 N 
ATOM      3  N   UNL     1      49.326 -36.747  52.229  0.00  0.00    +0.000 NA
ATOM      4  N   UNL     1      46.993 -36.658  51.763  0.00  0.00    +0.000 NA
ATOM      5  C   UNL     1      49.497 -37.859  51.404  0.00  0.00    +0.000 A 
ATOM      6  C   UNL     1      47.264 -37.578  51.099  0.00  0.00    +0.000 A 
ATOM      7  C   UNL     1      48.148 -36.196  52.370  0.00  0.00    +0.000 A 
ATOM      8  N   UNL     1      48.035 -35.112  53.179  0.00  0.00    +0.000 N 
ATOM      9  H   UNL     1      47.114 -34.981  53.578  0.00  0.00    +0.000 HD
ATOM     10  H   UNL     1      48.800 -35.020  53.836  0.00  0.00    +0.000 HD
ENDROOT
BRANCH   2  11
ATOM     11  C1* UNL     1      48.226 -39.358  49.933  0.00  0.00    +0.000 A 
ATOM     12  O4* UNL     1      48.978 -39.445  48.756  0.00  0.00    +0.000 OA
ATOM     13  C4* UNL     1      48.625 -40.651  48.137  0.00  0.00    +0.000 A 
ATOM     14  C3* UNL     1      47.634 -41.322  48.939  0.00  0.00    +0.000 A 
ATOM     15  C2* UNL     1      47.413 -40.502  50.059  0.00  0.00    +0.000 A 
BRANCH  14  16
ATOM     16  O3* UNL     1      47.546 -42.685  48.955  0.00  0.00    +0.000 OA
ATOM     17  H3* UNL     1      48.394 -43.092  48.707  0.00  0.00    +0.000 HD
ENDBRANCH  14  16
BRANCH  13  18
ATOM     18  C5* UNL     1      49.308 -41.154  47.013  0.00  0.00    +0.000 C 
BRANCH  18  19
ATOM     19  O5* UNL     1      49.949 -41.632  45.950  0.00  0.00    +0.000 OA
ATOM     20  H5* UNL     1      50.895 -41.412  46.001  0.00  0.00    +0.000 HD
ENDBRANCH  18  19
ENDBRANCH  13  18
ENDBRANCH   2  11
TORSDOF 4
ENDMDL
MODEL 3
REMARK VINA RESULT:      -5.6      2.268      3.132
REMARK  Name = Decitabine.pdbqt.pdb
REMARK  4 active torsions:
REMARK  status: ('A' for Active; 'I' for Inactive)
REMARK    1  A    between atoms: N_2  and  C1*_8
REMARK    2  A    between atoms: C4*_10  and  C5*_13
REMARK    3  A    between atoms: C3*_11  and  O3*_16
REMARK    4  A    between atoms: C5*_13  and  O5*_14
REMARK                            x       y       z     vdW  Elec       q    Type
REMARK                         _______ _______ _______ _____ _____    ______ ____
ROOT
ATOM      1  O   UNL     1      47.294 -43.709  48.915  0.00  0.00    +0.000 OA
ATOM      2  N   UNL     1      47.957 -42.870  50.968  0.00  0.00    +0.000 N 
ATOM      3  N   UNL     1      47.290 -45.105  50.726  0.00  0.00    +0.000 NA
ATOM      4  N   UNL     1      47.947 -44.256  52.851  0.00  0.00    +0.000 NA
ATOM      5  C   UNL     1      47.503 -43.869  50.113  0.00  0.00    +0.000 A 
ATOM      6  C   UNL     1      48.097 -43.283  52.225  0.00  0.00    +0.000 A 
ATOM      7  C   UNL     1      47.517 -45.263  52.005  0.00  0.00    +0.000 A 
ATOM      8  N   UNL     1      47.300 -46.486  52.552  0.00  0.00    +0.000 N 
ATOM      9  H   UNL     1      47.085 -46.469  53.541  0.00  0.00    +0.000 HD
ATOM     10  H   UNL     1      46.691 -47.072  51.994  0.00  0.00    +0.000 HD
ENDROOT
BRANCH   2  11
ATOM     11  C1* UNL     1      48.241 -41.586  50.627  0.00  0.00    +0.000 A 
ATOM     12  O4* UNL     1      47.586 -40.498  51.216  0.00  0.00    +0.000 OA
ATOM     13  C4* UNL     1      48.126 -39.340  50.642  0.00  0.00    +0.000 A 
ATOM     14  C3* UNL     1      49.128 -39.713  49.677  0.00  0.00    +0.000 A 
ATOM     15  C2* UNL     1      49.190 -41.118  49.697  0.00  0.00    +0.000 A 
BRANCH  14  16
ATOM     16  O3* UNL     1      50.196 -38.901  49.420  0.00  0.00    +0.000 OA
ATOM     17  H3* UNL     1      49.958 -37.965  49.534  0.00  0.00    +0.000 HD
ENDBRANCH  14  16
BRANCH  13  18
ATOM     18  C5* UNL     1      47.826 -38.048  51.116  0.00  0.00    +0.000 C 
BRANCH  18  19
ATOM     19  O5* UNL     1      47.547 -36.827  51.562  0.00  0.00    +0.000 OA
ATOM     20  H5* UNL     1      47.774 -36.163  50.889  0.00  0.00    +0.000 HD
ENDBRANCH  18  19
ENDBRANCH  13  18
ENDBRANCH   2  11
TORSDOF 4
ENDMDL
MODEL 4
REMARK VINA RESULT:      -5.6      2.964      5.914
REMARK  Name = Decitabine.pdbqt.pdb
REMARK  4 active torsions:
REMARK  status: ('A' for Active; 'I' for Inactive)
REMARK    1  A    between atoms: N_2  and  C1*_8
REMARK    2  A    between atoms: C4*_10  and  C5*_13
REMARK    3  A    between atoms: C3*_11  and  O3*_16
REMARK    4  A    between atoms: C5*_13  and  O5*_14
REMARK                            x       y       z     vdW  Elec       q    Type
REMARK                         _______ _______ _______ _____ _____    ______ ____
ROOT
ATOM      1  O   UNL     1      50.503 -38.260  51.650  0.00  0.00    +0.000 OA
ATOM      2  N   UNL     1      48.252 -38.504  51.168  0.00  0.00    +0.000 N 
ATOM      3  N   UNL     1      49.113 -36.470  51.954  0.00  0.00    +0.000 NA
ATOM      4  N   UNL     1      46.791 -36.707  51.485  0.00  0.00    +0.000 NA
ATOM      5  C   UNL     1      49.371 -37.792  51.589  0.00  0.00    +0.000 A 
ATOM      6  C   UNL     1      47.134 -37.785  51.199  0.00  0.00    +0.000 A 
ATOM      7  C   UNL     1      47.901 -35.983  51.884  0.00  0.00    +0.000 A 
ATOM      8  N   UNL     1      47.704 -34.689  52.245  0.00  0.00    +0.000 N 
ATOM      9  H   UNL     1      46.767 -34.483  52.569  0.00  0.00    +0.000 HD
ATOM     10  H   UNL     1      48.446 -34.317  52.826  0.00  0.00    +0.000 HD
ENDROOT
BRANCH   2  11
ATOM     11  C1* UNL     1      48.229 -39.800  50.759  0.00  0.00    +0.000 A 
ATOM     12  O4* UNL     1      47.788 -40.834  51.593  0.00  0.00    +0.000 OA
ATOM     13  C4* UNL     1      47.891 -42.021  50.856  0.00  0.00    +0.000 A 
ATOM     14  C3* UNL     1      48.409 -41.721  49.546  0.00  0.00    +0.000 A 
ATOM     15  C2* UNL     1      48.598 -40.329  49.506  0.00  0.00    +0.000 A 
BRANCH  14  16
ATOM     16  O3* UNL     1      48.067 -42.481  48.463  0.00  0.00    +0.000 OA
ATOM     17  H3* UNL     1      48.089 -43.429  48.681  0.00  0.00    +0.000 HD
ENDBRANCH  14  16
BRANCH  13  18
ATOM     18  C5* UNL     1      47.373 -43.247  51.318  0.00  0.00    +0.000 C 
BRANCH  18  19
ATOM     19  O5* UNL     1      46.883 -44.402  51.759  0.00  0.00    +0.000 OA
ATOM     20  H5* UNL     1      47.200 -45.135  51.203  0.00  0.00    +0.000 HD
ENDBRANCH  18  19
ENDBRANCH  13  18
ENDBRANCH   2  11
TORSDOF 4
ENDMDL
MODEL 5
REMARK VINA RESULT:      -5.5      3.950      5.289
REMARK  Name = Decitabine.pdbqt.pdb
REMARK  4 active torsions:
REMARK  status: ('A' for Active; 'I' for Inactive)
REMARK    1  A    between atoms: N_2  and  C1*_8
REMARK    2  A    between atoms: C4*_10  and  C5*_13
REMARK    3  A    between atoms: C3*_11  and  O3*_16
REMARK    4  A    between atoms: C5*_13  and  O5*_14
REMARK                            x       y       z     vdW  Elec       q    Type
REMARK                         _______ _______ _______ _____ _____    ______ ____
ROOT
ATOM      1  O   UNL     1      48.616 -35.866  47.233  0.00  0.00    +0.000 OA
ATOM      2  N   UNL     1      49.375 -38.053  47.185  0.00  0.00    +0.000 N 
ATOM      3  N   UNL     1      49.232 -36.773  45.226  0.00  0.00    +0.000 NA
ATOM      4  N   UNL     1      49.994 -39.027  45.153  0.00  0.00    +0.000 NA
ATOM      5  C   UNL     1      49.044 -36.831  46.607  0.00  0.00    +0.000 A 
ATOM      6  C   UNL     1      49.806 -38.948  46.301  0.00  0.00    +0.000 A 
ATOM      7  C   UNL     1      49.689 -37.809  44.571  0.00  0.00    +0.000 A 
ATOM      8  N   UNL     1      49.860 -37.700  43.228  0.00  0.00    +0.000 N 
ATOM      9  H   UNL     1      49.806 -38.577  42.727  0.00  0.00    +0.000 HD
ATOM     10  H   UNL     1      49.328 -36.941  42.817  0.00  0.00    +0.000 HD
ENDROOT
BRANCH   2  11
ATOM     11  C1* UNL     1      49.287 -38.370  48.503  0.00  0.00    +0.000 A 
ATOM     12  O4* UNL     1      48.480 -39.417  48.963  0.00  0.00    +0.000 OA
ATOM     13  C4* UNL     1      48.634 -39.467  50.354  0.00  0.00    +0.000 A 
ATOM     14  C3* UNL     1      49.546 -38.432  50.767  0.00  0.00    +0.000 A 
ATOM     15  C2* UNL     1      49.950 -37.772  49.593  0.00  0.00    +0.000 A 
BRANCH  14  16
ATOM     16  O3* UNL     1      50.336 -38.588  51.870  0.00  0.00    +0.000 OA
ATOM     17  H3* UNL     1      51.183 -38.120  51.763  0.00  0.00    +0.000 HD
ENDBRANCH  14  16
BRANCH  13  18
ATOM     18  C5* UNL     1      48.101 -40.509  51.139  0.00  0.00    +0.000 C 
BRANCH  18  19
ATOM     19  O5* UNL     1      47.598 -41.490  51.883  0.00  0.00    +0.000 OA
ATOM     20  H5* UNL     1      48.315 -42.017  52.274  0.00  0.00    +0.000 HD
ENDBRANCH  18  19
ENDBRANCH  13  18
ENDBRANCH   2  11
TORSDOF 4
ENDMDL
MODEL 6
REMARK VINA RESULT:      -5.4     22.252     23.767
REMARK  Name = Decitabine.pdbqt.pdb
REMARK  4 active torsions:
REMARK  status: ('A' for Active; 'I' for Inactive)
REMARK    1  A    between atoms: N_2  and  C1*_8
REMARK    2  A    between atoms: C4*_10  and  C5*_13
REMARK    3  A    between atoms: C3*_11  and  O3*_16
REMARK    4  A    between atoms: C5*_13  and  O5*_14
REMARK                            x       y       z     vdW  Elec       q    Type
REMARK                         _______ _______ _______ _____ _____    ______ ____
ROOT
ATOM      1  O   UNL     1      43.394 -53.275  70.006  0.00  0.00    +0.000 OA
ATOM      2  N   UNL     1      44.902 -54.471  68.719  0.00  0.00    +0.000 N 
ATOM      3  N   UNL     1      45.535 -53.523  70.768  0.00  0.00    +0.000 NA
ATOM      4  N   UNL     1      47.107 -54.731  69.449  0.00  0.00    +0.000 NA
ATOM      5  C   UNL     1      44.520 -53.729  69.833  0.00  0.00    +0.000 A 
ATOM      6  C   UNL     1      46.178 -54.843  68.752  0.00  0.00    +0.000 A 
ATOM      7  C   UNL     1      46.733 -54.013  70.572  0.00  0.00    +0.000 A 
ATOM      8  N   UNL     1      47.684 -53.790  71.514  0.00  0.00    +0.000 N 
ATOM      9  H   UNL     1      48.632 -53.805  71.163  0.00  0.00    +0.000 HD
ATOM     10  H   UNL     1      47.469 -53.010  72.124  0.00  0.00    +0.000 HD
ENDROOT
BRANCH   2  11
ATOM     11  C1* UNL     1      44.110 -54.812  67.669  0.00  0.00    +0.000 A 
ATOM     12  O4* UNL     1      42.898 -55.491  67.841  0.00  0.00    +0.000 OA
ATOM     13  C4* UNL     1      42.349 -55.671  66.566  0.00  0.00    +0.000 A 
ATOM     14  C3* UNL     1      43.235 -55.101  65.584  0.00  0.00    +0.000 A 
ATOM     15  C2* UNL     1      44.318 -54.560  66.298  0.00  0.00    +0.000 A 
BRANCH  14  16
ATOM     16  O3* UNL     1      42.753 -54.586  64.414  0.00  0.00    +0.000 OA
ATOM     17  H3* UNL     1      43.479 -54.341  63.815  0.00  0.00    +0.000 HD
ENDBRANCH  14  16
BRANCH  13  18
ATOM     18  C5* UNL     1      41.046 -56.168  66.365  0.00  0.00    +0.000 C 
BRANCH  18  19
ATOM     19  O5* UNL     1      39.815 -56.632  66.174  0.00  0.00    +0.000 OA
ATOM     20  H5* UNL     1      39.719 -57.509  66.584  0.00  0.00    +0.000 HD
ENDBRANCH  18  19
ENDBRANCH  13  18
ENDBRANCH   2  11
TORSDOF 4
ENDMDL
MODEL 7
REMARK VINA RESULT:      -5.1      3.559      5.784
REMARK  Name = Decitabine.pdbqt.pdb
REMARK  4 active torsions:
REMARK  status: ('A' for Active; 'I' for Inactive)
REMARK    1  A    between atoms: N_2  and  C1*_8
REMARK    2  A    between atoms: C4*_10  and  C5*_13
REMARK    3  A    between atoms: C3*_11  and  O3*_16
REMARK    4  A    between atoms: C5*_13  and  O5*_14
REMARK                            x       y       z     vdW  Elec       q    Type
REMARK                         _______ _______ _______ _____ _____    ______ ____
ROOT
ATOM      1  O   UNL     1      47.568 -40.887  47.483  0.00  0.00    +0.000 OA
ATOM      2  N   UNL     1      48.977 -40.536  49.286  0.00  0.00    +0.000 N 
ATOM      3  N   UNL     1      48.927 -39.048  47.476  0.00  0.00    +0.000 NA
ATOM      4  N   UNL     1      50.400 -38.682  49.310  0.00  0.00    +0.000 NA
ATOM      5  C   UNL     1      48.425 -40.216  48.050  0.00  0.00    +0.000 A 
ATOM      6  C   UNL     1      49.896 -39.663  49.689  0.00  0.00    +0.000 A 
ATOM      7  C   UNL     1      49.841 -38.341  48.090  0.00  0.00    +0.000 A 
ATOM      8  N   UNL     1      50.293 -37.210  47.492  0.00  0.00    +0.000 N 
ATOM      9  H   UNL     1      51.229 -36.940  47.762  0.00  0.00    +0.000 HD
ATOM     10  H   UNL     1      50.113 -37.184  46.496  0.00  0.00    +0.000 HD
ENDROOT
BRANCH   2  11
ATOM     11  C1* UNL     1      48.664 -41.614  50.054  0.00  0.00    +0.000 A 
ATOM     12  O4* UNL     1      48.874 -42.925  49.614  0.00  0.00    +0.000 OA
ATOM     13  C4* UNL     1      48.452 -43.772  50.647  0.00  0.00    +0.000 A 
ATOM     14  C3* UNL     1      47.966 -42.975  51.744  0.00  0.00    +0.000 A 
ATOM     15  C2* UNL     1      48.122 -41.633  51.354  0.00  0.00    +0.000 A 
BRANCH  14  16
ATOM     16  O3* UNL     1      48.063 -43.416  53.033  0.00  0.00    +0.000 OA
ATOM     17  H3* UNL     1      48.837 -43.994  53.147  0.00  0.00    +0.000 HD
ENDBRANCH  14  16
BRANCH  13  18
ATOM     18  C5* UNL     1      48.673 -45.163  50.625  0.00  0.00    +0.000 C 
BRANCH  18  19
ATOM     19  O5* UNL     1      48.883 -46.476  50.599  0.00  0.00    +0.000 OA
ATOM     20  H5* UNL     1      48.048 -46.953  50.750  0.00  0.00    +0.000 HD
ENDBRANCH  18  19
ENDBRANCH  13  18
ENDBRANCH   2  11
TORSDOF 4
ENDMDL
MODEL 8
REMARK VINA RESULT:      -5.1     21.532     23.297
REMARK  Name = Decitabine.pdbqt.pdb
REMARK  4 active torsions:
REMARK  status: ('A' for Active; 'I' for Inactive)
REMARK    1  A    between atoms: N_2  and  C1*_8
REMARK    2  A    between atoms: C4*_10  and  C5*_13
REMARK    3  A    between atoms: C3*_11  and  O3*_16
REMARK    4  A    between atoms: C5*_13  and  O5*_14
REMARK                            x       y       z     vdW  Elec       q    Type
REMARK                         _______ _______ _______ _____ _____    ______ ____
ROOT
ATOM      1  O   UNL     1      46.600 -55.344  67.346  0.00  0.00    +0.000 OA
ATOM      2  N   UNL     1      44.463 -54.595  67.827  0.00  0.00    +0.000 N 
ATOM      3  N   UNL     1      46.190 -54.436  69.404  0.00  0.00    +0.000 NA
ATOM      4  N   UNL     1      43.993 -53.681  69.926  0.00  0.00    +0.000 NA
ATOM      5  C   UNL     1      45.802 -54.830  68.123  0.00  0.00    +0.000 A 
ATOM      6  C   UNL     1      43.795 -54.039  68.833  0.00  0.00    +0.000 A 
ATOM      7  C   UNL     1      45.329 -53.890  70.224  0.00  0.00    +0.000 A 
ATOM      8  N   UNL     1      45.757 -53.519  71.457  0.00  0.00    +0.000 N 
ATOM      9  H   UNL     1      45.033 -53.500  72.163  0.00  0.00    +0.000 HD
ATOM     10  H   UNL     1      46.614 -53.979  71.739  0.00  0.00    +0.000 HD
ENDROOT
BRANCH   2  11
ATOM     11  C1* UNL     1      43.835 -54.882  66.656  0.00  0.00    +0.000 A 
ATOM     12  O4* UNL     1      43.084 -56.049  66.482  0.00  0.00    +0.000 OA
ATOM     13  C4* UNL     1      42.579 -56.018  65.176  0.00  0.00    +0.000 A 
ATOM     14  C3* UNL     1      43.028 -54.814  64.525  0.00  0.00    +0.000 A 
ATOM     15  C2* UNL     1      43.798 -54.117  65.473  0.00  0.00    +0.000 A 
BRANCH  14  16
ATOM     16  O3* UNL     1      42.275 -54.213  63.557  0.00  0.00    +0.000 OA
ATOM     17  H3* UNL     1      42.643 -53.346  63.315  0.00  0.00    +0.000 HD
ENDBRANCH  14  16
BRANCH  13  18
ATOM     18  C5* UNL     1      41.636 -56.951  64.705  0.00  0.00    +0.000 C 
BRANCH  18  19
ATOM     19  O5* UNL     1      40.748 -57.835  64.259  0.00  0.00    +0.000 OA
ATOM     20  H5* UNL     1      40.488 -57.620  63.347  0.00  0.00    +0.000 HD
ENDBRANCH  18  19
ENDBRANCH  13  18
ENDBRANCH   2  11
TORSDOF 4
ENDMDL
MODEL 9
REMARK VINA RESULT:      -5.1     23.120     24.569
REMARK  Name = Decitabine.pdbqt.pdb
REMARK  4 active torsions:
REMARK  status: ('A' for Active; 'I' for Inactive)
REMARK    1  A    between atoms: N_2  and  C1*_8
REMARK    2  A    between atoms: C4*_10  and  C5*_13
REMARK    3  A    between atoms: C3*_11  and  O3*_16
REMARK    4  A    between atoms: C5*_13  and  O5*_14
REMARK                            x       y       z     vdW  Elec       q    Type
REMARK                         _______ _______ _______ _____ _____    ______ ____
ROOT
ATOM      1  O   UNL     1      43.334 -53.427  70.448  0.00  0.00    +0.000 OA
ATOM      2  N   UNL     1      45.385 -54.141  69.647  0.00  0.00    +0.000 N 
ATOM      3  N   UNL     1      43.463 -54.218  68.307  0.00  0.00    +0.000 NA
ATOM      4  N   UNL     1      45.559 -54.977  67.471  0.00  0.00    +0.000 NA
ATOM      5  C   UNL     1      44.021 -53.891  69.544  0.00  0.00    +0.000 A 
ATOM      6  C   UNL     1      45.907 -54.656  68.537  0.00  0.00    +0.000 A 
ATOM      7  C   UNL     1      44.206 -54.712  67.350  0.00  0.00    +0.000 A 
ATOM      8  N   UNL     1      43.618 -55.007  66.163  0.00  0.00    +0.000 N 
ATOM      9  H   UNL     1      44.085 -55.731  65.633  0.00  0.00    +0.000 HD
ATOM     10  H   UNL     1      42.612 -55.111  66.229  0.00  0.00    +0.000 HD
ENDROOT
BRANCH   2  11
ATOM     11  C1* UNL     1      46.166 -53.914  70.736  0.00  0.00    +0.000 A 
ATOM     12  O4* UNL     1      46.190 -52.675  71.387  0.00  0.00    +0.000 OA
ATOM     13  C4* UNL     1      47.086 -52.796  72.457  0.00  0.00    +0.000 A 
ATOM     14  C3* UNL     1      47.631 -54.130  72.469  0.00  0.00    +0.000 A 
ATOM     15  C2* UNL     1      47.032 -54.810  71.394  0.00  0.00    +0.000 A 
BRANCH  14  16
ATOM     16  O3* UNL     1      48.012 -54.725  73.638  0.00  0.00    +0.000 OA
ATOM     17  H3* UNL     1      47.243 -54.895  74.209  0.00  0.00    +0.000 HD
ENDBRANCH  14  16
BRANCH  13  18
ATOM     18  C5* UNL     1      47.235 -51.796  73.437  0.00  0.00    +0.000 C 
BRANCH  18  19
ATOM     19  O5* UNL     1      47.375 -50.848  74.359  0.00  0.00    +0.000 OA
ATOM     20  H5* UNL     1      48.289 -50.516  74.364  0.00  0.00    +0.000 HD
ENDBRANCH  18  19
ENDBRANCH  13  18
ENDBRANCH   2  11
TORSDOF 4
ENDMDL
