MODEL 1
REMARK VINA RESULT:      -6.2      0.000      0.000
REMARK  Name = Deferoxamine.pdbqt.pdb
REMARK  19 active torsions:
REMARK  status: ('A' for Active; 'I' for Inactive)
REMARK    1  A    between atoms: C_1  and  C_2
REMARK    2  A    between atoms: C_3  and  C_4
REMARK    3  A    between atoms: C_4  and  N_5
REMARK    4  A    between atoms: C_6  and  C_9
REMARK    5  A    between atoms: C_10  and  C_11
REMARK    6  A    between atoms: N_13  and  O_14
REMARK    7  A    between atoms: N_13  and  C_16
REMARK    8  A    between atoms: C_17  and  C_18
REMARK    9  A    between atoms: C_19  and  C_20
REMARK   10  A    between atoms: C_20  and  N_21
REMARK   11  A    between atoms: C_24  and  N_25
REMARK   12  A    between atoms: N_25  and  O_28
REMARK   13  A    between atoms: C_26  and  C_30
REMARK   14  A    between atoms: C_31  and  C_32
REMARK   15  A    between atoms: N_34  and  C_36
REMARK   16  A    between atoms: C_37  and  C_38
REMARK   17  A    between atoms: C_38  and  C_39
REMARK   18  A    between atoms: C_40  and  N_41
REMARK   19  A    between atoms: N_41  and  O_45
REMARK                            x       y       z     vdW  Elec       q    Type
REMARK                         _______ _______ _______ _____ _____    ______ ____
ROOT
ATOM      1  C   UNL     1      49.320 -41.145  48.769  0.00  0.00    +0.000 C 
ATOM      2  C   UNL     1      49.421 -40.031  48.331  0.00  0.00    +0.000 C 
ENDROOT
BRANCH   2   3
ATOM      3  N   UNL     1      49.532 -38.780  47.839  0.00  0.00    +0.000 N 
ATOM      4  C   UNL     1      49.147 -38.252  46.619  0.00  0.00    +0.000 C 
ATOM      5  O   UNL     1      48.767 -38.913  45.658  0.00  0.00    +0.000 OA
BRANCH   4   6
ATOM      6  C   UNL     1      49.235 -36.816  46.455  0.00  0.00    +0.000 C 
ATOM      7  C   UNL     1      49.309 -35.623  46.334  0.00  0.00    +0.000 C 
BRANCH   7   8
ATOM      8  C   UNL     1      49.384 -34.188  46.208  0.00  0.00    +0.000 C 
ATOM      9  O   UNL     1      48.428 -33.582  45.748  0.00  0.00    +0.000 OA
ATOM     10  N   UNL     1      50.566 -33.624  46.633  0.00  0.00    +0.000 N 
ATOM     11  H   UNL     1      51.262 -34.264  46.995  0.00  0.00    +0.000 HD
BRANCH  10  12
ATOM     12  C   UNL     1      50.934 -32.324  46.641  0.00  0.00    +0.000 C 
ATOM     13  C   UNL     1      51.266 -31.171  46.648  0.00  0.00    +0.000 C 
BRANCH  13  14
ATOM     14  C   UNL     1      51.698 -29.702  46.653  0.00  0.00    +0.000 C 
BRANCH  14  15
ATOM     15  C   UNL     1      52.123 -28.230  46.662  0.00  0.00    +0.000 C 
ATOM     16  C   UNL     1      52.457 -27.078  46.670  0.00  0.00    +0.000 C 
BRANCH  16  17
ATOM     17  N   UNL     1      52.840 -25.786  46.682  0.00  0.00    +0.000 N 
ATOM     18  C   UNL     1      53.690 -25.100  47.516  0.00  0.00    +0.000 C 
ATOM     19  O   UNL     1      54.333 -25.491  48.474  0.00  0.00    +0.000 OA
ATOM     20  C   UNL     1      53.925 -23.629  47.280  0.00  0.00    +0.000 C 
BRANCH  17  21
ATOM     21  O   UNL     1      52.200 -25.099  45.618  0.00  0.00    +0.000 OA
ATOM     22  H   UNL     1      51.431 -25.671  45.415  0.00  0.00    +0.000 HD
ENDBRANCH  17  21
ENDBRANCH  16  17
ENDBRANCH  14  15
ENDBRANCH  13  14
ENDBRANCH  10  12
ENDBRANCH   7   8
ENDBRANCH   4   6
BRANCH   3  23
ATOM     23  O   UNL     1      49.740 -37.874  48.904  0.00  0.00    +0.000 OA
ATOM     24  H   UNL     1      50.644 -38.109  49.185  0.00  0.00    +0.000 HD
ENDBRANCH   3  23
ENDBRANCH   2   3
BRANCH   1  25
ATOM     25  C   UNL     1      49.189 -42.570  49.312  0.00  0.00    +0.000 C 
ATOM     26  C   UNL     1      49.072 -43.685  49.739  0.00  0.00    +0.000 C 
BRANCH  26  27
ATOM     27  C   UNL     1      48.909 -45.108  50.286  0.00  0.00    +0.000 C 
BRANCH  27  28
ATOM     28  N   UNL     1      48.783 -46.364  50.765  0.00  0.00    +0.000 N 
ATOM     29  C   UNL     1      49.330 -47.532  50.289  0.00  0.00    +0.000 C 
ATOM     30  O   UNL     1      50.054 -47.635  49.308  0.00  0.00    +0.000 OA
ATOM     31  H   UNL     1      48.208 -46.438  51.595  0.00  0.00    +0.000 HD
BRANCH  29  32
ATOM     32  C   UNL     1      49.000 -48.718  51.040  0.00  0.00    +0.000 C 
ATOM     33  C   UNL     1      48.731 -49.694  51.686  0.00  0.00    +0.000 C 
BRANCH  33  34
ATOM     34  C   UNL     1      48.398 -50.858  52.482  0.00  0.00    +0.000 C 
ATOM     35  O   UNL     1      48.814 -51.947  52.100  0.00  0.00    +0.000 OA
ATOM     36  N   UNL     1      47.603 -50.662  53.599  0.00  0.00    +0.000 N 
BRANCH  36  37
ATOM     37  C   UNL     1      47.254 -51.507  54.590  0.00  0.00    +0.000 C 
ATOM     38  C   UNL     1      46.944 -52.262  55.470  0.00  0.00    +0.000 C 
BRANCH  38  39
ATOM     39  C   UNL     1      46.544 -53.229  56.590  0.00  0.00    +0.000 C 
ATOM     40  C   UNL     1      46.229 -53.990  57.462  0.00  0.00    +0.000 C 
BRANCH  40  41
ATOM     41  C   UNL     1      45.826 -54.963  58.573  0.00  0.00    +0.000 C 
BRANCH  41  42
ATOM     42  N   UNL     1      45.443 -55.888  59.627  0.00  0.00    +0.000 NA
ATOM     43  H   UNL     1      46.262 -56.181  60.158  0.00  0.00    +0.000 HD
ATOM     44  H   UNL     1      44.824 -55.429  60.295  0.00  0.00    +0.000 HD
ENDBRANCH  41  42
ENDBRANCH  40  41
ENDBRANCH  38  39
ENDBRANCH  36  37
BRANCH  36  45
ATOM     45  O   UNL     1      47.385 -49.330  54.017  0.00  0.00    +0.000 OA
ATOM     46  H   UNL     1      46.416 -49.258  53.936  0.00  0.00    +0.000 HD
ENDBRANCH  36  45
ENDBRANCH  33  34
ENDBRANCH  29  32
ENDBRANCH  27  28
ENDBRANCH  26  27
ENDBRANCH   1  25
TORSDOF 19
ENDMDL
MODEL 2
REMARK VINA RESULT:      -6.1      2.282      2.691
REMARK  Name = Deferoxamine.pdbqt.pdb
REMARK  19 active torsions:
REMARK  status: ('A' for Active; 'I' for Inactive)
REMARK    1  A    between atoms: C_1  and  C_2
REMARK    2  A    between atoms: C_3  and  C_4
REMARK    3  A    between atoms: C_4  and  N_5
REMARK    4  A    between atoms: C_6  and  C_9
REMARK    5  A    between atoms: C_10  and  C_11
REMARK    6  A    between atoms: N_13  and  O_14
REMARK    7  A    between atoms: N_13  and  C_16
REMARK    8  A    between atoms: C_17  and  C_18
REMARK    9  A    between atoms: C_19  and  C_20
REMARK   10  A    between atoms: C_20  and  N_21
REMARK   11  A    between atoms: C_24  and  N_25
REMARK   12  A    between atoms: N_25  and  O_28
REMARK   13  A    between atoms: C_26  and  C_30
REMARK   14  A    between atoms: C_31  and  C_32
REMARK   15  A    between atoms: N_34  and  C_36
REMARK   16  A    between atoms: C_37  and  C_38
REMARK   17  A    between atoms: C_38  and  C_39
REMARK   18  A    between atoms: C_40  and  N_41
REMARK   19  A    between atoms: N_41  and  O_45
REMARK                            x       y       z     vdW  Elec       q    Type
REMARK                         _______ _______ _______ _____ _____    ______ ____
ROOT
ATOM      1  C   UNL     1      48.403 -42.216  50.255  0.00  0.00    +0.000 C 
ATOM      2  C   UNL     1      48.614 -41.155  49.731  0.00  0.00    +0.000 C 
ENDROOT
BRANCH   2   3
ATOM      3  N   UNL     1      48.850 -39.965  49.143  0.00  0.00    +0.000 N 
ATOM      4  C   UNL     1      49.450 -39.659  47.934  0.00  0.00    +0.000 C 
ATOM      5  O   UNL     1      50.052 -40.460  47.227  0.00  0.00    +0.000 OA
BRANCH   4   6
ATOM      6  C   UNL     1      49.390 -38.282  47.489  0.00  0.00    +0.000 C 
ATOM      7  C   UNL     1      49.353 -37.137  47.127  0.00  0.00    +0.000 C 
BRANCH   7   8
ATOM      8  C   UNL     1      49.318 -35.756  46.713  0.00  0.00    +0.000 C 
ATOM      9  O   UNL     1      48.299 -35.316  46.200  0.00  0.00    +0.000 OA
ATOM     10  N   UNL     1      50.474 -35.045  46.945  0.00  0.00    +0.000 N 
ATOM     11  H   UNL     1      51.230 -35.553  47.384  0.00  0.00    +0.000 HD
BRANCH  10  12
ATOM     12  C   UNL     1      50.745 -33.750  46.672  0.00  0.00    +0.000 C 
ATOM     13  C   UNL     1      50.981 -32.599  46.428  0.00  0.00    +0.000 C 
BRANCH  13  14
ATOM     14  C   UNL     1      51.273 -31.128  46.116  0.00  0.00    +0.000 C 
BRANCH  14  15
ATOM     15  C   UNL     1      51.574 -29.659  45.806  0.00  0.00    +0.000 C 
ATOM     16  C   UNL     1      51.806 -28.506  45.562  0.00  0.00    +0.000 C 
BRANCH  16  17
ATOM     17  N   UNL     1      52.061 -27.212  45.292  0.00  0.00    +0.000 N 
ATOM     18  C   UNL     1      53.040 -26.364  45.754  0.00  0.00    +0.000 C 
ATOM     19  O   UNL     1      53.948 -26.571  46.539  0.00  0.00    +0.000 OA
ATOM     20  C   UNL     1      53.071 -24.938  45.265  0.00  0.00    +0.000 C 
BRANCH  17  21
ATOM     21  O   UNL     1      51.100 -26.729  44.366  0.00  0.00    +0.000 OA
ATOM     22  H   UNL     1      50.371 -27.379  44.443  0.00  0.00    +0.000 HD
ENDBRANCH  17  21
ENDBRANCH  16  17
ENDBRANCH  14  15
ENDBRANCH  13  14
ENDBRANCH  10  12
ENDBRANCH   7   8
ENDBRANCH   4   6
BRANCH   3  23
ATOM     23  O   UNL     1      48.019 -38.981  49.726  0.00  0.00    +0.000 OA
ATOM     24  H   UNL     1      47.142 -39.402  49.655  0.00  0.00    +0.000 HD
ENDBRANCH   3  23
ENDBRANCH   2   3
BRANCH   1  25
ATOM     25  C   UNL     1      48.126 -43.572  50.910  0.00  0.00    +0.000 C 
ATOM     26  C   UNL     1      47.897 -44.629  51.427  0.00  0.00    +0.000 C 
BRANCH  26  27
ATOM     27  C   UNL     1      47.592 -45.975  52.094  0.00  0.00    +0.000 C 
BRANCH  27  28
ATOM     28  N   UNL     1      47.310 -47.165  52.668  0.00  0.00    +0.000 N 
ATOM     29  C   UNL     1      47.650 -48.430  52.251  0.00  0.00    +0.000 C 
ATOM     30  O   UNL     1      48.290 -48.704  51.246  0.00  0.00    +0.000 OA
ATOM     31  H   UNL     1      46.781 -47.098  53.528  0.00  0.00    +0.000 HD
BRANCH  29  32
ATOM     32  C   UNL     1      47.193 -49.502  53.101  0.00  0.00    +0.000 C 
ATOM     33  C   UNL     1      46.835 -50.397  53.818  0.00  0.00    +0.000 C 
BRANCH  33  34
ATOM     34  C   UNL     1      46.419 -51.470  54.698  0.00  0.00    +0.000 C 
ATOM     35  O   UNL     1      47.056 -51.637  55.733  0.00  0.00    +0.000 OA
ATOM     36  N   UNL     1      45.354 -52.255  54.288  0.00  0.00    +0.000 N 
BRANCH  36  37
ATOM     37  C   UNL     1      44.664 -53.212  54.942  0.00  0.00    +0.000 C 
ATOM     38  C   UNL     1      44.052 -54.063  55.526  0.00  0.00    +0.000 C 
BRANCH  38  39
ATOM     39  C   UNL     1      43.276 -55.153  56.273  0.00  0.00    +0.000 C 
ATOM     40  C   UNL     1      42.671 -56.004  56.864  0.00  0.00    +0.000 C 
BRANCH  40  41
ATOM     41  C   UNL     1      41.899 -57.088  57.621  0.00  0.00    +0.000 C 
BRANCH  41  42
ATOM     42  N   UNL     1      41.166 -58.117  58.339  0.00  0.00    +0.000 NA
ATOM     43  H   UNL     1      41.039 -57.849  59.314  0.00  0.00    +0.000 HD
ATOM     44  H   UNL     1      40.230 -58.223  57.952  0.00  0.00    +0.000 HD
ENDBRANCH  41  42
ENDBRANCH  40  41
ENDBRANCH  38  39
ENDBRANCH  36  37
BRANCH  36  45
ATOM     45  O   UNL     1      44.600 -51.804  53.181  0.00  0.00    +0.000 OA
ATOM     46  H   UNL     1      43.824 -52.392  53.223  0.00  0.00    +0.000 HD
ENDBRANCH  36  45
ENDBRANCH  33  34
ENDBRANCH  29  32
ENDBRANCH  27  28
ENDBRANCH  26  27
ENDBRANCH   1  25
TORSDOF 19
ENDMDL
MODEL 3
REMARK VINA RESULT:      -6.1      3.138     21.481
REMARK  Name = Deferoxamine.pdbqt.pdb
REMARK  19 active torsions:
REMARK  status: ('A' for Active; 'I' for Inactive)
REMARK    1  A    between atoms: C_1  and  C_2
REMARK    2  A    between atoms: C_3  and  C_4
REMARK    3  A    between atoms: C_4  and  N_5
REMARK    4  A    between atoms: C_6  and  C_9
REMARK    5  A    between atoms: C_10  and  C_11
REMARK    6  A    between atoms: N_13  and  O_14
REMARK    7  A    between atoms: N_13  and  C_16
REMARK    8  A    between atoms: C_17  and  C_18
REMARK    9  A    between atoms: C_19  and  C_20
REMARK   10  A    between atoms: C_20  and  N_21
REMARK   11  A    between atoms: C_24  and  N_25
REMARK   12  A    between atoms: N_25  and  O_28
REMARK   13  A    between atoms: C_26  and  C_30
REMARK   14  A    between atoms: C_31  and  C_32
REMARK   15  A    between atoms: N_34  and  C_36
REMARK   16  A    between atoms: C_37  and  C_38
REMARK   17  A    between atoms: C_38  and  C_39
REMARK   18  A    between atoms: C_40  and  N_41
REMARK   19  A    between atoms: N_41  and  O_45
REMARK                            x       y       z     vdW  Elec       q    Type
REMARK                         _______ _______ _______ _____ _____    ______ ____
ROOT
ATOM      1  C   UNL     1      49.187 -42.935  49.452  0.00  0.00    +0.000 C 
ATOM      2  C   UNL     1      49.010 -44.072  49.798  0.00  0.00    +0.000 C 
ENDROOT
BRANCH   2   3
ATOM      3  N   UNL     1      48.812 -45.348  50.187  0.00  0.00    +0.000 N 
ATOM      4  C   UNL     1      49.694 -46.412  50.276  0.00  0.00    +0.000 C 
ATOM      5  O   UNL     1      50.837 -46.413  49.831  0.00  0.00    +0.000 OA
BRANCH   4   6
ATOM      6  C   UNL     1      49.216 -47.623  50.910  0.00  0.00    +0.000 C 
ATOM      7  C   UNL     1      48.809 -48.628  51.428  0.00  0.00    +0.000 C 
BRANCH   7   8
ATOM      8  C   UNL     1      48.298 -49.826  52.046  0.00  0.00    +0.000 C 
ATOM      9  O   UNL     1      48.964 -50.850  51.996  0.00  0.00    +0.000 OA
ATOM     10  N   UNL     1      47.069 -49.694  52.653  0.00  0.00    +0.000 N 
ATOM     11  H   UNL     1      46.647 -48.775  52.612  0.00  0.00    +0.000 HD
BRANCH  10  12
ATOM     12  C   UNL     1      46.339 -50.624  53.308  0.00  0.00    +0.000 C 
ATOM     13  C   UNL     1      45.686 -51.447  53.887  0.00  0.00    +0.000 C 
BRANCH  13  14
ATOM     14  C   UNL     1      44.845 -52.496  54.621  0.00  0.00    +0.000 C 
BRANCH  14  15
ATOM     15  C   UNL     1      43.996 -53.539  55.353  0.00  0.00    +0.000 C 
ATOM     16  C   UNL     1      43.333 -54.358  55.928  0.00  0.00    +0.000 C 
BRANCH  16  17
ATOM     17  N   UNL     1      42.593 -55.277  56.579  0.00  0.00    +0.000 N 
ATOM     18  C   UNL     1      42.696 -55.786  57.852  0.00  0.00    +0.000 C 
ATOM     19  O   UNL     1      43.494 -55.532  58.736  0.00  0.00    +0.000 OA
ATOM     20  C   UNL     1      41.705 -56.828  58.310  0.00  0.00    +0.000 C 
BRANCH  17  21
ATOM     21  O   UNL     1      41.561 -55.739  55.723  0.00  0.00    +0.000 OA
ATOM     22  H   UNL     1      41.039 -56.330  56.304  0.00  0.00    +0.000 HD
ENDBRANCH  17  21
ENDBRANCH  16  17
ENDBRANCH  14  15
ENDBRANCH  13  14
ENDBRANCH  10  12
ENDBRANCH   7   8
ENDBRANCH   4   6
BRANCH   3  23
ATOM     23  O   UNL     1      47.614 -45.431  50.933  0.00  0.00    +0.000 OA
ATOM     24  H   UNL     1      47.344 -44.494  50.969  0.00  0.00    +0.000 HD
ENDBRANCH   3  23
ENDBRANCH   2   3
BRANCH   1  25
ATOM     25  C   UNL     1      49.427 -41.491  49.004  0.00  0.00    +0.000 C 
ATOM     26  C   UNL     1      49.623 -40.364  48.643  0.00  0.00    +0.000 C 
BRANCH  26  27
ATOM     27  C   UNL     1      49.883 -38.929  48.172  0.00  0.00    +0.000 C 
BRANCH  27  28
ATOM     28  N   UNL     1      50.116 -37.659  47.774  0.00  0.00    +0.000 N 
ATOM     29  C   UNL     1      49.358 -36.855  46.956  0.00  0.00    +0.000 C 
ATOM     30  O   UNL     1      48.300 -37.167  46.428  0.00  0.00    +0.000 OA
ATOM     31  H   UNL     1      50.967 -37.256  48.144  0.00  0.00    +0.000 HD
BRANCH  29  32
ATOM     32  C   UNL     1      49.889 -35.534  46.727  0.00  0.00    +0.000 C 
ATOM     33  C   UNL     1      50.353 -34.440  46.547  0.00  0.00    +0.000 C 
BRANCH  33  34
ATOM     34  C   UNL     1      50.932 -33.131  46.328  0.00  0.00    +0.000 C 
ATOM     35  O   UNL     1      50.314 -32.157  46.746  0.00  0.00    +0.000 OA
ATOM     36  N   UNL     1      52.126 -33.071  45.628  0.00  0.00    +0.000 N 
BRANCH  36  37
ATOM     37  C   UNL     1      52.959 -32.035  45.399  0.00  0.00    +0.000 C 
ATOM     38  C   UNL     1      53.703 -31.116  45.192  0.00  0.00    +0.000 C 
BRANCH  38  39
ATOM     39  C   UNL     1      54.658 -29.947  44.930  0.00  0.00    +0.000 C 
ATOM     40  C   UNL     1      55.402 -29.028  44.725  0.00  0.00    +0.000 C 
BRANCH  40  41
ATOM     41  C   UNL     1      56.348 -27.853  44.464  0.00  0.00    +0.000 C 
BRANCH  41  42
ATOM     42  N   UNL     1      57.246 -26.737  44.216  0.00  0.00    +0.000 NA
ATOM     43  H   UNL     1      56.869 -25.881  44.618  0.00  0.00    +0.000 HD
ATOM     44  H   UNL     1      58.142 -26.893  44.677  0.00  0.00    +0.000 HD
ENDBRANCH  41  42
ENDBRANCH  40  41
ENDBRANCH  38  39
ENDBRANCH  36  37
BRANCH  36  45
ATOM     45  O   UNL     1      52.811 -34.286  45.401  0.00  0.00    +0.000 OA
ATOM     46  H   UNL     1      53.117 -34.506  46.301  0.00  0.00    +0.000 HD
ENDBRANCH  36  45
ENDBRANCH  33  34
ENDBRANCH  29  32
ENDBRANCH  27  28
ENDBRANCH  26  27
ENDBRANCH   1  25
TORSDOF 19
ENDMDL
MODEL 4
REMARK VINA RESULT:      -5.9      4.538     21.969
REMARK  Name = Deferoxamine.pdbqt.pdb
REMARK  19 active torsions:
REMARK  status: ('A' for Active; 'I' for Inactive)
REMARK    1  A    between atoms: C_1  and  C_2
REMARK    2  A    between atoms: C_3  and  C_4
REMARK    3  A    between atoms: C_4  and  N_5
REMARK    4  A    between atoms: C_6  and  C_9
REMARK    5  A    between atoms: C_10  and  C_11
REMARK    6  A    between atoms: N_13  and  O_14
REMARK    7  A    between atoms: N_13  and  C_16
REMARK    8  A    between atoms: C_17  and  C_18
REMARK    9  A    between atoms: C_19  and  C_20
REMARK   10  A    between atoms: C_20  and  N_21
REMARK   11  A    between atoms: C_24  and  N_25
REMARK   12  A    between atoms: N_25  and  O_28
REMARK   13  A    between atoms: C_26  and  C_30
REMARK   14  A    between atoms: C_31  and  C_32
REMARK   15  A    between atoms: N_34  and  C_36
REMARK   16  A    between atoms: C_37  and  C_38
REMARK   17  A    between atoms: C_38  and  C_39
REMARK   18  A    between atoms: C_40  and  N_41
REMARK   19  A    between atoms: N_41  and  O_45
REMARK                            x       y       z     vdW  Elec       q    Type
REMARK                         _______ _______ _______ _____ _____    ______ ____
ROOT
ATOM      1  C   UNL     1      47.212 -44.607  51.198  0.00  0.00    +0.000 C 
ATOM      2  C   UNL     1      46.967 -45.671  51.699  0.00  0.00    +0.000 C 
ENDROOT
BRANCH   2   3
ATOM      3  N   UNL     1      46.693 -46.866  52.260  0.00  0.00    +0.000 N 
ATOM      4  C   UNL     1      47.178 -48.131  51.973  0.00  0.00    +0.000 C 
ATOM      5  O   UNL     1      47.856 -48.415  50.992  0.00  0.00    +0.000 OA
BRANCH   4   6
ATOM      6  C   UNL     1      46.828 -49.202  52.883  0.00  0.00    +0.000 C 
ATOM      7  C   UNL     1      46.550 -50.096  53.636  0.00  0.00    +0.000 C 
BRANCH   7   8
ATOM      8  C   UNL     1      46.229 -51.185  54.526  0.00  0.00    +0.000 C 
ATOM      9  O   UNL     1      45.095 -51.641  54.520  0.00  0.00    +0.000 OA
ATOM     10  N   UNL     1      47.267 -51.617  55.320  0.00  0.00    +0.000 N 
ATOM     11  H   UNL     1      48.150 -51.138  55.202  0.00  0.00    +0.000 HD
BRANCH  10  12
ATOM     12  C   UNL     1      47.278 -52.605  56.242  0.00  0.00    +0.000 C 
ATOM     13  C   UNL     1      47.292 -53.479  57.064  0.00  0.00    +0.000 C 
BRANCH  13  14
ATOM     14  C   UNL     1      47.315 -54.590  58.119  0.00  0.00    +0.000 C 
BRANCH  14  15
ATOM     15  C   UNL     1      47.332 -55.704  59.169  0.00  0.00    +0.000 C 
ATOM     16  C   UNL     1      47.343 -56.578  59.992  0.00  0.00    +0.000 C 
BRANCH  16  17
ATOM     17  N   UNL     1      47.348 -57.560  60.914  0.00  0.00    +0.000 N 
ATOM     18  C   UNL     1      46.331 -58.337  61.416  0.00  0.00    +0.000 C 
ATOM     19  O   UNL     1      45.142 -58.341  61.150  0.00  0.00    +0.000 OA
ATOM     20  C   UNL     1      46.646 -59.375  62.465  0.00  0.00    +0.000 C 
BRANCH  17  21
ATOM     21  O   UNL     1      48.671 -57.748  61.390  0.00  0.00    +0.000 OA
ATOM     22  H   UNL     1      48.549 -58.356  62.149  0.00  0.00    +0.000 HD
ENDBRANCH  17  21
ENDBRANCH  16  17
ENDBRANCH  14  15
ENDBRANCH  13  14
ENDBRANCH  10  12
ENDBRANCH   7   8
ENDBRANCH   4   6
BRANCH   3  23
ATOM     23  O   UNL     1      46.111 -46.664  53.532  0.00  0.00    +0.000 OA
ATOM     24  H   UNL     1      45.894 -45.714  53.497  0.00  0.00    +0.000 HD
ENDBRANCH   3  23
ENDBRANCH   2   3
BRANCH   1  25
ATOM     25  C   UNL     1      47.517 -43.255  50.546  0.00  0.00    +0.000 C 
ATOM     26  C   UNL     1      47.769 -42.197  50.039  0.00  0.00    +0.000 C 
BRANCH  26  27
ATOM     27  C   UNL     1      48.104 -40.847  49.397  0.00  0.00    +0.000 C 
BRANCH  27  28
ATOM     28  N   UNL     1      48.417 -39.662  48.831  0.00  0.00    +0.000 N 
ATOM     29  C   UNL     1      49.606 -38.972  48.867  0.00  0.00    +0.000 C 
ATOM     30  O   UNL     1      50.623 -39.329  49.443  0.00  0.00    +0.000 OA
ATOM     31  H   UNL     1      47.663 -39.239  48.305  0.00  0.00    +0.000 HD
BRANCH  29  32
ATOM     32  C   UNL     1      49.614 -37.721  48.148  0.00  0.00    +0.000 C 
ATOM     33  C   UNL     1      49.598 -36.683  47.543  0.00  0.00    +0.000 C 
BRANCH  33  34
ATOM     34  C   UNL     1      49.557 -35.431  46.816  0.00  0.00    +0.000 C 
ATOM     35  O   UNL     1      50.333 -34.546  47.161  0.00  0.00    +0.000 OA
ATOM     36  N   UNL     1      48.616 -35.310  45.807  0.00  0.00    +0.000 N 
BRANCH  36  37
ATOM     37  C   UNL     1      48.436 -34.344  44.882  0.00  0.00    +0.000 C 
ATOM     38  C   UNL     1      48.280 -33.484  44.060  0.00  0.00    +0.000 C 
BRANCH  38  39
ATOM     39  C   UNL     1      48.085 -32.381  43.015  0.00  0.00    +0.000 C 
ATOM     40  C   UNL     1      47.929 -31.521  42.193  0.00  0.00    +0.000 C 
BRANCH  40  41
ATOM     41  C   UNL     1      47.727 -30.426  41.141  0.00  0.00    +0.000 C 
BRANCH  41  42
ATOM     42  N   UNL     1      47.536 -29.387  40.144  0.00  0.00    +0.000 NA
ATOM     43  H   UNL     1      48.092 -28.565  40.375  0.00  0.00    +0.000 HD
ATOM     44  H   UNL     1      47.866 -29.703  39.233  0.00  0.00    +0.000 HD
ENDBRANCH  41  42
ENDBRANCH  40  41
ENDBRANCH  38  39
ENDBRANCH  36  37
BRANCH  36  45
ATOM     45  O   UNL     1      47.945 -36.484  45.397  0.00  0.00    +0.000 OA
ATOM     46  H   UNL     1      48.559 -37.176  45.705  0.00  0.00    +0.000 HD
ENDBRANCH  36  45
ENDBRANCH  33  34
ENDBRANCH  29  32
ENDBRANCH  27  28
ENDBRANCH  26  27
ENDBRANCH   1  25
TORSDOF 19
ENDMDL
MODEL 5
REMARK VINA RESULT:      -5.9      3.289     21.457
REMARK  Name = Deferoxamine.pdbqt.pdb
REMARK  19 active torsions:
REMARK  status: ('A' for Active; 'I' for Inactive)
REMARK    1  A    between atoms: C_1  and  C_2
REMARK    2  A    between atoms: C_3  and  C_4
REMARK    3  A    between atoms: C_4  and  N_5
REMARK    4  A    between atoms: C_6  and  C_9
REMARK    5  A    between atoms: C_10  and  C_11
REMARK    6  A    between atoms: N_13  and  O_14
REMARK    7  A    between atoms: N_13  and  C_16
REMARK    8  A    between atoms: C_17  and  C_18
REMARK    9  A    between atoms: C_19  and  C_20
REMARK   10  A    between atoms: C_20  and  N_21
REMARK   11  A    between atoms: C_24  and  N_25
REMARK   12  A    between atoms: N_25  and  O_28
REMARK   13  A    between atoms: C_26  and  C_30
REMARK   14  A    between atoms: C_31  and  C_32
REMARK   15  A    between atoms: N_34  and  C_36
REMARK   16  A    between atoms: C_37  and  C_38
REMARK   17  A    between atoms: C_38  and  C_39
REMARK   18  A    between atoms: C_40  and  N_41
REMARK   19  A    between atoms: N_41  and  O_45
REMARK                            x       y       z     vdW  Elec       q    Type
REMARK                         _______ _______ _______ _____ _____    ______ ____
ROOT
ATOM      1  C   UNL     1      48.314 -41.682  49.499  0.00  0.00    +0.000 C 
ATOM      2  C   UNL     1      47.942 -42.764  49.864  0.00  0.00    +0.000 C 
ENDROOT
BRANCH   2   3
ATOM      3  N   UNL     1      47.522 -43.979  50.274  0.00  0.00    +0.000 N 
ATOM      4  C   UNL     1      48.023 -45.242  50.012  0.00  0.00    +0.000 C 
ATOM      5  O   UNL     1      48.886 -45.495  49.178  0.00  0.00    +0.000 OA
BRANCH   4   6
ATOM      6  C   UNL     1      47.458 -46.350  50.754  0.00  0.00    +0.000 C 
ATOM      7  C   UNL     1      46.998 -47.267  51.380  0.00  0.00    +0.000 C 
BRANCH   7   8
ATOM      8  C   UNL     1      46.468 -48.371  52.142  0.00  0.00    +0.000 C 
ATOM      9  O   UNL     1      45.304 -48.704  51.971  0.00  0.00    +0.000 OA
ATOM     10  N   UNL     1      47.354 -48.960  53.015  0.00  0.00    +0.000 N 
ATOM     11  H   UNL     1      48.288 -48.569  53.035  0.00  0.00    +0.000 HD
BRANCH  10  12
ATOM     12  C   UNL     1      47.158 -50.001  53.853  0.00  0.00    +0.000 C 
ATOM     13  C   UNL     1      46.988 -50.927  54.597  0.00  0.00    +0.000 C 
BRANCH  13  14
ATOM     14  C   UNL     1      46.781 -52.112  55.545  0.00  0.00    +0.000 C 
BRANCH  14  15
ATOM     15  C   UNL     1      46.566 -53.295  56.494  0.00  0.00    +0.000 C 
ATOM     16  C   UNL     1      46.400 -54.223  57.237  0.00  0.00    +0.000 C 
BRANCH  16  17
ATOM     17  N   UNL     1      46.220 -55.263  58.074  0.00  0.00    +0.000 N 
ATOM     18  C   UNL     1      45.101 -55.710  58.737  0.00  0.00    +0.000 C 
ATOM     19  O   UNL     1      43.964 -55.275  58.737  0.00  0.00    +0.000 OA
ATOM     20  C   UNL     1      45.208 -56.924  59.626  0.00  0.00    +0.000 C 
BRANCH  17  21
ATOM     21  O   UNL     1      47.450 -55.950  58.238  0.00  0.00    +0.000 OA
ATOM     22  H   UNL     1      47.168 -56.848  58.510  0.00  0.00    +0.000 HD
ENDBRANCH  17  21
ENDBRANCH  16  17
ENDBRANCH  14  15
ENDBRANCH  13  14
ENDBRANCH  10  12
ENDBRANCH   7   8
ENDBRANCH   4   6
BRANCH   3  23
ATOM     23  O   UNL     1      46.689 -43.829  51.405  0.00  0.00    +0.000 OA
ATOM     24  H   UNL     1      45.822 -44.089  51.043  0.00  0.00    +0.000 HD
ENDBRANCH   3  23
ENDBRANCH   2   3
BRANCH   1  25
ATOM     25  C   UNL     1      48.782 -40.296  49.047  0.00  0.00    +0.000 C 
ATOM     26  C   UNL     1      49.160 -39.216  48.687  0.00  0.00    +0.000 C 
BRANCH  26  27
ATOM     27  C   UNL     1      49.654 -37.842  48.220  0.00  0.00    +0.000 C 
BRANCH  27  28
ATOM     28  N   UNL     1      50.104 -36.639  47.802  0.00  0.00    +0.000 N 
ATOM     29  C   UNL     1      49.472 -35.703  47.017  0.00  0.00    +0.000 C 
ATOM     30  O   UNL     1      48.349 -35.806  46.545  0.00  0.00    +0.000 OA
ATOM     31  H   UNL     1      51.034 -36.406  48.125  0.00  0.00    +0.000 HD
BRANCH  29  32
ATOM     32  C   UNL     1      50.234 -34.507  46.752  0.00  0.00    +0.000 C 
ATOM     33  C   UNL     1      50.869 -33.507  46.554  0.00  0.00    +0.000 C 
BRANCH  33  34
ATOM     34  C   UNL     1      51.645 -32.303  46.336  0.00  0.00    +0.000 C 
ATOM     35  O   UNL     1      51.205 -31.252  46.792  0.00  0.00    +0.000 OA
ATOM     36  N   UNL     1      52.809 -32.419  45.595  0.00  0.00    +0.000 N 
BRANCH  36  37
ATOM     37  C   UNL     1      53.791 -31.527  45.353  0.00  0.00    +0.000 C 
ATOM     38  C   UNL     1      54.666 -30.734  45.141  0.00  0.00    +0.000 C 
BRANCH  38  39
ATOM     39  C   UNL     1      55.785 -29.721  44.876  0.00  0.00    +0.000 C 
ATOM     40  C   UNL     1      56.658 -28.924  44.671  0.00  0.00    +0.000 C 
BRANCH  40  41
ATOM     41  C   UNL     1      57.770 -27.904  44.411  0.00  0.00    +0.000 C 
BRANCH  41  42
ATOM     42  N   UNL     1      58.825 -26.935  44.164  0.00  0.00    +0.000 NA
ATOM     43  H   UNL     1      58.447 -26.106  43.708  0.00  0.00    +0.000 HD
ATOM     44  H   UNL     1      59.225 -26.614  45.044  0.00  0.00    +0.000 HD
ENDBRANCH  41  42
ENDBRANCH  40  41
ENDBRANCH  38  39
ENDBRANCH  36  37
BRANCH  36  45
ATOM     45  O   UNL     1      53.281 -33.723  45.324  0.00  0.00    +0.000 OA
ATOM     46  H   UNL     1      54.099 -33.747  45.853  0.00  0.00    +0.000 HD
ENDBRANCH  36  45
ENDBRANCH  33  34
ENDBRANCH  29  32
ENDBRANCH  27  28
ENDBRANCH  26  27
ENDBRANCH   1  25
TORSDOF 19
ENDMDL
MODEL 6
REMARK VINA RESULT:      -5.8      3.204      6.190
REMARK  Name = Deferoxamine.pdbqt.pdb
REMARK  19 active torsions:
REMARK  status: ('A' for Active; 'I' for Inactive)
REMARK    1  A    between atoms: C_1  and  C_2
REMARK    2  A    between atoms: C_3  and  C_4
REMARK    3  A    between atoms: C_4  and  N_5
REMARK    4  A    between atoms: C_6  and  C_9
REMARK    5  A    between atoms: C_10  and  C_11
REMARK    6  A    between atoms: N_13  and  O_14
REMARK    7  A    between atoms: N_13  and  C_16
REMARK    8  A    between atoms: C_17  and  C_18
REMARK    9  A    between atoms: C_19  and  C_20
REMARK   10  A    between atoms: C_20  and  N_21
REMARK   11  A    between atoms: C_24  and  N_25
REMARK   12  A    between atoms: N_25  and  O_28
REMARK   13  A    between atoms: C_26  and  C_30
REMARK   14  A    between atoms: C_31  and  C_32
REMARK   15  A    between atoms: N_34  and  C_36
REMARK   16  A    between atoms: C_37  and  C_38
REMARK   17  A    between atoms: C_38  and  C_39
REMARK   18  A    between atoms: C_40  and  N_41
REMARK   19  A    between atoms: N_41  and  O_45
REMARK                            x       y       z     vdW  Elec       q    Type
REMARK                         _______ _______ _______ _____ _____    ______ ____
ROOT
ATOM      1  C   UNL     1      47.466 -45.765  51.897  0.00  0.00    +0.000 C 
ATOM      2  C   UNL     1      47.746 -44.711  51.393  0.00  0.00    +0.000 C 
ENDROOT
BRANCH   2   3
ATOM      3  N   UNL     1      48.062 -43.527  50.828  0.00  0.00    +0.000 N 
ATOM      4  C   UNL     1      47.661 -42.241  51.144  0.00  0.00    +0.000 C 
ATOM      5  O   UNL     1      46.767 -41.960  51.935  0.00  0.00    +0.000 OA
BRANCH   4   6
ATOM      6  C   UNL     1      48.324 -41.149  50.462  0.00  0.00    +0.000 C 
ATOM      7  C   UNL     1      48.870 -40.234  49.907  0.00  0.00    +0.000 C 
BRANCH   7   8
ATOM      8  C   UNL     1      49.507 -39.121  49.247  0.00  0.00    +0.000 C 
ATOM      9  O   UNL     1      50.728 -39.069  49.217  0.00  0.00    +0.000 OA
ATOM     10  N   UNL     1      48.649 -38.196  48.696  0.00  0.00    +0.000 N 
ATOM     11  H   UNL     1      47.660 -38.386  48.801  0.00  0.00    +0.000 HD
BRANCH  10  12
ATOM     12  C   UNL     1      48.939 -37.062  48.022  0.00  0.00    +0.000 C 
ATOM     13  C   UNL     1      49.202 -36.056  47.423  0.00  0.00    +0.000 C 
BRANCH  13  14
ATOM     14  C   UNL     1      49.546 -34.775  46.656  0.00  0.00    +0.000 C 
BRANCH  14  15
ATOM     15  C   UNL     1      49.889 -33.491  45.896  0.00  0.00    +0.000 C 
ATOM     16  C   UNL     1      50.160 -32.485  45.300  0.00  0.00    +0.000 C 
BRANCH  16  17
ATOM     17  N   UNL     1      50.469 -31.360  44.627  0.00  0.00    +0.000 N 
ATOM     18  C   UNL     1      51.432 -30.405  44.852  0.00  0.00    +0.000 C 
ATOM     19  O   UNL     1      52.273 -30.330  45.731  0.00  0.00    +0.000 OA
ATOM     20  C   UNL     1      51.539 -29.230  43.911  0.00  0.00    +0.000 C 
BRANCH  17  21
ATOM     21  O   UNL     1      49.595 -31.223  43.518  0.00  0.00    +0.000 OA
ATOM     22  H   UNL     1      48.823 -31.768  43.775  0.00  0.00    +0.000 HD
ENDBRANCH  17  21
ENDBRANCH  16  17
ENDBRANCH  14  15
ENDBRANCH  13  14
ENDBRANCH  10  12
ENDBRANCH   7   8
ENDBRANCH   4   6
BRANCH   3  23
ATOM     23  O   UNL     1      49.242 -43.673  50.064  0.00  0.00    +0.000 OA
ATOM     24  H   UNL     1      49.003 -44.415  49.478  0.00  0.00    +0.000 HD
ENDBRANCH   3  23
ENDBRANCH   2   3
BRANCH   1  25
ATOM     25  C   UNL     1      47.101 -47.100  52.551  0.00  0.00    +0.000 C 
ATOM     26  C   UNL     1      46.829 -48.147  53.069  0.00  0.00    +0.000 C 
BRANCH  26  27
ATOM     27  C   UNL     1      46.494 -49.485  53.736  0.00  0.00    +0.000 C 
BRANCH  27  28
ATOM     28  N   UNL     1      46.199 -50.657  54.341  0.00  0.00    +0.000 N 
ATOM     29  C   UNL     1      45.370 -51.667  53.914  0.00  0.00    +0.000 C 
ATOM     30  O   UNL     1      44.732 -51.676  52.871  0.00  0.00    +0.000 OA
ATOM     31  H   UNL     1      46.667 -50.798  55.227  0.00  0.00    +0.000 HD
BRANCH  29  32
ATOM     32  C   UNL     1      45.273 -52.800  54.801  0.00  0.00    +0.000 C 
ATOM     33  C   UNL     1      45.194 -53.729  55.559  0.00  0.00    +0.000 C 
BRANCH  33  34
ATOM     34  C   UNL     1      45.089 -54.835  56.488  0.00  0.00    +0.000 C 
ATOM     35  O   UNL     1      44.480 -55.834  56.118  0.00  0.00    +0.000 OA
ATOM     36  N   UNL     1      45.653 -54.671  57.743  0.00  0.00    +0.000 N 
BRANCH  36  37
ATOM     37  C   UNL     1      45.837 -55.552  58.747  0.00  0.00    +0.000 C 
ATOM     38  C   UNL     1      45.998 -56.337  59.641  0.00  0.00    +0.000 C 
BRANCH  38  39
ATOM     39  C   UNL     1      46.198 -57.335  60.785  0.00  0.00    +0.000 C 
ATOM     40  C   UNL     1      46.358 -58.121  61.678  0.00  0.00    +0.000 C 
BRANCH  40  41
ATOM     41  C   UNL     1      46.563 -59.125  62.815  0.00  0.00    +0.000 C 
BRANCH  41  42
ATOM     42  N   UNL     1      46.759 -60.079  63.895  0.00  0.00    +0.000 NA
ATOM     43  H   UNL     1      47.251 -59.640  64.672  0.00  0.00    +0.000 HD
ATOM     44  H   UNL     1      45.861 -60.385  64.266  0.00  0.00    +0.000 HD
ENDBRANCH  41  42
ENDBRANCH  40  41
ENDBRANCH  38  39
ENDBRANCH  36  37
BRANCH  36  45
ATOM     45  O   UNL     1      46.495 -53.552  57.938  0.00  0.00    +0.000 OA
ATOM     46  H   UNL     1      45.867 -52.815  57.823  0.00  0.00    +0.000 HD
ENDBRANCH  36  45
ENDBRANCH  33  34
ENDBRANCH  29  32
ENDBRANCH  27  28
ENDBRANCH  26  27
ENDBRANCH   1  25
TORSDOF 19
ENDMDL
MODEL 7
REMARK VINA RESULT:      -5.7      4.269      6.664
REMARK  Name = Deferoxamine.pdbqt.pdb
REMARK  19 active torsions:
REMARK  status: ('A' for Active; 'I' for Inactive)
REMARK    1  A    between atoms: C_1  and  C_2
REMARK    2  A    between atoms: C_3  and  C_4
REMARK    3  A    between atoms: C_4  and  N_5
REMARK    4  A    between atoms: C_6  and  C_9
REMARK    5  A    between atoms: C_10  and  C_11
REMARK    6  A    between atoms: N_13  and  O_14
REMARK    7  A    between atoms: N_13  and  C_16
REMARK    8  A    between atoms: C_17  and  C_18
REMARK    9  A    between atoms: C_19  and  C_20
REMARK   10  A    between atoms: C_20  and  N_21
REMARK   11  A    between atoms: C_24  and  N_25
REMARK   12  A    between atoms: N_25  and  O_28
REMARK   13  A    between atoms: C_26  and  C_30
REMARK   14  A    between atoms: C_31  and  C_32
REMARK   15  A    between atoms: N_34  and  C_36
REMARK   16  A    between atoms: C_37  and  C_38
REMARK   17  A    between atoms: C_38  and  C_39
REMARK   18  A    between atoms: C_40  and  N_41
REMARK   19  A    between atoms: N_41  and  O_45
REMARK                            x       y       z     vdW  Elec       q    Type
REMARK                         _______ _______ _______ _____ _____    ______ ____
ROOT
ATOM      1  C   UNL     1      47.281 -45.843  51.475  0.00  0.00    +0.000 C 
ATOM      2  C   UNL     1      47.602 -44.749  51.097  0.00  0.00    +0.000 C 
ENDROOT
BRANCH   2   3
ATOM      3  N   UNL     1      47.962 -43.520  50.672  0.00  0.00    +0.000 N 
ATOM      4  C   UNL     1      47.599 -42.265  51.129  0.00  0.00    +0.000 C 
ATOM      5  O   UNL     1      46.706 -42.046  51.940  0.00  0.00    +0.000 OA
BRANCH   4   6
ATOM      6  C   UNL     1      48.305 -41.125  50.580  0.00  0.00    +0.000 C 
ATOM      7  C   UNL     1      48.878 -40.175  50.119  0.00  0.00    +0.000 C 
BRANCH   7   8
ATOM      8  C   UNL     1      49.552 -39.036  49.547  0.00  0.00    +0.000 C 
ATOM      9  O   UNL     1      50.742 -38.874  49.776  0.00  0.00    +0.000 OA
ATOM     10  N   UNL     1      48.763 -38.216  48.772  0.00  0.00    +0.000 N 
ATOM     11  H   UNL     1      47.793 -38.491  48.675  0.00  0.00    +0.000 HD
BRANCH  10  12
ATOM     12  C   UNL     1      49.100 -37.088  48.111  0.00  0.00    +0.000 C 
ATOM     13  C   UNL     1      49.404 -36.087  47.522  0.00  0.00    +0.000 C 
BRANCH  13  14
ATOM     14  C   UNL     1      49.799 -34.815  46.766  0.00  0.00    +0.000 C 
BRANCH  14  15
ATOM     15  C   UNL     1      50.188 -33.539  46.015  0.00  0.00    +0.000 C 
ATOM     16  C   UNL     1      50.496 -32.539  45.427  0.00  0.00    +0.000 C 
BRANCH  16  17
ATOM     17  N   UNL     1      50.848 -31.418  44.767  0.00  0.00    +0.000 N 
ATOM     18  C   UNL     1      51.981 -30.642  44.839  0.00  0.00    +0.000 C 
ATOM     19  O   UNL     1      52.977 -30.771  45.528  0.00  0.00    +0.000 OA
ATOM     20  C   UNL     1      52.093 -29.419  43.962  0.00  0.00    +0.000 C 
BRANCH  17  21
ATOM     21  O   UNL     1      49.809 -31.055  43.872  0.00  0.00    +0.000 OA
ATOM     22  H   UNL     1      49.650 -31.881  43.370  0.00  0.00    +0.000 HD
ENDBRANCH  17  21
ENDBRANCH  16  17
ENDBRANCH  14  15
ENDBRANCH  13  14
ENDBRANCH  10  12
ENDBRANCH   7   8
ENDBRANCH   4   6
BRANCH   3  23
ATOM     23  O   UNL     1      49.145 -43.617  49.905  0.00  0.00    +0.000 OA
ATOM     24  H   UNL     1      49.346 -44.569  49.979  0.00  0.00    +0.000 HD
ENDBRANCH   3  23
ENDBRANCH   2   3
BRANCH   1  25
ATOM     25  C   UNL     1      46.856 -47.234  51.952  0.00  0.00    +0.000 C 
ATOM     26  C   UNL     1      46.512 -48.324  52.317  0.00  0.00    +0.000 C 
BRANCH  26  27
ATOM     27  C   UNL     1      46.062 -49.716  52.774  0.00  0.00    +0.000 C 
BRANCH  27  28
ATOM     28  N   UNL     1      45.657 -50.945  53.162  0.00  0.00    +0.000 N 
ATOM     29  C   UNL     1      45.851 -51.582  54.364  0.00  0.00    +0.000 C 
ATOM     30  O   UNL     1      46.449 -51.124  55.327  0.00  0.00    +0.000 OA
ATOM     31  H   UNL     1      45.133 -51.451  52.459  0.00  0.00    +0.000 HD
BRANCH  29  32
ATOM     32  C   UNL     1      45.281 -52.904  54.460  0.00  0.00    +0.000 C 
ATOM     33  C   UNL     1      44.800 -53.999  54.562  0.00  0.00    +0.000 C 
BRANCH  33  34
ATOM     34  C   UNL     1      44.203 -55.312  54.699  0.00  0.00    +0.000 C 
ATOM     35  O   UNL     1      44.952 -56.284  54.667  0.00  0.00    +0.000 OA
ATOM     36  N   UNL     1      42.825 -55.378  54.817  0.00  0.00    +0.000 N 
BRANCH  36  37
ATOM     37  C   UNL     1      42.015 -56.419  55.097  0.00  0.00    +0.000 C 
ATOM     38  C   UNL     1      41.297 -57.348  55.346  0.00  0.00    +0.000 C 
BRANCH  38  39
ATOM     39  C   UNL     1      40.384 -58.538  55.660  0.00  0.00    +0.000 C 
ATOM     40  C   UNL     1      39.665 -59.467  55.902  0.00  0.00    +0.000 C 
BRANCH  40  41
ATOM     41  C   UNL     1      38.745 -60.652  56.209  0.00  0.00    +0.000 C 
BRANCH  41  42
ATOM     42  N   UNL     1      37.872 -61.777  56.500  0.00  0.00    +0.000 NA
ATOM     43  H   UNL     1      37.704 -61.846  57.503  0.00  0.00    +0.000 HD
ATOM     44  H   UNL     1      36.958 -61.639  56.071  0.00  0.00    +0.000 HD
ENDBRANCH  41  42
ENDBRANCH  40  41
ENDBRANCH  38  39
ENDBRANCH  36  37
BRANCH  36  45
ATOM     45  O   UNL     1      42.132 -54.168  55.046  0.00  0.00    +0.000 OA
ATOM     46  H   UNL     1      42.777 -53.511  54.724  0.00  0.00    +0.000 HD
ENDBRANCH  36  45
ENDBRANCH  33  34
ENDBRANCH  29  32
ENDBRANCH  27  28
ENDBRANCH  26  27
ENDBRANCH   1  25
TORSDOF 19
ENDMDL
MODEL 8
REMARK VINA RESULT:      -5.6      2.812     21.663
REMARK  Name = Deferoxamine.pdbqt.pdb
REMARK  19 active torsions:
REMARK  status: ('A' for Active; 'I' for Inactive)
REMARK    1  A    between atoms: C_1  and  C_2
REMARK    2  A    between atoms: C_3  and  C_4
REMARK    3  A    between atoms: C_4  and  N_5
REMARK    4  A    between atoms: C_6  and  C_9
REMARK    5  A    between atoms: C_10  and  C_11
REMARK    6  A    between atoms: N_13  and  O_14
REMARK    7  A    between atoms: N_13  and  C_16
REMARK    8  A    between atoms: C_17  and  C_18
REMARK    9  A    between atoms: C_19  and  C_20
REMARK   10  A    between atoms: C_20  and  N_21
REMARK   11  A    between atoms: C_24  and  N_25
REMARK   12  A    between atoms: N_25  and  O_28
REMARK   13  A    between atoms: C_26  and  C_30
REMARK   14  A    between atoms: C_31  and  C_32
REMARK   15  A    between atoms: N_34  and  C_36
REMARK   16  A    between atoms: C_37  and  C_38
REMARK   17  A    between atoms: C_38  and  C_39
REMARK   18  A    between atoms: C_40  and  N_41
REMARK   19  A    between atoms: N_41  and  O_45
REMARK                            x       y       z     vdW  Elec       q    Type
REMARK                         _______ _______ _______ _____ _____    ______ ____
ROOT
ATOM      1  C   UNL     1      49.230 -40.852  49.348  0.00  0.00    +0.000 C 
ATOM      2  C   UNL     1      49.013 -41.935  49.820  0.00  0.00    +0.000 C 
ENDROOT
BRANCH   2   3
ATOM      3  N   UNL     1      48.767 -43.151  50.350  0.00  0.00    +0.000 N 
ATOM      4  C   UNL     1      47.757 -43.581  51.193  0.00  0.00    +0.000 C 
ATOM      5  O   UNL     1      46.962 -42.844  51.767  0.00  0.00    +0.000 OA
BRANCH   4   6
ATOM      6  C   UNL     1      47.657 -45.004  51.442  0.00  0.00    +0.000 C 
ATOM      7  C   UNL     1      47.559 -46.184  51.651  0.00  0.00    +0.000 C 
BRANCH   7   8
ATOM      8  C   UNL     1      47.425 -47.595  51.916  0.00  0.00    +0.000 C 
ATOM      9  O   UNL     1      47.731 -48.394  51.044  0.00  0.00    +0.000 OA
ATOM     10  N   UNL     1      46.949 -47.913  53.169  0.00  0.00    +0.000 N 
ATOM     11  H   UNL     1      46.745 -47.133  53.780  0.00  0.00    +0.000 HD
BRANCH  10  12
ATOM     12  C   UNL     1      46.718 -49.130  53.707  0.00  0.00    +0.000 C 
ATOM     13  C   UNL     1      46.515 -50.209  54.190  0.00  0.00    +0.000 C 
BRANCH  13  14
ATOM     14  C   UNL     1      46.259 -51.584  54.815  0.00  0.00    +0.000 C 
BRANCH  14  15
ATOM     15  C   UNL     1      45.995 -52.956  55.442  0.00  0.00    +0.000 C 
ATOM     16  C   UNL     1      45.790 -54.031  55.936  0.00  0.00    +0.000 C 
BRANCH  16  17
ATOM     17  N   UNL     1      45.561 -55.234  56.496  0.00  0.00    +0.000 N 
ATOM     18  C   UNL     1      44.647 -55.635  57.442  0.00  0.00    +0.000 C 
ATOM     19  O   UNL     1      43.790 -54.995  58.024  0.00  0.00    +0.000 OA
ATOM     20  C   UNL     1      44.631 -57.077  57.886  0.00  0.00    +0.000 C 
BRANCH  17  21
ATOM     21  O   UNL     1      46.470 -56.182  55.958  0.00  0.00    +0.000 OA
ATOM     22  H   UNL     1      46.352 -56.078  54.991  0.00  0.00    +0.000 HD
ENDBRANCH  17  21
ENDBRANCH  16  17
ENDBRANCH  14  15
ENDBRANCH  13  14
ENDBRANCH  10  12
ENDBRANCH   7   8
ENDBRANCH   4   6
BRANCH   3  23
ATOM     23  O   UNL     1      49.458 -44.135  49.606  0.00  0.00    +0.000 OA
ATOM     24  H   UNL     1      49.501 -43.717  48.726  0.00  0.00    +0.000 HD
ENDBRANCH   3  23
ENDBRANCH   2   3
BRANCH   1  25
ATOM     25  C   UNL     1      49.504 -39.465  48.761  0.00  0.00    +0.000 C 
ATOM     26  C   UNL     1      49.707 -38.379  48.294  0.00  0.00    +0.000 C 
BRANCH  26  27
ATOM     27  C   UNL     1      49.955 -36.993  47.689  0.00  0.00    +0.000 C 
BRANCH  27  28
ATOM     28  N   UNL     1      50.158 -35.765  47.163  0.00  0.00    +0.000 N 
ATOM     29  C   UNL     1      49.318 -35.009  46.380  0.00  0.00    +0.000 C 
ATOM     30  O   UNL     1      48.198 -35.334  46.012  0.00  0.00    +0.000 OA
ATOM     31  H   UNL     1      51.055 -35.357  47.391  0.00  0.00    +0.000 HD
BRANCH  29  32
ATOM     32  C   UNL     1      49.839 -33.725  45.981  0.00  0.00    +0.000 C 
ATOM     33  C   UNL     1      50.251 -32.647  45.645  0.00  0.00    +0.000 C 
BRANCH  33  34
ATOM     34  C   UNL     1      50.729 -31.338  45.250  0.00  0.00    +0.000 C 
ATOM     35  O   UNL     1      50.325 -30.882  44.185  0.00  0.00    +0.000 OA
ATOM     36  N   UNL     1      51.637 -30.711  46.086  0.00  0.00    +0.000 N 
BRANCH  36  37
ATOM     37  C   UNL     1      52.139 -29.459  46.060  0.00  0.00    +0.000 C 
ATOM     38  C   UNL     1      52.586 -28.346  46.040  0.00  0.00    +0.000 C 
BRANCH  38  39
ATOM     39  C   UNL     1      53.154 -26.923  46.021  0.00  0.00    +0.000 C 
ATOM     40  C   UNL     1      53.597 -25.808  46.001  0.00  0.00    +0.000 C 
BRANCH  40  41
ATOM     41  C   UNL     1      54.160 -24.385  45.971  0.00  0.00    +0.000 C 
BRANCH  41  42
ATOM     42  N   UNL     1      54.695 -23.033  45.943  0.00  0.00    +0.000 NA
ATOM     43  H   UNL     1      55.424 -22.954  45.236  0.00  0.00    +0.000 HD
ATOM     44  H   UNL     1      53.970 -22.370  45.675  0.00  0.00    +0.000 HD
ENDBRANCH  41  42
ENDBRANCH  40  41
ENDBRANCH  38  39
ENDBRANCH  36  37
BRANCH  36  45
ATOM     45  O   UNL     1      51.838 -31.272  47.368  0.00  0.00    +0.000 OA
ATOM     46  H   UNL     1      51.387 -30.620  47.937  0.00  0.00    +0.000 HD
ENDBRANCH  36  45
ENDBRANCH  33  34
ENDBRANCH  29  32
ENDBRANCH  27  28
ENDBRANCH  26  27
ENDBRANCH   1  25
TORSDOF 19
ENDMDL
MODEL 9
REMARK VINA RESULT:      -5.6      2.578     21.616
REMARK  Name = Deferoxamine.pdbqt.pdb
REMARK  19 active torsions:
REMARK  status: ('A' for Active; 'I' for Inactive)
REMARK    1  A    between atoms: C_1  and  C_2
REMARK    2  A    between atoms: C_3  and  C_4
REMARK    3  A    between atoms: C_4  and  N_5
REMARK    4  A    between atoms: C_6  and  C_9
REMARK    5  A    between atoms: C_10  and  C_11
REMARK    6  A    between atoms: N_13  and  O_14
REMARK    7  A    between atoms: N_13  and  C_16
REMARK    8  A    between atoms: C_17  and  C_18
REMARK    9  A    between atoms: C_19  and  C_20
REMARK   10  A    between atoms: C_20  and  N_21
REMARK   11  A    between atoms: C_24  and  N_25
REMARK   12  A    between atoms: N_25  and  O_28
REMARK   13  A    between atoms: C_26  and  C_30
REMARK   14  A    between atoms: C_31  and  C_32
REMARK   15  A    between atoms: N_34  and  C_36
REMARK   16  A    between atoms: C_37  and  C_38
REMARK   17  A    between atoms: C_38  and  C_39
REMARK   18  A    between atoms: C_40  and  N_41
REMARK   19  A    between atoms: N_41  and  O_45
REMARK                            x       y       z     vdW  Elec       q    Type
REMARK                         _______ _______ _______ _____ _____    ______ ____
ROOT
ATOM      1  C   UNL     1      48.259 -43.760  50.147  0.00  0.00    +0.000 C 
ATOM      2  C   UNL     1      48.158 -44.871  50.593  0.00  0.00    +0.000 C 
ENDROOT
BRANCH   2   3
ATOM      3  N   UNL     1      48.047 -46.118  51.094  0.00  0.00    +0.000 N 
ATOM      4  C   UNL     1      47.992 -47.345  50.456  0.00  0.00    +0.000 C 
ATOM      5  O   UNL     1      47.861 -47.501  49.246  0.00  0.00    +0.000 OA
BRANCH   4   6
ATOM      6  C   UNL     1      48.060 -48.532  51.284  0.00  0.00    +0.000 C 
ATOM      7  C   UNL     1      48.101 -49.516  51.971  0.00  0.00    +0.000 C 
BRANCH   7   8
ATOM      8  C   UNL     1      48.132 -50.692  52.805  0.00  0.00    +0.000 C 
ATOM      9  O   UNL     1      48.793 -51.656  52.449  0.00  0.00    +0.000 OA
ATOM     10  N   UNL     1      47.388 -50.610  53.961  0.00  0.00    +0.000 N 
ATOM     11  H   UNL     1      46.898 -49.737  54.116  0.00  0.00    +0.000 HD
BRANCH  10  12
ATOM     12  C   UNL     1      47.218 -51.534  54.932  0.00  0.00    +0.000 C 
ATOM     13  C   UNL     1      47.063 -52.354  55.793  0.00  0.00    +0.000 C 
BRANCH  13  14
ATOM     14  C   UNL     1      46.855 -53.404  56.889  0.00  0.00    +0.000 C 
BRANCH  14  15
ATOM     15  C   UNL     1      46.641 -54.457  57.980  0.00  0.00    +0.000 C 
ATOM     16  C   UNL     1      46.476 -55.282  58.836  0.00  0.00    +0.000 C 
BRANCH  16  17
ATOM     17  N   UNL     1      46.294 -56.203  59.802  0.00  0.00    +0.000 N 
ATOM     18  C   UNL     1      47.160 -57.111  60.365  0.00  0.00    +0.000 C 
ATOM     19  O   UNL     1      48.339 -57.317  60.133  0.00  0.00    +0.000 OA
ATOM     20  C   UNL     1      46.659 -58.035  61.446  0.00  0.00    +0.000 C 
BRANCH  17  21
ATOM     21  O   UNL     1      44.948 -56.155  60.248  0.00  0.00    +0.000 OA
ATOM     22  H   UNL     1      44.444 -56.023  59.419  0.00  0.00    +0.000 HD
ENDBRANCH  17  21
ENDBRANCH  16  17
ENDBRANCH  14  15
ENDBRANCH  13  14
ENDBRANCH  10  12
ENDBRANCH   7   8
ENDBRANCH   4   6
BRANCH   3  23
ATOM     23  O   UNL     1      48.413 -46.109  52.459  0.00  0.00    +0.000 OA
ATOM     24  H   UNL     1      48.271 -45.173  52.691  0.00  0.00    +0.000 HD
ENDBRANCH   3  23
ENDBRANCH   2   3
BRANCH   1  25
ATOM     25  C   UNL     1      48.396 -42.349  49.568  0.00  0.00    +0.000 C 
ATOM     26  C   UNL     1      48.501 -41.249  49.101  0.00  0.00    +0.000 C 
BRANCH  26  27
ATOM     27  C   UNL     1      48.633 -39.849  48.492  0.00  0.00    +0.000 C 
BRANCH  27  28
ATOM     28  N   UNL     1      48.737 -38.619  47.943  0.00  0.00    +0.000 N 
ATOM     29  C   UNL     1      48.903 -38.271  46.623  0.00  0.00    +0.000 C 
ATOM     30  O   UNL     1      48.990 -39.049  45.684  0.00  0.00    +0.000 OA
ATOM     31  H   UNL     1      48.674 -37.859  48.608  0.00  0.00    +0.000 HD
BRANCH  29  32
ATOM     32  C   UNL     1      48.975 -36.854  46.364  0.00  0.00    +0.000 C 
ATOM     33  C   UNL     1      49.013 -35.671  46.158  0.00  0.00    +0.000 C 
BRANCH  33  34
ATOM     34  C   UNL     1      49.046 -34.241  45.928  0.00  0.00    +0.000 C 
ATOM     35  O   UNL     1      47.989 -33.687  45.643  0.00  0.00    +0.000 OA
ATOM     36  N   UNL     1      50.275 -33.610  46.008  0.00  0.00    +0.000 N 
BRANCH  36  37
ATOM     37  C   UNL     1      50.594 -32.299  45.986  0.00  0.00    +0.000 C 
ATOM     38  C   UNL     1      50.876 -31.133  45.963  0.00  0.00    +0.000 C 
BRANCH  38  39
ATOM     39  C   UNL     1      51.236 -29.644  45.928  0.00  0.00    +0.000 C 
ATOM     40  C   UNL     1      51.521 -28.479  45.904  0.00  0.00    +0.000 C 
BRANCH  40  41
ATOM     41  C   UNL     1      51.887 -26.993  45.877  0.00  0.00    +0.000 C 
BRANCH  41  42
ATOM     42  N   UNL     1      52.236 -25.582  45.852  0.00  0.00    +0.000 NA
ATOM     43  H   UNL     1      51.394 -25.008  45.827  0.00  0.00    +0.000 HD
ATOM     44  H   UNL     1      52.729 -25.321  46.705  0.00  0.00    +0.000 HD
ENDBRANCH  41  42
ENDBRANCH  40  41
ENDBRANCH  38  39
ENDBRANCH  36  37
BRANCH  36  45
ATOM     45  O   UNL     1      51.353 -34.347  46.548  0.00  0.00    +0.000 OA
ATOM     46  H   UNL     1      52.119 -33.874  46.174  0.00  0.00    +0.000 HD
ENDBRANCH  36  45
ENDBRANCH  33  34
ENDBRANCH  29  32
ENDBRANCH  27  28
ENDBRANCH  26  27
ENDBRANCH   1  25
TORSDOF 19
ENDMDL
