MODEL 1
REMARK VINA RESULT:      -7.6      0.000      0.000
REMARK  Name = 
REMARK  25 active torsions:
REMARK  status: ('A' for Active; 'I' for Inactive)
REMARK    1  A    between atoms: O_2  and  C_17
REMARK    2  A    between atoms: O_2  and  C_36
REMARK    3  A    between atoms: O_3  and  C_20
REMARK    4  A    between atoms: O_3  and  C_37
REMARK    5  A    between atoms: O_4  and  C_21
REMARK    6  A    between atoms: O_5  and  C_22
REMARK    7  A    between atoms: O_7  and  C_30
REMARK    8  A    between atoms: O_8  and  C_31
REMARK    9  A    between atoms: O_8  and  C_39
REMARK   10  A    between atoms: O_12  and  C_41
REMARK   11  A    between atoms: O_13  and  C_51
REMARK   12  A    between atoms: O_13  and  C_55
REMARK   13  A    between atoms: N_15  and  C_44
REMARK   14  A    between atoms: C_18  and  C_29
REMARK   15  A    between atoms: C_24  and  C_33
REMARK   16  A    between atoms: C_24  and  C_34
REMARK   17  A    between atoms: C_32  and  C_35
REMARK   18  A    between atoms: C_36  and  C_38
REMARK   19  A    between atoms: C_37  and  C_40
REMARK   20  A    between atoms: C_39  and  C_41
REMARK   21  A    between atoms: C_41  and  C_44
REMARK   22  A    between atoms: C_44  and  C_48
REMARK   23  A    between atoms: C_55  and  C_56
REMARK   24  A    between atoms: C_55  and  C_57
REMARK   25  A    between atoms: C_55  and  C_58
REMARK                            x       y       z     vdW  Elec       q    Type
REMARK                         _______ _______ _______ _____ _____    ______ ____
ROOT
ATOM      1  O   UNL     1      53.692 -47.382  45.950  0.00  0.00    +0.000 OA
ATOM      2  O   UNL     1      50.596 -42.237  42.933  0.00  0.00    +0.000 OA
ATOM      3  C   UNL     1      51.421 -44.831  46.389  0.00  0.00    +0.000 C 
ATOM      4  C   UNL     1      51.866 -46.321  46.313  0.00  0.00    +0.000 C 
ATOM      5  C   UNL     1      50.981 -44.293  44.623  0.00  0.00    +0.000 C 
ATOM      6  C   UNL     1      53.202 -46.091  45.496  0.00  0.00    +0.000 C 
ATOM      7  C   UNL     1      50.289 -44.509  47.835  0.00  0.00    +0.000 C 
ATOM      8  C   UNL     1      49.282 -43.126  48.648  0.00  0.00    +0.000 C 
ATOM      9  C   UNL     1      52.340 -44.472  43.825  0.00  0.00    +0.000 C 
ATOM     10  C   UNL     1      53.047 -45.850  44.009  0.00  0.00    +0.000 C 
ATOM     11  C   UNL     1      48.872 -41.526  47.999  0.00  0.00    +0.000 C 
ATOM     12  C   UNL     1      52.911 -47.126  47.184  0.00  0.00    +0.000 C 
ATOM     13  C   UNL     1      50.248 -42.653  44.060  0.00  0.00    +0.000 C 
ATOM     14  C   UNL     1      47.817 -43.732  48.847  0.00  0.00    +0.000 C 
ATOM     15  C   UNL     1      48.181 -41.633  46.559  0.00  0.00    +0.000 C 
ATOM     16  C   UNL     1      50.002 -45.315  43.907  0.00  0.00    +0.000 C 
ATOM     17  C   UNL     1      49.015 -41.511  44.985  0.00  0.00    +0.000 C 
ATOM     18  C   UNL     1      46.713 -43.397  47.743  0.00  0.00    +0.000 C 
ATOM     19  C   UNL     1      47.006 -42.346  46.614  0.00  0.00    +0.000 C 
ATOM     20  C   UNL     1      47.782 -40.879  48.992  0.00  0.00    +0.000 C 
ATOM     21  C   UNL     1      49.897 -40.356  48.144  0.00  0.00    +0.000 C 
ATOM     22  C   UNL     1      46.030 -42.387  45.464  0.00  0.00    +0.000 C 
ENDROOT
BRANCH  17  23
ATOM     23  O   UNL     1      49.340 -40.127  44.851  0.00  0.00    +0.000 OA
ATOM     24  H   UNL     1      48.650 -39.762  44.266  0.00  0.00    +0.000 HD
ENDBRANCH  17  23
BRANCH   9  25
ATOM     25  O   UNL     1      53.261 -43.473  44.265  0.00  0.00    +0.000 OA
ATOM     26  H   UNL     1      53.573 -43.004  43.470  0.00  0.00    +0.000 HD
ENDBRANCH   9  25
BRANCH   8  27
ATOM     27  O   UNL     1      49.854 -42.987  49.964  0.00  0.00    +0.000 OA
ATOM     28  H   UNL     1      49.424 -43.618  50.567  0.00  0.00    +0.000 HD
ENDBRANCH   8  27
BRANCH  18  29
ATOM     29  O   UNL     1      46.364 -44.644  47.076  0.00  0.00    +0.000 OA
BRANCH  29  31
ATOM     30  O   UNL     1      44.110 -44.723  47.184  0.00  0.00    +0.000 OA
ATOM     31  C   UNL     1      45.196 -45.241  47.422  0.00  0.00    +0.000 C 
BRANCH  31  32
ATOM     32  C   UNL     1      45.338 -46.511  48.268  0.00  0.00    +0.000 C 
BRANCH  32  33
ATOM     33  O   UNL     1      45.093 -47.741  47.577  0.00  0.00    +0.000 OA
ATOM     34  H   UNL     1      44.338 -48.160  48.032  0.00  0.00    +0.000 HD
ENDBRANCH  32  33
BRANCH  32  35
ATOM     35  C   UNL     1      44.433 -46.371  49.520  0.00  0.00    +0.000 C 
BRANCH  35  36
ATOM     36  C   UNL     1      45.040 -47.018  50.760  0.00  0.00    +0.000 A 
ATOM     37  C   UNL     1      45.235 -46.249  51.919  0.00  0.00    +0.000 A 
ATOM     38  C   UNL     1      45.381 -48.381  50.796  0.00  0.00    +0.000 A 
ATOM     39  C   UNL     1      45.779 -46.819  53.072  0.00  0.00    +0.000 A 
ATOM     40  C   UNL     1      45.926 -48.948  51.950  0.00  0.00    +0.000 A 
ATOM     41  C   UNL     1      46.128 -48.166  53.085  0.00  0.00    +0.000 A 
ENDBRANCH  35  36
BRANCH  35  43
ATOM     42  O   UNL     1      41.969 -45.731  50.854  0.00  0.00    +0.000 OA
ATOM     43  N   UNL     1      43.113 -46.944  49.291  0.00  0.00    +0.000 N 
ATOM     44  C   UNL     1      42.030 -46.647  50.051  0.00  0.00    +0.000 C 
ATOM     45  H   UNL     1      43.063 -47.802  48.756  0.00  0.00    +0.000 HD
BRANCH  44  46
ATOM     46  O   UNL     1      41.038 -47.512  49.746  0.00  0.00    +0.000 OA
BRANCH  46  47
ATOM     47  C   UNL     1      40.700 -48.599  50.646  0.00  0.00    +0.000 C 
ATOM     48  C   UNL     1      39.876 -48.102  51.838  0.00  0.00    +0.000 C 
ATOM     49  C   UNL     1      39.827 -49.542  49.805  0.00  0.00    +0.000 C 
ATOM     50  C   UNL     1      41.954 -49.359  51.093  0.00  0.00    +0.000 C 
ENDBRANCH  46  47
ENDBRANCH  44  46
ENDBRANCH  35  43
ENDBRANCH  32  35
ENDBRANCH  31  32
ENDBRANCH  29  31
ENDBRANCH  18  29
BRANCH   7  51
ATOM     51  O   UNL     1      49.299 -44.704  46.989  0.00  0.00    +0.000 OA
BRANCH  51  53
ATOM     52  O   UNL     1      48.370 -46.445  46.623  0.00  0.00    +0.000 OA
ATOM     53  C   UNL     1      49.083 -45.962  47.495  0.00  0.00    +0.000 C 
BRANCH  53  54
ATOM     54  C   UNL     1      49.573 -46.505  49.266  0.00  0.00    +0.000 A 
ATOM     55  C   UNL     1      48.718 -46.406  50.450  0.00  0.00    +0.000 A 
ATOM     56  C   UNL     1      50.759 -47.195  49.667  0.00  0.00    +0.000 A 
ATOM     57  C   UNL     1      48.996 -46.891  51.753  0.00  0.00    +0.000 A 
ATOM     58  C   UNL     1      51.055 -47.690  50.971  0.00  0.00    +0.000 A 
ATOM     59  C   UNL     1      50.176 -47.539  52.015  0.00  0.00    +0.000 A 
ENDBRANCH  53  54
ENDBRANCH  51  53
ENDBRANCH   7  51
BRANCH   4  60
ATOM     60  O   UNL     1      50.893 -47.154  45.639  0.00  0.00    +0.000 OA
BRANCH  60  62
ATOM     61  O   UNL     1      50.513 -49.059  46.748  0.00  0.00    +0.000 OA
ATOM     62  C   UNL     1      50.869 -48.505  45.710  0.00  0.00    +0.000 C 
ATOM     63  C   UNL     1      51.390 -49.302  44.557  0.00  0.00    +0.000 C 
ENDBRANCH  60  62
ENDBRANCH   4  60
TORSDOF 17
ENDMDL
MODEL 2
REMARK VINA RESULT:      -7.2      9.874     15.397
REMARK  Name = 
REMARK  25 active torsions:
REMARK  status: ('A' for Active; 'I' for Inactive)
REMARK    1  A    between atoms: O_2  and  C_17
REMARK    2  A    between atoms: O_2  and  C_36
REMARK    3  A    between atoms: O_3  and  C_20
REMARK    4  A    between atoms: O_3  and  C_37
REMARK    5  A    between atoms: O_4  and  C_21
REMARK    6  A    between atoms: O_5  and  C_22
REMARK    7  A    between atoms: O_7  and  C_30
REMARK    8  A    between atoms: O_8  and  C_31
REMARK    9  A    between atoms: O_8  and  C_39
REMARK   10  A    between atoms: O_12  and  C_41
REMARK   11  A    between atoms: O_13  and  C_51
REMARK   12  A    between atoms: O_13  and  C_55
REMARK   13  A    between atoms: N_15  and  C_44
REMARK   14  A    between atoms: C_18  and  C_29
REMARK   15  A    between atoms: C_24  and  C_33
REMARK   16  A    between atoms: C_24  and  C_34
REMARK   17  A    between atoms: C_32  and  C_35
REMARK   18  A    between atoms: C_36  and  C_38
REMARK   19  A    between atoms: C_37  and  C_40
REMARK   20  A    between atoms: C_39  and  C_41
REMARK   21  A    between atoms: C_41  and  C_44
REMARK   22  A    between atoms: C_44  and  C_48
REMARK   23  A    between atoms: C_55  and  C_56
REMARK   24  A    between atoms: C_55  and  C_57
REMARK   25  A    between atoms: C_55  and  C_58
REMARK                            x       y       z     vdW  Elec       q    Type
REMARK                         _______ _______ _______ _____ _____    ______ ____
ROOT
ATOM      1  O   UNL     1      42.348 -59.491  59.792  0.00  0.00    +0.000 OA
ATOM      2  O   UNL     1      47.548 -61.035  55.826  0.00  0.00    +0.000 OA
ATOM      3  C   UNL     1      45.507 -58.533  58.813  0.00  0.00    +0.000 C 
ATOM      4  C   UNL     1      43.965 -58.366  58.948  0.00  0.00    +0.000 C 
ATOM      5  C   UNL     1      45.820 -59.522  57.224  0.00  0.00    +0.000 C 
ATOM      6  C   UNL     1      43.621 -59.889  59.213  0.00  0.00    +0.000 C 
ATOM      7  C   UNL     1      46.420 -56.953  59.193  0.00  0.00    +0.000 C 
ATOM      8  C   UNL     1      48.170 -56.228  59.244  0.00  0.00    +0.000 C 
ATOM      9  C   UNL     1      45.090 -60.904  57.491  0.00  0.00    +0.000 C 
ATOM     10  C   UNL     1      43.620 -60.796  58.001  0.00  0.00    +0.000 C 
ATOM     11  C   UNL     1      49.671 -56.912  58.588  0.00  0.00    +0.000 C 
ATOM     12  C   UNL     1      43.053 -58.265  60.236  0.00  0.00    +0.000 C 
ATOM     13  C   UNL     1      47.473 -59.941  56.426  0.00  0.00    +0.000 C 
ATOM     14  C   UNL     1      48.089 -54.871  58.404  0.00  0.00    +0.000 C 
ATOM     15  C   UNL     1      49.518 -57.296  57.042  0.00  0.00    +0.000 C 
ATOM     16  C   UNL     1      45.034 -58.930  55.980  0.00  0.00    +0.000 C 
ATOM     17  C   UNL     1      49.087 -58.905  56.399  0.00  0.00    +0.000 C 
ATOM     18  C   UNL     1      48.538 -54.912  56.872  0.00  0.00    +0.000 C 
ATOM     19  C   UNL     1      49.223 -56.193  56.275  0.00  0.00    +0.000 C 
ATOM     20  C   UNL     1      50.792 -55.759  58.674  0.00  0.00    +0.000 C 
ATOM     21  C   UNL     1      50.476 -57.945  59.439  0.00  0.00    +0.000 C 
ATOM     22  C   UNL     1      49.272 -56.220  54.767  0.00  0.00    +0.000 C 
ENDROOT
BRANCH  17  23
ATOM     23  O   UNL     1      50.256 -59.701  56.598  0.00  0.00    +0.000 OA
ATOM     24  H   UNL     1      49.922 -60.565  56.906  0.00  0.00    +0.000 HD
ENDBRANCH  17  23
BRANCH   9  25
ATOM     25  O   UNL     1      45.821 -61.621  58.486  0.00  0.00    +0.000 OA
ATOM     26  H   UNL     1      46.459 -60.997  58.876  0.00  0.00    +0.000 HD
ENDBRANCH   9  25
BRANCH   8  27
ATOM     27  O   UNL     1      48.366 -55.851  60.621  0.00  0.00    +0.000 OA
ATOM     28  H   UNL     1      49.096 -55.209  60.674  0.00  0.00    +0.000 HD
ENDBRANCH   8  27
BRANCH  18  29
ATOM     29  O   UNL     1      47.358 -54.650  56.060  0.00  0.00    +0.000 OA
BRANCH  29  31
ATOM     30  O   UNL     1      46.811 -52.479  56.365  0.00  0.00    +0.000 OA
ATOM     31  C   UNL     1      47.166 -53.383  55.615  0.00  0.00    +0.000 C 
BRANCH  31  32
ATOM     32  C   UNL     1      47.264 -53.204  54.096  0.00  0.00    +0.000 C 
BRANCH  32  33
ATOM     33  O   UNL     1      48.573 -52.908  53.594  0.00  0.00    +0.000 OA
ATOM     34  H   UNL     1      49.042 -52.451  54.317  0.00  0.00    +0.000 HD
ENDBRANCH  32  33
BRANCH  32  35
ATOM     35  C   UNL     1      46.231 -52.131  53.660  0.00  0.00    +0.000 C 
BRANCH  35  36
ATOM     36  C   UNL     1      45.211 -52.668  52.662  0.00  0.00    +0.000 A 
ATOM     37  C   UNL     1      44.008 -51.973  52.458  0.00  0.00    +0.000 A 
ATOM     38  C   UNL     1      45.452 -53.827  51.905  0.00  0.00    +0.000 A 
ATOM     39  C   UNL     1      43.062 -52.438  51.542  0.00  0.00    +0.000 A 
ATOM     40  C   UNL     1      44.504 -54.289  50.990  0.00  0.00    +0.000 A 
ATOM     41  C   UNL     1      43.308 -53.597  50.811  0.00  0.00    +0.000 A 
ENDBRANCH  35  36
BRANCH  35  43
ATOM     42  O   UNL     1      46.436 -49.485  54.763  0.00  0.00    +0.000 OA
ATOM     43  N   UNL     1      46.885 -50.966  53.080  0.00  0.00    +0.000 N 
ATOM     44  C   UNL     1      46.834 -49.729  53.637  0.00  0.00    +0.000 C 
ATOM     45  H   UNL     1      47.126 -51.004  52.099  0.00  0.00    +0.000 HD
BRANCH  44  46
ATOM     46  O   UNL     1      47.319 -48.836  52.748  0.00  0.00    +0.000 OA
BRANCH  46  47
ATOM     47  C   UNL     1      46.432 -47.909  52.069  0.00  0.00    +0.000 C 
ATOM     48  C   UNL     1      46.061 -46.728  52.971  0.00  0.00    +0.000 C 
ATOM     49  C   UNL     1      47.254 -47.382  50.883  0.00  0.00    +0.000 C 
ATOM     50  C   UNL     1      45.191 -48.626  51.526  0.00  0.00    +0.000 C 
ENDBRANCH  46  47
ENDBRANCH  44  46
ENDBRANCH  35  43
ENDBRANCH  32  35
ENDBRANCH  31  32
ENDBRANCH  29  31
ENDBRANCH  18  29
BRANCH   7  51
ATOM     51  O   UNL     1      46.387 -56.725  57.897  0.00  0.00    +0.000 OA
BRANCH  51  53
ATOM     52  O   UNL     1      45.462 -55.614  59.290  0.00  0.00    +0.000 OA
ATOM     53  C   UNL     1      45.440 -55.745  58.071  0.00  0.00    +0.000 C 
BRANCH  53  54
ATOM     54  C   UNL     1      44.271 -55.124  56.686  0.00  0.00    +0.000 A 
ATOM     55  C   UNL     1      44.172 -55.695  55.342  0.00  0.00    +0.000 A 
ATOM     56  C   UNL     1      43.252 -54.128  56.790  0.00  0.00    +0.000 A 
ATOM     57  C   UNL     1      43.251 -55.340  54.323  0.00  0.00    +0.000 A 
ATOM     58  C   UNL     1      42.318 -53.758  55.779  0.00  0.00    +0.000 A 
ATOM     59  C   UNL     1      42.315 -54.362  54.545  0.00  0.00    +0.000 A 
ENDBRANCH  53  54
ENDBRANCH  51  53
ENDBRANCH   7  51
BRANCH   4  60
ATOM     60  O   UNL     1      43.362 -57.819  57.752  0.00  0.00    +0.000 OA
BRANCH  60  62
ATOM     61  O   UNL     1      41.590 -56.602  58.375  0.00  0.00    +0.000 OA
ATOM     62  C   UNL     1      42.056 -57.476  57.647  0.00  0.00    +0.000 C 
ATOM     63  C   UNL     1      41.174 -58.255  56.723  0.00  0.00    +0.000 C 
ENDBRANCH  60  62
ENDBRANCH   4  60
TORSDOF 17
ENDMDL
MODEL 3
REMARK VINA RESULT:      -7.0      2.577      9.516
REMARK  Name = 
REMARK  25 active torsions:
REMARK  status: ('A' for Active; 'I' for Inactive)
REMARK    1  A    between atoms: O_2  and  C_17
REMARK    2  A    between atoms: O_2  and  C_36
REMARK    3  A    between atoms: O_3  and  C_20
REMARK    4  A    between atoms: O_3  and  C_37
REMARK    5  A    between atoms: O_4  and  C_21
REMARK    6  A    between atoms: O_5  and  C_22
REMARK    7  A    between atoms: O_7  and  C_30
REMARK    8  A    between atoms: O_8  and  C_31
REMARK    9  A    between atoms: O_8  and  C_39
REMARK   10  A    between atoms: O_12  and  C_41
REMARK   11  A    between atoms: O_13  and  C_51
REMARK   12  A    between atoms: O_13  and  C_55
REMARK   13  A    between atoms: N_15  and  C_44
REMARK   14  A    between atoms: C_18  and  C_29
REMARK   15  A    between atoms: C_24  and  C_33
REMARK   16  A    between atoms: C_24  and  C_34
REMARK   17  A    between atoms: C_32  and  C_35
REMARK   18  A    between atoms: C_36  and  C_38
REMARK   19  A    between atoms: C_37  and  C_40
REMARK   20  A    between atoms: C_39  and  C_41
REMARK   21  A    between atoms: C_41  and  C_44
REMARK   22  A    between atoms: C_44  and  C_48
REMARK   23  A    between atoms: C_55  and  C_56
REMARK   24  A    between atoms: C_55  and  C_57
REMARK   25  A    between atoms: C_55  and  C_58
REMARK                            x       y       z     vdW  Elec       q    Type
REMARK                         _______ _______ _______ _____ _____    ______ ____
ROOT
ATOM      1  O   UNL     1      40.383 -47.994  50.940  0.00  0.00    +0.000 OA
ATOM      2  O   UNL     1      45.063 -52.643  49.658  0.00  0.00    +0.000 OA
ATOM      3  C   UNL     1      43.765 -48.639  50.936  0.00  0.00    +0.000 C 
ATOM      4  C   UNL     1      42.470 -47.916  50.462  0.00  0.00    +0.000 C 
ATOM      5  C   UNL     1      43.936 -50.213  49.889  0.00  0.00    +0.000 C 
ATOM      6  C   UNL     1      41.435 -48.996  50.981  0.00  0.00    +0.000 C 
ATOM      7  C   UNL     1      45.182 -47.452  51.182  0.00  0.00    +0.000 C 
ATOM      8  C   UNL     1      47.014 -47.412  51.659  0.00  0.00    +0.000 C 
ATOM      9  C   UNL     1      42.629 -51.039  50.235  0.00  0.00    +0.000 C 
ATOM     10  C   UNL     1      41.290 -50.245  50.138  0.00  0.00    +0.000 C 
ATOM     11  C   UNL     1      48.154 -48.767  51.791  0.00  0.00    +0.000 C 
ATOM     12  C   UNL     1      41.448 -47.014  51.262  0.00  0.00    +0.000 C 
ATOM     13  C   UNL     1      45.356 -51.448  49.877  0.00  0.00    +0.000 C 
ATOM     14  C   UNL     1      47.729 -46.554  50.517  0.00  0.00    +0.000 C 
ATOM     15  C   UNL     1      48.182 -49.646  50.454  0.00  0.00    +0.000 C 
ATOM     16  C   UNL     1      43.783 -49.924  48.337  0.00  0.00    +0.000 C 
ATOM     17  C   UNL     1      47.227 -51.125  50.153  0.00  0.00    +0.000 C 
ATOM     18  C   UNL     1      48.429 -47.341  49.317  0.00  0.00    +0.000 C 
ATOM     19  C   UNL     1      48.581 -48.904  49.368  0.00  0.00    +0.000 C 
ATOM     20  C   UNL     1      49.625 -48.131  51.961  0.00  0.00    +0.000 C 
ATOM     21  C   UNL     1      48.211 -49.592  53.116  0.00  0.00    +0.000 C 
ATOM     22  C   UNL     1      48.935 -49.533  48.043  0.00  0.00    +0.000 C 
ENDROOT
BRANCH  17  23
ATOM     23  O   UNL     1      47.846 -52.128  50.961  0.00  0.00    +0.000 OA
ATOM     24  H   UNL     1      48.226 -52.764  50.325  0.00  0.00    +0.000 HD
ENDBRANCH  17  23
BRANCH   9  25
ATOM     25  O   UNL     1      42.731 -51.513  51.579  0.00  0.00    +0.000 OA
ATOM     26  H   UNL     1      43.574 -51.996  51.647  0.00  0.00    +0.000 HD
ENDBRANCH   9  25
BRANCH   8  27
ATOM     27  O   UNL     1      47.059 -46.619  52.862  0.00  0.00    +0.000 OA
ATOM     28  H   UNL     1      46.534 -47.059  53.554  0.00  0.00    +0.000 HD
ENDBRANCH   8  27
BRANCH  18  29
ATOM     29  O   UNL     1      47.694 -47.030  48.099  0.00  0.00    +0.000 OA
BRANCH  29  31
ATOM     30  O   UNL     1      49.031 -46.615  46.326  0.00  0.00    +0.000 OA
ATOM     31  C   UNL     1      48.281 -46.198  47.202  0.00  0.00    +0.000 C 
BRANCH  31  32
ATOM     32  C   UNL     1      48.070 -44.703  47.465  0.00  0.00    +0.000 C 
BRANCH  32  33
ATOM     33  O   UNL     1      47.897 -43.890  46.299  0.00  0.00    +0.000 OA
ATOM     34  H   UNL     1      47.649 -43.003  46.622  0.00  0.00    +0.000 HD
ENDBRANCH  32  33
BRANCH  32  35
ATOM     35  C   UNL     1      49.238 -44.190  48.349  0.00  0.00    +0.000 C 
BRANCH  35  36
ATOM     36  C   UNL     1      49.052 -42.742  48.788  0.00  0.00    +0.000 A 
ATOM     37  C   UNL     1      48.320 -42.459  49.953  0.00  0.00    +0.000 A 
ATOM     38  C   UNL     1      49.624 -41.671  48.080  0.00  0.00    +0.000 A 
ATOM     39  C   UNL     1      48.143 -41.142  50.383  0.00  0.00    +0.000 A 
ATOM     40  C   UNL     1      49.445 -40.356  48.513  0.00  0.00    +0.000 A 
ATOM     41  C   UNL     1      48.703 -40.092  49.662  0.00  0.00    +0.000 A 
ENDBRANCH  35  36
BRANCH  35  43
ATOM     42  O   UNL     1      51.612 -45.532  49.255  0.00  0.00    +0.000 OA
ATOM     43  N   UNL     1      50.518 -44.311  47.663  0.00  0.00    +0.000 N 
ATOM     44  C   UNL     1      51.614 -44.878  48.226  0.00  0.00    +0.000 C 
ATOM     45  H   UNL     1      50.686 -43.699  46.876  0.00  0.00    +0.000 HD
BRANCH  44  46
ATOM     46  O   UNL     1      52.684 -44.618  47.445  0.00  0.00    +0.000 OA
BRANCH  46  47
ATOM     47  C   UNL     1      53.469 -45.700  46.879  0.00  0.00    +0.000 C 
ATOM     48  C   UNL     1      52.586 -46.686  46.107  0.00  0.00    +0.000 C 
ATOM     49  C   UNL     1      54.420 -45.013  45.888  0.00  0.00    +0.000 C 
ATOM     50  C   UNL     1      54.305 -46.401  47.955  0.00  0.00    +0.000 C 
ENDBRANCH  46  47
ENDBRANCH  44  46
ENDBRANCH  35  43
ENDBRANCH  32  35
ENDBRANCH  31  32
ENDBRANCH  29  31
ENDBRANCH  18  29
BRANCH   7  51
ATOM     51  O   UNL     1      45.532 -47.753  49.949  0.00  0.00    +0.000 OA
BRANCH  51  53
ATOM     52  O   UNL     1      44.821 -45.980  50.566  0.00  0.00    +0.000 OA
ATOM     53  C   UNL     1      45.109 -46.524  49.505  0.00  0.00    +0.000 C 
BRANCH  53  54
ATOM     54  C   UNL     1      44.805 -46.094  47.663  0.00  0.00    +0.000 A 
ATOM     55  C   UNL     1      44.764 -47.059  46.563  0.00  0.00    +0.000 A 
ATOM     56  C   UNL     1      44.447 -44.825  47.114  0.00  0.00    +0.000 A 
ATOM     57  C   UNL     1      44.438 -46.803  45.207  0.00  0.00    +0.000 A 
ATOM     58  C   UNL     1      44.116 -44.548  45.755  0.00  0.00    +0.000 A 
ATOM     59  C   UNL     1      44.111 -45.535  44.800  0.00  0.00    +0.000 A 
ENDBRANCH  53  54
ENDBRANCH  51  53
ENDBRANCH   7  51
BRANCH   4  60
ATOM     60  O   UNL     1      42.446 -47.709  49.030  0.00  0.00    +0.000 OA
BRANCH  60  62
ATOM     61  O   UNL     1      41.535 -45.703  48.643  0.00  0.00    +0.000 OA
ATOM     62  C   UNL     1      41.563 -46.906  48.393  0.00  0.00    +0.000 C 
ATOM     63  C   UNL     1      40.553 -47.521  47.476  0.00  0.00    +0.000 C 
ENDBRANCH  60  62
ENDBRANCH   4  60
TORSDOF 17
ENDMDL
MODEL 4
REMARK VINA RESULT:      -6.9      4.079      7.316
REMARK  Name = 
REMARK  25 active torsions:
REMARK  status: ('A' for Active; 'I' for Inactive)
REMARK    1  A    between atoms: O_2  and  C_17
REMARK    2  A    between atoms: O_2  and  C_36
REMARK    3  A    between atoms: O_3  and  C_20
REMARK    4  A    between atoms: O_3  and  C_37
REMARK    5  A    between atoms: O_4  and  C_21
REMARK    6  A    between atoms: O_5  and  C_22
REMARK    7  A    between atoms: O_7  and  C_30
REMARK    8  A    between atoms: O_8  and  C_31
REMARK    9  A    between atoms: O_8  and  C_39
REMARK   10  A    between atoms: O_12  and  C_41
REMARK   11  A    between atoms: O_13  and  C_51
REMARK   12  A    between atoms: O_13  and  C_55
REMARK   13  A    between atoms: N_15  and  C_44
REMARK   14  A    between atoms: C_18  and  C_29
REMARK   15  A    between atoms: C_24  and  C_33
REMARK   16  A    between atoms: C_24  and  C_34
REMARK   17  A    between atoms: C_32  and  C_35
REMARK   18  A    between atoms: C_36  and  C_38
REMARK   19  A    between atoms: C_37  and  C_40
REMARK   20  A    between atoms: C_39  and  C_41
REMARK   21  A    between atoms: C_41  and  C_44
REMARK   22  A    between atoms: C_44  and  C_48
REMARK   23  A    between atoms: C_55  and  C_56
REMARK   24  A    between atoms: C_55  and  C_57
REMARK   25  A    between atoms: C_55  and  C_58
REMARK                            x       y       z     vdW  Elec       q    Type
REMARK                         _______ _______ _______ _____ _____    ______ ____
ROOT
ATOM      1  O   UNL     1      48.813 -44.206  50.113  0.00  0.00    +0.000 OA
ATOM      2  O   UNL     1      45.294 -47.226  45.249  0.00  0.00    +0.000 OA
ATOM      3  C   UNL     1      45.793 -45.663  49.331  0.00  0.00    +0.000 C 
ATOM      4  C   UNL     1      47.145 -45.551  50.095  0.00  0.00    +0.000 C 
ATOM      5  C   UNL     1      46.140 -46.618  47.728  0.00  0.00    +0.000 C 
ATOM      6  C   UNL     1      47.876 -44.590  49.070  0.00  0.00    +0.000 C 
ATOM      7  C   UNL     1      44.381 -46.106  50.464  0.00  0.00    +0.000 C 
ATOM      8  C   UNL     1      42.524 -46.479  50.441  0.00  0.00    +0.000 C 
ATOM      9  C   UNL     1      47.185 -45.704  46.964  0.00  0.00    +0.000 C 
ATOM     10  C   UNL     1      48.409 -45.237  47.809  0.00  0.00    +0.000 C 
ATOM     11  C   UNL     1      41.478 -46.808  49.044  0.00  0.00    +0.000 C 
ATOM     12  C   UNL     1      47.689 -44.419  51.056  0.00  0.00    +0.000 C 
ATOM     13  C   UNL     1      44.902 -47.203  46.437  0.00  0.00    +0.000 C 
ATOM     14  C   UNL     1      42.359 -47.851  51.244  0.00  0.00    +0.000 C 
ATOM     15  C   UNL     1      42.063 -47.988  48.134  0.00  0.00    +0.000 C 
ATOM     16  C   UNL     1      46.950 -47.958  47.988  0.00  0.00    +0.000 C 
ATOM     17  C   UNL     1      43.091 -47.785  46.689  0.00  0.00    +0.000 C 
ATOM     18  C   UNL     1      42.277 -49.205  50.402  0.00  0.00    +0.000 C 
ATOM     19  C   UNL     1      42.160 -49.167  48.836  0.00  0.00    +0.000 C 
ATOM     20  C   UNL     1      40.066 -47.322  49.624  0.00  0.00    +0.000 C 
ATOM     21  C   UNL     1      40.869 -45.611  48.248  0.00  0.00    +0.000 C 
ATOM     22  C   UNL     1      42.439 -50.488  48.163  0.00  0.00    +0.000 C 
ENDROOT
BRANCH  17  23
ATOM     23  O   UNL     1      42.209 -47.291  45.681  0.00  0.00    +0.000 OA
ATOM     24  H   UNL     1      41.526 -47.981  45.584  0.00  0.00    +0.000 HD
ENDBRANCH  17  23
BRANCH   9  25
ATOM     25  O   UNL     1      46.517 -44.524  46.517  0.00  0.00    +0.000 OA
ATOM     26  H   UNL     1      47.026 -44.177  45.762  0.00  0.00    +0.000 HD
ENDBRANCH   9  25
BRANCH   8  27
ATOM     27  O   UNL     1      41.936 -45.449  51.258  0.00  0.00    +0.000 OA
ATOM     28  H   UNL     1      41.313 -45.856  51.886  0.00  0.00    +0.000 HD
ENDBRANCH   8  27
BRANCH  18  29
ATOM     29  O   UNL     1      43.463 -49.991  50.715  0.00  0.00    +0.000 OA
BRANCH  29  31
ATOM     30  O   UNL     1      42.166 -51.631  51.568  0.00  0.00    +0.000 OA
ATOM     31  C   UNL     1      43.283 -51.198  51.309  0.00  0.00    +0.000 C 
BRANCH  31  32
ATOM     32  C   UNL     1      44.567 -51.893  51.774  0.00  0.00    +0.000 C 
BRANCH  32  33
ATOM     33  O   UNL     1      45.106 -52.862  50.868  0.00  0.00    +0.000 OA
ATOM     34  H   UNL     1      45.024 -53.725  51.316  0.00  0.00    +0.000 HD
ENDBRANCH  32  33
BRANCH  32  35
ATOM     35  C   UNL     1      44.312 -52.505  53.177  0.00  0.00    +0.000 C 
BRANCH  35  36
ATOM     36  C   UNL     1      45.604 -52.834  53.918  0.00  0.00    +0.000 A 
ATOM     37  C   UNL     1      46.474 -53.806  53.398  0.00  0.00    +0.000 A 
ATOM     38  C   UNL     1      45.976 -52.164  55.096  0.00  0.00    +0.000 A 
ATOM     39  C   UNL     1      47.669 -54.118  54.051  0.00  0.00    +0.000 A 
ATOM     40  C   UNL     1      47.171 -52.479  55.747  0.00  0.00    +0.000 A 
ATOM     41  C   UNL     1      48.015 -53.457  55.226  0.00  0.00    +0.000 A 
ENDBRANCH  35  36
BRANCH  35  43
ATOM     42  O   UNL     1      42.331 -53.437  55.038  0.00  0.00    +0.000 OA
ATOM     43  N   UNL     1      43.501 -53.711  53.093  0.00  0.00    +0.000 N 
ATOM     44  C   UNL     1      42.664 -54.117  54.082  0.00  0.00    +0.000 C 
ATOM     45  H   UNL     1      43.782 -54.419  52.428  0.00  0.00    +0.000 HD
BRANCH  44  46
ATOM     46  O   UNL     1      42.253 -55.374  53.811  0.00  0.00    +0.000 OA
BRANCH  46  47
ATOM     47  C   UNL     1      42.772 -56.502  54.560  0.00  0.00    +0.000 C 
ATOM     48  C   UNL     1      44.052 -56.130  55.316  0.00  0.00    +0.000 C 
ATOM     49  C   UNL     1      41.674 -56.828  55.584  0.00  0.00    +0.000 C 
ATOM     50  C   UNL     1      42.976 -57.723  53.656  0.00  0.00    +0.000 C 
ENDBRANCH  46  47
ENDBRANCH  44  46
ENDBRANCH  35  43
ENDBRANCH  32  35
ENDBRANCH  31  32
ENDBRANCH  29  31
ENDBRANCH  18  29
BRANCH   7  51
ATOM     51  O   UNL     1      44.614 -47.356  50.122  0.00  0.00    +0.000 OA
BRANCH  51  53
ATOM     52  O   UNL     1      44.802 -46.628  51.984  0.00  0.00    +0.000 OA
ATOM     53  C   UNL     1      45.169 -47.613  51.352  0.00  0.00    +0.000 C 
BRANCH  53  54
ATOM     54  C   UNL     1      46.428 -49.017  51.689  0.00  0.00    +0.000 A 
ATOM     55  C   UNL     1      46.987 -49.915  50.678  0.00  0.00    +0.000 A 
ATOM     56  C   UNL     1      47.099 -49.307  52.917  0.00  0.00    +0.000 A 
ATOM     57  C   UNL     1      47.997 -50.894  50.861  0.00  0.00    +0.000 A 
ATOM     58  C   UNL     1      48.116 -50.285  53.121  0.00  0.00    +0.000 A 
ATOM     59  C   UNL     1      48.566 -51.080  52.094  0.00  0.00    +0.000 A 
ENDBRANCH  53  54
ENDBRANCH  51  53
ENDBRANCH   7  51
BRANCH   4  60
ATOM     60  O   UNL     1      47.789 -46.835  50.270  0.00  0.00    +0.000 OA
BRANCH  60  62
ATOM     61  O   UNL     1      49.061 -46.701  52.106  0.00  0.00    +0.000 OA
ATOM     62  C   UNL     1      48.961 -47.015  50.922  0.00  0.00    +0.000 C 
ATOM     63  C   UNL     1      50.154 -47.488  50.152  0.00  0.00    +0.000 C 
ENDBRANCH  60  62
ENDBRANCH   4  60
TORSDOF 17
ENDMDL
MODEL 5
REMARK VINA RESULT:      -6.7      2.340      5.824
REMARK  Name = 
REMARK  25 active torsions:
REMARK  status: ('A' for Active; 'I' for Inactive)
REMARK    1  A    between atoms: O_2  and  C_17
REMARK    2  A    between atoms: O_2  and  C_36
REMARK    3  A    between atoms: O_3  and  C_20
REMARK    4  A    between atoms: O_3  and  C_37
REMARK    5  A    between atoms: O_4  and  C_21
REMARK    6  A    between atoms: O_5  and  C_22
REMARK    7  A    between atoms: O_7  and  C_30
REMARK    8  A    between atoms: O_8  and  C_31
REMARK    9  A    between atoms: O_8  and  C_39
REMARK   10  A    between atoms: O_12  and  C_41
REMARK   11  A    between atoms: O_13  and  C_51
REMARK   12  A    between atoms: O_13  and  C_55
REMARK   13  A    between atoms: N_15  and  C_44
REMARK   14  A    between atoms: C_18  and  C_29
REMARK   15  A    between atoms: C_24  and  C_33
REMARK   16  A    between atoms: C_24  and  C_34
REMARK   17  A    between atoms: C_32  and  C_35
REMARK   18  A    between atoms: C_36  and  C_38
REMARK   19  A    between atoms: C_37  and  C_40
REMARK   20  A    between atoms: C_39  and  C_41
REMARK   21  A    between atoms: C_41  and  C_44
REMARK   22  A    between atoms: C_44  and  C_48
REMARK   23  A    between atoms: C_55  and  C_56
REMARK   24  A    between atoms: C_55  and  C_57
REMARK   25  A    between atoms: C_55  and  C_58
REMARK                            x       y       z     vdW  Elec       q    Type
REMARK                         _______ _______ _______ _____ _____    ______ ____
ROOT
ATOM      1  O   UNL     1      49.878 -42.450  45.522  0.00  0.00    +0.000 OA
ATOM      2  O   UNL     1      47.531 -42.343  51.818  0.00  0.00    +0.000 OA
ATOM      3  C   UNL     1      48.970 -44.404  48.208  0.00  0.00    +0.000 C 
ATOM      4  C   UNL     1      48.844 -43.868  46.752  0.00  0.00    +0.000 C 
ATOM      5  C   UNL     1      47.974 -43.231  49.319  0.00  0.00    +0.000 C 
ATOM      6  C   UNL     1      49.666 -42.530  46.958  0.00  0.00    +0.000 C 
ATOM      7  C   UNL     1      48.776 -46.256  48.294  0.00  0.00    +0.000 C 
ATOM      8  C   UNL     1      48.731 -47.685  49.536  0.00  0.00    +0.000 C 
ATOM      9  C   UNL     1      48.695 -41.832  49.132  0.00  0.00    +0.000 C 
ATOM     10  C   UNL     1      48.941 -41.398  47.654  0.00  0.00    +0.000 C 
ATOM     11  C   UNL     1      48.593 -47.610  51.305  0.00  0.00    +0.000 C 
ATOM     12  C   UNL     1      49.861 -43.932  45.543  0.00  0.00    +0.000 C 
ATOM     13  C   UNL     1      47.618 -43.402  51.159  0.00  0.00    +0.000 C 
ATOM     14  C   UNL     1      47.406 -48.507  49.186  0.00  0.00    +0.000 C 
ATOM     15  C   UNL     1      47.333 -46.736  51.762  0.00  0.00    +0.000 C 
ATOM     16  C   UNL     1      46.514 -42.965  48.759  0.00  0.00    +0.000 C 
ATOM     17  C   UNL     1      47.358 -45.002  52.186  0.00  0.00    +0.000 C 
ATOM     18  C   UNL     1      46.089 -48.201  50.036  0.00  0.00    +0.000 C 
ATOM     19  C   UNL     1      46.152 -47.270  51.300  0.00  0.00    +0.000 C 
ATOM     20  C   UNL     1      48.330 -49.113  51.821  0.00  0.00    +0.000 C 
ATOM     21  C   UNL     1      49.880 -47.396  52.163  0.00  0.00    +0.000 C 
ATOM     22  C   UNL     1      44.805 -46.798  51.787  0.00  0.00    +0.000 C 
ENDROOT
BRANCH  17  23
ATOM     23  O   UNL     1      48.001 -44.948  53.460  0.00  0.00    +0.000 OA
ATOM     24  H   UNL     1      48.749 -44.333  53.339  0.00  0.00    +0.000 HD
ENDBRANCH  17  23
BRANCH   9  25
ATOM     25  O   UNL     1      49.975 -41.891  49.763  0.00  0.00    +0.000 OA
ATOM     26  H   UNL     1      50.106 -42.810  50.057  0.00  0.00    +0.000 HD
ENDBRANCH   9  25
BRANCH   8  27
ATOM     27  O   UNL     1      49.845 -48.521  49.169  0.00  0.00    +0.000 OA
ATOM     28  H   UNL     1      50.654 -48.175  49.585  0.00  0.00    +0.000 HD
ENDBRANCH   8  27
BRANCH  18  29
ATOM     29  O   UNL     1      45.108 -47.614  49.133  0.00  0.00    +0.000 OA
BRANCH  29  31
ATOM     30  O   UNL     1      42.904 -47.676  48.644  0.00  0.00    +0.000 OA
ATOM     31  C   UNL     1      43.928 -48.264  48.973  0.00  0.00    +0.000 C 
BRANCH  31  32
ATOM     32  C   UNL     1      43.935 -49.739  49.390  0.00  0.00    +0.000 C 
BRANCH  32  33
ATOM     33  O   UNL     1      43.432 -50.658  48.413  0.00  0.00    +0.000 OA
ATOM     34  H   UNL     1      44.102 -51.363  48.335  0.00  0.00    +0.000 HD
ENDBRANCH  32  33
BRANCH  32  35
ATOM     35  C   UNL     1      43.179 -49.871  50.739  0.00  0.00    +0.000 C 
BRANCH  35  36
ATOM     36  C   UNL     1      43.709 -51.012  51.600  0.00  0.00    +0.000 A 
ATOM     37  C   UNL     1      45.003 -50.930  52.140  0.00  0.00    +0.000 A 
ATOM     38  C   UNL     1      42.926 -52.138  51.907  0.00  0.00    +0.000 A 
ATOM     39  C   UNL     1      45.509 -51.956  52.942  0.00  0.00    +0.000 A 
ATOM     40  C   UNL     1      43.435 -53.162  52.708  0.00  0.00    +0.000 A 
ATOM     41  C   UNL     1      44.726 -53.072  53.222  0.00  0.00    +0.000 A 
ENDBRANCH  35  36
BRANCH  35  43
ATOM     42  O   UNL     1      41.028 -48.122  51.496  0.00  0.00    +0.000 OA
ATOM     43  N   UNL     1      41.750 -50.065  50.532  0.00  0.00    +0.000 N 
ATOM     44  C   UNL     1      40.805 -49.224  51.024  0.00  0.00    +0.000 C 
ATOM     45  H   UNL     1      41.435 -50.993  50.281  0.00  0.00    +0.000 HD
BRANCH  44  46
ATOM     46  O   UNL     1      39.594 -49.801  50.875  0.00  0.00    +0.000 OA
BRANCH  46  47
ATOM     47  C   UNL     1      38.660 -49.318  49.876  0.00  0.00    +0.000 C 
ATOM     48  C   UNL     1      39.390 -48.797  48.633  0.00  0.00    +0.000 C 
ATOM     49  C   UNL     1      37.839 -50.554  49.480  0.00  0.00    +0.000 C 
ATOM     50  C   UNL     1      37.712 -48.267  50.465  0.00  0.00    +0.000 C 
ENDBRANCH  46  47
ENDBRANCH  44  46
ENDBRANCH  35  43
ENDBRANCH  32  35
ENDBRANCH  31  32
ENDBRANCH  29  31
ENDBRANCH  18  29
BRANCH   7  51
ATOM     51  O   UNL     1      47.505 -46.022  48.549  0.00  0.00    +0.000 OA
BRANCH  51  53
ATOM     52  O   UNL     1      48.234 -46.852  46.873  0.00  0.00    +0.000 OA
ATOM     53  C   UNL     1      47.145 -46.497  47.312  0.00  0.00    +0.000 C 
BRANCH  53  54
ATOM     54  C   UNL     1      45.409 -46.263  46.536  0.00  0.00    +0.000 A 
ATOM     55  C   UNL     1      44.489 -45.165  46.834  0.00  0.00    +0.000 A 
ATOM     56  C   UNL     1      44.820 -47.023  45.479  0.00  0.00    +0.000 A 
ATOM     57  C   UNL     1      43.245 -44.892  46.209  0.00  0.00    +0.000 A 
ATOM     58  C   UNL     1      43.573 -46.765  44.839  0.00  0.00    +0.000 A 
ATOM     59  C   UNL     1      42.784 -45.701  45.202  0.00  0.00    +0.000 A 
ENDBRANCH  53  54
ENDBRANCH  51  53
ENDBRANCH   7  51
BRANCH   4  60
ATOM     60  O   UNL     1      47.467 -43.665  46.356  0.00  0.00    +0.000 OA
BRANCH  60  62
ATOM     61  O   UNL     1      46.753 -42.122  44.902  0.00  0.00    +0.000 OA
ATOM     62  C   UNL     1      47.080 -43.287  45.115  0.00  0.00    +0.000 C 
ATOM     63  C   UNL     1      46.947 -44.327  44.048  0.00  0.00    +0.000 C 
ENDBRANCH  60  62
ENDBRANCH   4  60
TORSDOF 17
ENDMDL
MODEL 6
REMARK VINA RESULT:      -6.7      2.926      7.554
REMARK  Name = 
REMARK  25 active torsions:
REMARK  status: ('A' for Active; 'I' for Inactive)
REMARK    1  A    between atoms: O_2  and  C_17
REMARK    2  A    between atoms: O_2  and  C_36
REMARK    3  A    between atoms: O_3  and  C_20
REMARK    4  A    between atoms: O_3  and  C_37
REMARK    5  A    between atoms: O_4  and  C_21
REMARK    6  A    between atoms: O_5  and  C_22
REMARK    7  A    between atoms: O_7  and  C_30
REMARK    8  A    between atoms: O_8  and  C_31
REMARK    9  A    between atoms: O_8  and  C_39
REMARK   10  A    between atoms: O_12  and  C_41
REMARK   11  A    between atoms: O_13  and  C_51
REMARK   12  A    between atoms: O_13  and  C_55
REMARK   13  A    between atoms: N_15  and  C_44
REMARK   14  A    between atoms: C_18  and  C_29
REMARK   15  A    between atoms: C_24  and  C_33
REMARK   16  A    between atoms: C_24  and  C_34
REMARK   17  A    between atoms: C_32  and  C_35
REMARK   18  A    between atoms: C_36  and  C_38
REMARK   19  A    between atoms: C_37  and  C_40
REMARK   20  A    between atoms: C_39  and  C_41
REMARK   21  A    between atoms: C_41  and  C_44
REMARK   22  A    between atoms: C_44  and  C_48
REMARK   23  A    between atoms: C_55  and  C_56
REMARK   24  A    between atoms: C_55  and  C_57
REMARK   25  A    between atoms: C_55  and  C_58
REMARK                            x       y       z     vdW  Elec       q    Type
REMARK                         _______ _______ _______ _____ _____    ______ ____
ROOT
ATOM      1  O   UNL     1      47.463 -52.310  48.159  0.00  0.00    +0.000 OA
ATOM      2  O   UNL     1      50.449 -48.675  43.361  0.00  0.00    +0.000 OA
ATOM      3  C   UNL     1      49.433 -49.553  47.549  0.00  0.00    +0.000 C 
ATOM      4  C   UNL     1      48.144 -50.283  48.031  0.00  0.00    +0.000 C 
ATOM      5  C   UNL     1      49.228 -49.239  45.689  0.00  0.00    +0.000 C 
ATOM      6  C   UNL     1      48.379 -51.640  47.250  0.00  0.00    +0.000 C 
ATOM      7  C   UNL     1      49.962 -48.210  48.730  0.00  0.00    +0.000 C 
ATOM      8  C   UNL     1      51.275 -46.863  48.947  0.00  0.00    +0.000 C 
ATOM      9  C   UNL     1      49.100 -50.694  45.073  0.00  0.00    +0.000 C 
ATOM     10  C   UNL     1      48.061 -51.626  45.770  0.00  0.00    +0.000 C 
ATOM     11  C   UNL     1      52.426 -46.234  47.751  0.00  0.00    +0.000 C 
ATOM     12  C   UNL     1      47.939 -51.348  49.181  0.00  0.00    +0.000 C 
ATOM     13  C   UNL     1      50.372 -48.278  44.544  0.00  0.00    +0.000 C 
ATOM     14  C   UNL     1      50.460 -45.529  49.280  0.00  0.00    +0.000 C 
ATOM     15  C   UNL     1      51.685 -45.760  46.413  0.00  0.00    +0.000 C 
ATOM     16  C   UNL     1      47.832 -48.572  45.340  0.00  0.00    +0.000 C 
ATOM     17  C   UNL     1      51.451 -46.742  44.940  0.00  0.00    +0.000 C 
ATOM     18  C   UNL     1      50.145 -44.525  48.078  0.00  0.00    +0.000 C 
ATOM     19  C   UNL     1      50.789 -44.747  46.663  0.00  0.00    +0.000 C 
ATOM     20  C   UNL     1      53.108 -44.925  48.395  0.00  0.00    +0.000 C 
ATOM     21  C   UNL     1      53.774 -46.988  47.517  0.00  0.00    +0.000 C 
ATOM     22  C   UNL     1      50.144 -43.947  45.559  0.00  0.00    +0.000 C 
ENDROOT
BRANCH  17  23
ATOM     23  O   UNL     1      52.744 -46.807  44.337  0.00  0.00    +0.000 OA
ATOM     24  H   UNL     1      52.688 -46.222  43.558  0.00  0.00    +0.000 HD
ENDBRANCH  17  23
BRANCH   9  25
ATOM     25  O   UNL     1      50.368 -51.344  45.170  0.00  0.00    +0.000 OA
ATOM     26  H   UNL     1      50.743 -51.372  44.271  0.00  0.00    +0.000 HD
ENDBRANCH   9  25
BRANCH   8  27
ATOM     27  O   UNL     1      51.976 -47.230  50.152  0.00  0.00    +0.000 OA
ATOM     28  H   UNL     1      52.706 -47.832  49.925  0.00  0.00    +0.000 HD
ENDBRANCH   8  27
BRANCH  18  29
ATOM     29  O   UNL     1      48.701 -44.510  47.885  0.00  0.00    +0.000 OA
BRANCH  29  31
ATOM     30  O   UNL     1      46.805 -43.319  48.182  0.00  0.00    +0.000 OA
ATOM     31  C   UNL     1      48.010 -43.449  48.371  0.00  0.00    +0.000 C 
BRANCH  31  32
ATOM     32  C   UNL     1      48.866 -42.356  49.022  0.00  0.00    +0.000 C 
BRANCH  32  33
ATOM     33  O   UNL     1      49.180 -42.563  50.404  0.00  0.00    +0.000 OA
ATOM     34  H   UNL     1      48.628 -43.312  50.697  0.00  0.00    +0.000 HD
ENDBRANCH  32  33
BRANCH  32  35
ATOM     35  C   UNL     1      48.171 -40.988  48.794  0.00  0.00    +0.000 C 
BRANCH  35  36
ATOM     36  C   UNL     1      48.507 -40.376  47.438  0.00  0.00    +0.000 A 
ATOM     37  C   UNL     1      47.498 -40.234  46.473  0.00  0.00    +0.000 A 
ATOM     38  C   UNL     1      49.798 -39.912  47.132  0.00  0.00    +0.000 A 
ATOM     39  C   UNL     1      47.776 -39.667  45.227  0.00  0.00    +0.000 A 
ATOM     40  C   UNL     1      50.073 -39.347  45.886  0.00  0.00    +0.000 A 
ATOM     41  C   UNL     1      49.064 -39.227  44.933  0.00  0.00    +0.000 A 
ENDBRANCH  35  36
BRANCH  35  43
ATOM     42  O   UNL     1      46.399 -39.577  50.564  0.00  0.00    +0.000 OA
ATOM     43  N   UNL     1      48.519 -40.033  49.838  0.00  0.00    +0.000 N 
ATOM     44  C   UNL     1      47.595 -39.340  50.551  0.00  0.00    +0.000 C 
ATOM     45  H   UNL     1      49.455 -39.652  49.830  0.00  0.00    +0.000 HD
BRANCH  44  46
ATOM     46  O   UNL     1      48.227 -38.375  51.253  0.00  0.00    +0.000 OA
BRANCH  46  47
ATOM     47  C   UNL     1      48.065 -36.976  50.902  0.00  0.00    +0.000 C 
ATOM     48  C   UNL     1      46.676 -36.460  51.290  0.00  0.00    +0.000 C 
ATOM     49  C   UNL     1      49.116 -36.239  51.747  0.00  0.00    +0.000 C 
ATOM     50  C   UNL     1      48.372 -36.737  49.420  0.00  0.00    +0.000 C 
ENDBRANCH  46  47
ENDBRANCH  44  46
ENDBRANCH  35  43
ENDBRANCH  32  35
ENDBRANCH  31  32
ENDBRANCH  29  31
ENDBRANCH  18  29
BRANCH   7  51
ATOM     51  O   UNL     1      49.276 -47.388  47.964  0.00  0.00    +0.000 OA
BRANCH  51  53
ATOM     52  O   UNL     1      48.850 -47.807  49.880  0.00  0.00    +0.000 OA
ATOM     53  C   UNL     1      48.300 -47.272  48.923  0.00  0.00    +0.000 C 
BRANCH  53  54
ATOM     54  C   UNL     1      46.507 -46.700  48.567  0.00  0.00    +0.000 A 
ATOM     55  C   UNL     1      45.951 -46.434  47.240  0.00  0.00    +0.000 A 
ATOM     56  C   UNL     1      45.430 -46.583  49.499  0.00  0.00    +0.000 A 
ATOM     57  C   UNL     1      44.606 -46.114  46.920  0.00  0.00    +0.000 A 
ATOM     58  C   UNL     1      44.074 -46.263  49.197  0.00  0.00    +0.000 A 
ATOM     59  C   UNL     1      43.660 -46.029  47.908  0.00  0.00    +0.000 A 
ENDBRANCH  53  54
ENDBRANCH  51  53
ENDBRANCH   7  51
BRANCH   4  60
ATOM     60  O   UNL     1      46.937 -49.580  47.654  0.00  0.00    +0.000 OA
BRANCH  60  62
ATOM     61  O   UNL     1      45.391 -49.952  49.227  0.00  0.00    +0.000 OA
ATOM     62  C   UNL     1      45.692 -49.948  48.036  0.00  0.00    +0.000 C 
ATOM     63  C   UNL     1      44.738 -50.459  47.003  0.00  0.00    +0.000 C 
ENDBRANCH  60  62
ENDBRANCH   4  60
TORSDOF 17
ENDMDL
MODEL 7
REMARK VINA RESULT:      -6.6      1.724      2.332
REMARK  Name = 
REMARK  25 active torsions:
REMARK  status: ('A' for Active; 'I' for Inactive)
REMARK    1  A    between atoms: O_2  and  C_17
REMARK    2  A    between atoms: O_2  and  C_36
REMARK    3  A    between atoms: O_3  and  C_20
REMARK    4  A    between atoms: O_3  and  C_37
REMARK    5  A    between atoms: O_4  and  C_21
REMARK    6  A    between atoms: O_5  and  C_22
REMARK    7  A    between atoms: O_7  and  C_30
REMARK    8  A    between atoms: O_8  and  C_31
REMARK    9  A    between atoms: O_8  and  C_39
REMARK   10  A    between atoms: O_12  and  C_41
REMARK   11  A    between atoms: O_13  and  C_51
REMARK   12  A    between atoms: O_13  and  C_55
REMARK   13  A    between atoms: N_15  and  C_44
REMARK   14  A    between atoms: C_18  and  C_29
REMARK   15  A    between atoms: C_24  and  C_33
REMARK   16  A    between atoms: C_24  and  C_34
REMARK   17  A    between atoms: C_32  and  C_35
REMARK   18  A    between atoms: C_36  and  C_38
REMARK   19  A    between atoms: C_37  and  C_40
REMARK   20  A    between atoms: C_39  and  C_41
REMARK   21  A    between atoms: C_41  and  C_44
REMARK   22  A    between atoms: C_44  and  C_48
REMARK   23  A    between atoms: C_55  and  C_56
REMARK   24  A    between atoms: C_55  and  C_57
REMARK   25  A    between atoms: C_55  and  C_58
REMARK                            x       y       z     vdW  Elec       q    Type
REMARK                         _______ _______ _______ _____ _____    ______ ____
ROOT
ATOM      1  O   UNL     1      54.113 -45.815  45.077  0.00  0.00    +0.000 OA
ATOM      2  O   UNL     1      47.888 -45.596  42.555  0.00  0.00    +0.000 OA
ATOM      3  C   UNL     1      50.951 -44.529  45.526  0.00  0.00    +0.000 C 
ATOM      4  C   UNL     1      52.181 -45.403  45.908  0.00  0.00    +0.000 C 
ATOM      5  C   UNL     1      49.856 -45.580  44.387  0.00  0.00    +0.000 C 
ATOM      6  C   UNL     1      52.840 -45.461  44.469  0.00  0.00    +0.000 C 
ATOM      7  C   UNL     1      50.260 -43.610  46.994  0.00  0.00    +0.000 C 
ATOM      8  C   UNL     1      48.856 -42.435  47.479  0.00  0.00    +0.000 C 
ATOM      9  C   UNL     1      50.788 -45.878  43.140  0.00  0.00    +0.000 C 
ATOM     10  C   UNL     1      52.210 -46.419  43.481  0.00  0.00    +0.000 C 
ATOM     11  C   UNL     1      47.405 -42.002  46.552  0.00  0.00    +0.000 C 
ATOM     12  C   UNL     1      53.674 -44.990  46.228  0.00  0.00    +0.000 C 
ATOM     13  C   UNL     1      48.160 -45.152  43.691  0.00  0.00    +0.000 C 
ATOM     14  C   UNL     1      48.179 -43.095  48.767  0.00  0.00    +0.000 C 
ATOM     15  C   UNL     1      46.599 -43.301  46.078  0.00  0.00    +0.000 C 
ATOM     16  C   UNL     1      49.575 -47.022  44.983  0.00  0.00    +0.000 C 
ATOM     17  C   UNL     1      46.761 -44.115  44.497  0.00  0.00    +0.000 C 
ATOM     18  C   UNL     1      46.874 -43.990  48.551  0.00  0.00    +0.000 C 
ATOM     19  C   UNL     1      46.169 -44.049  47.148  0.00  0.00    +0.000 C 
ATOM     20  C   UNL     1      46.434 -41.189  47.548  0.00  0.00    +0.000 C 
ATOM     21  C   UNL     1      47.489 -40.862  45.488  0.00  0.00    +0.000 C 
ATOM     22  C   UNL     1      45.181 -45.179  47.002  0.00  0.00    +0.000 C 
ENDROOT
BRANCH  17  23
ATOM     23  O   UNL     1      46.121 -43.239  43.568  0.00  0.00    +0.000 OA
ATOM     24  H   UNL     1      45.243 -43.635  43.414  0.00  0.00    +0.000 HD
ENDBRANCH  17  23
BRANCH   9  25
ATOM     25  O   UNL     1      50.973 -44.665  42.408  0.00  0.00    +0.000 OA
ATOM     26  H   UNL     1      51.784 -44.247  42.749  0.00  0.00    +0.000 HD
ENDBRANCH   9  25
BRANCH   8  27
ATOM     27  O   UNL     1      49.521 -41.239  47.929  0.00  0.00    +0.000 OA
ATOM     28  H   UNL     1      49.312 -40.509  47.320  0.00  0.00    +0.000 HD
ENDBRANCH   8  27
BRANCH  18  29
ATOM     29  O   UNL     1      47.215 -45.360  48.908  0.00  0.00    +0.000 OA
BRANCH  29  31
ATOM     30  O   UNL     1      46.486 -45.278  51.044  0.00  0.00    +0.000 OA
ATOM     31  C   UNL     1      46.608 -45.900  49.994  0.00  0.00    +0.000 C 
BRANCH  31  32
ATOM     32  C   UNL     1      46.240 -47.383  49.865  0.00  0.00    +0.000 C 
BRANCH  32  33
ATOM     33  O   UNL     1      45.838 -47.806  48.557  0.00  0.00    +0.000 OA
ATOM     34  H   UNL     1      44.872 -47.675  48.517  0.00  0.00    +0.000 HD
ENDBRANCH  32  33
BRANCH  32  35
ATOM     35  C   UNL     1      45.159 -47.714  50.928  0.00  0.00    +0.000 C 
BRANCH  35  36
ATOM     36  C   UNL     1      45.598 -48.815  51.889  0.00  0.00    +0.000 A 
ATOM     37  C   UNL     1      46.435 -48.498  52.970  0.00  0.00    +0.000 A 
ATOM     38  C   UNL     1      45.157 -50.142  51.749  0.00  0.00    +0.000 A 
ATOM     39  C   UNL     1      46.843 -49.484  53.871  0.00  0.00    +0.000 A 
ATOM     40  C   UNL     1      45.567 -51.126  52.650  0.00  0.00    +0.000 A 
ATOM     41  C   UNL     1      46.412 -50.798  53.709  0.00  0.00    +0.000 A 
ENDBRANCH  35  36
BRANCH  35  43
ATOM     42  O   UNL     1      42.934 -46.039  50.219  0.00  0.00    +0.000 OA
ATOM     43  N   UNL     1      43.903 -48.108  50.306  0.00  0.00    +0.000 N 
ATOM     44  C   UNL     1      42.869 -47.252  50.108  0.00  0.00    +0.000 C 
ATOM     45  H   UNL     1      43.675 -49.094  50.295  0.00  0.00    +0.000 HD
BRANCH  44  46
ATOM     46  O   UNL     1      41.781 -47.965  49.746  0.00  0.00    +0.000 OA
BRANCH  46  47
ATOM     47  C   UNL     1      40.874 -48.495  50.747  0.00  0.00    +0.000 C 
ATOM     48  C   UNL     1      40.840 -47.607  51.995  0.00  0.00    +0.000 C 
ATOM     49  C   UNL     1      39.491 -48.456  50.079  0.00  0.00    +0.000 C 
ATOM     50  C   UNL     1      41.214 -49.950  51.088  0.00  0.00    +0.000 C 
ENDBRANCH  46  47
ENDBRANCH  44  46
ENDBRANCH  35  43
ENDBRANCH  32  35
ENDBRANCH  31  32
ENDBRANCH  29  31
ENDBRANCH  18  29
BRANCH   7  51
ATOM     51  O   UNL     1      49.430 -44.623  47.126  0.00  0.00    +0.000 OA
BRANCH  51  53
ATOM     52  O   UNL     1      50.924 -44.157  48.383  0.00  0.00    +0.000 OA
ATOM     53  C   UNL     1      50.087 -45.044  48.256  0.00  0.00    +0.000 C 
BRANCH  53  54
ATOM     54  C   UNL     1      49.833 -46.760  49.068  0.00  0.00    +0.000 A 
ATOM     55  C   UNL     1      49.973 -47.051  50.496  0.00  0.00    +0.000 A 
ATOM     56  C   UNL     1      49.349 -47.953  48.448  0.00  0.00    +0.000 A 
ATOM     57  C   UNL     1      49.692 -48.274  51.156  0.00  0.00    +0.000 A 
ATOM     58  C   UNL     1      49.061 -49.191  49.093  0.00  0.00    +0.000 A 
ATOM     59  C   UNL     1      49.231 -49.354  50.447  0.00  0.00    +0.000 A 
ENDBRANCH  53  54
ENDBRANCH  51  53
ENDBRANCH   7  51
BRANCH   4  60
ATOM     60  O   UNL     1      51.798 -46.693  46.440  0.00  0.00    +0.000 OA
BRANCH  60  62
ATOM     61  O   UNL     1      53.115 -47.230  48.167  0.00  0.00    +0.000 OA
ATOM     62  C   UNL     1      52.646 -47.536  47.073  0.00  0.00    +0.000 C 
ATOM     63  C   UNL     1      53.091 -48.781  46.372  0.00  0.00    +0.000 C 
ENDBRANCH  60  62
ENDBRANCH   4  60
TORSDOF 17
ENDMDL
MODEL 8
REMARK VINA RESULT:      -6.6      2.551      9.584
REMARK  Name = 
REMARK  25 active torsions:
REMARK  status: ('A' for Active; 'I' for Inactive)
REMARK    1  A    between atoms: O_2  and  C_17
REMARK    2  A    between atoms: O_2  and  C_36
REMARK    3  A    between atoms: O_3  and  C_20
REMARK    4  A    between atoms: O_3  and  C_37
REMARK    5  A    between atoms: O_4  and  C_21
REMARK    6  A    between atoms: O_5  and  C_22
REMARK    7  A    between atoms: O_7  and  C_30
REMARK    8  A    between atoms: O_8  and  C_31
REMARK    9  A    between atoms: O_8  and  C_39
REMARK   10  A    between atoms: O_12  and  C_41
REMARK   11  A    between atoms: O_13  and  C_51
REMARK   12  A    between atoms: O_13  and  C_55
REMARK   13  A    between atoms: N_15  and  C_44
REMARK   14  A    between atoms: C_18  and  C_29
REMARK   15  A    between atoms: C_24  and  C_33
REMARK   16  A    between atoms: C_24  and  C_34
REMARK   17  A    between atoms: C_32  and  C_35
REMARK   18  A    between atoms: C_36  and  C_38
REMARK   19  A    between atoms: C_37  and  C_40
REMARK   20  A    between atoms: C_39  and  C_41
REMARK   21  A    between atoms: C_41  and  C_44
REMARK   22  A    between atoms: C_44  and  C_48
REMARK   23  A    between atoms: C_55  and  C_56
REMARK   24  A    between atoms: C_55  and  C_57
REMARK   25  A    between atoms: C_55  and  C_58
REMARK                            x       y       z     vdW  Elec       q    Type
REMARK                         _______ _______ _______ _____ _____    ______ ____
ROOT
ATOM      1  O   UNL     1      39.954 -48.249  50.652  0.00  0.00    +0.000 OA
ATOM      2  O   UNL     1      44.764 -52.815  49.568  0.00  0.00    +0.000 OA
ATOM      3  C   UNL     1      43.333 -48.869  50.884  0.00  0.00    +0.000 C 
ATOM      4  C   UNL     1      42.071 -48.138  50.338  0.00  0.00    +0.000 C 
ATOM      5  C   UNL     1      43.599 -50.402  49.798  0.00  0.00    +0.000 C 
ATOM      6  C   UNL     1      41.011 -49.244  50.738  0.00  0.00    +0.000 C 
ATOM      7  C   UNL     1      44.715 -47.681  51.279  0.00  0.00    +0.000 C 
ATOM      8  C   UNL     1      46.506 -47.645  51.896  0.00  0.00    +0.000 C 
ATOM      9  C   UNL     1      42.278 -51.250  50.014  0.00  0.00    +0.000 C 
ATOM     10  C   UNL     1      40.942 -50.463  49.843  0.00  0.00    +0.000 C 
ATOM     11  C   UNL     1      47.646 -48.995  52.067  0.00  0.00    +0.000 C 
ATOM     12  C   UNL     1      40.982 -47.273  51.089  0.00  0.00    +0.000 C 
ATOM     13  C   UNL     1      45.029 -51.626  49.851  0.00  0.00    +0.000 C 
ATOM     14  C   UNL     1      47.297 -46.741  50.843  0.00  0.00    +0.000 C 
ATOM     15  C   UNL     1      47.784 -49.826  50.706  0.00  0.00    +0.000 C 
ATOM     16  C   UNL     1      43.562 -50.059  48.250  0.00  0.00    +0.000 C 
ATOM     17  C   UNL     1      46.870 -51.300  50.281  0.00  0.00    +0.000 C 
ATOM     18  C   UNL     1      48.094 -47.479  49.673  0.00  0.00    +0.000 C 
ATOM     19  C   UNL     1      48.257 -49.041  49.680  0.00  0.00    +0.000 C 
ATOM     20  C   UNL     1      49.092 -48.355  52.371  0.00  0.00    +0.000 C 
ATOM     21  C   UNL     1      47.610 -49.867  53.362  0.00  0.00    +0.000 C 
ATOM     22  C   UNL     1      48.717 -49.620  48.365  0.00  0.00    +0.000 C 
ENDROOT
BRANCH  17  23
ATOM     23  O   UNL     1      47.435 -52.326  51.097  0.00  0.00    +0.000 OA
ATOM     24  H   UNL     1      48.377 -52.359  50.844  0.00  0.00    +0.000 HD
ENDBRANCH  17  23
BRANCH   9  25
ATOM     25  O   UNL     1      42.282 -51.771  51.344  0.00  0.00    +0.000 OA
ATOM     26  H   UNL     1      42.971 -52.459  51.378  0.00  0.00    +0.000 HD
ENDBRANCH   9  25
BRANCH   8  27
ATOM     27  O   UNL     1      46.451 -46.895  53.126  0.00  0.00    +0.000 OA
ATOM     28  H   UNL     1      45.585 -47.038  53.548  0.00  0.00    +0.000 HD
ENDBRANCH   8  27
BRANCH  18  29
ATOM     29  O   UNL     1      47.451 -47.130  48.414  0.00  0.00    +0.000 OA
BRANCH  29  31
ATOM     30  O   UNL     1      48.148 -46.578  46.337  0.00  0.00    +0.000 OA
ATOM     31  C   UNL     1      48.145 -46.355  47.543  0.00  0.00    +0.000 C 
BRANCH  31  32
ATOM     32  C   UNL     1      49.046 -45.296  48.189  0.00  0.00    +0.000 C 
BRANCH  32  33
ATOM     33  O   UNL     1      48.362 -44.221  48.843  0.00  0.00    +0.000 OA
ATOM     34  H   UNL     1      48.813 -44.096  49.699  0.00  0.00    +0.000 HD
ENDBRANCH  32  33
BRANCH  32  35
ATOM     35  C   UNL     1      50.034 -44.771  47.113  0.00  0.00    +0.000 C 
BRANCH  35  36
ATOM     36  C   UNL     1      51.455 -45.283  47.322  0.00  0.00    +0.000 A 
ATOM     37  C   UNL     1      52.450 -44.971  46.380  0.00  0.00    +0.000 A 
ATOM     38  C   UNL     1      51.817 -46.032  48.454  0.00  0.00    +0.000 A 
ATOM     39  C   UNL     1      53.762 -45.417  46.553  0.00  0.00    +0.000 A 
ATOM     40  C   UNL     1      53.129 -46.478  48.623  0.00  0.00    +0.000 A 
ATOM     41  C   UNL     1      54.100 -46.173  47.672  0.00  0.00    +0.000 A 
ENDBRANCH  35  36
BRANCH  35  43
ATOM     42  O   UNL     1      48.561 -43.015  45.380  0.00  0.00    +0.000 OA
ATOM     43  N   UNL     1      50.061 -43.315  47.079  0.00  0.00    +0.000 N 
ATOM     44  C   UNL     1      49.403 -42.580  46.147  0.00  0.00    +0.000 C 
ATOM     45  H   UNL     1      50.816 -42.849  47.564  0.00  0.00    +0.000 HD
BRANCH  44  46
ATOM     46  O   UNL     1      49.820 -41.298  46.236  0.00  0.00    +0.000 OA
BRANCH  46  47
ATOM     47  C   UNL     1      48.995 -40.294  46.880  0.00  0.00    +0.000 C 
ATOM     48  C   UNL     1      47.668 -40.887  47.366  0.00  0.00    +0.000 C 
ATOM     49  C   UNL     1      49.810 -39.847  48.103  0.00  0.00    +0.000 C 
ATOM     50  C   UNL     1      48.780 -39.083  45.965  0.00  0.00    +0.000 C 
ENDBRANCH  46  47
ENDBRANCH  44  46
ENDBRANCH  35  43
ENDBRANCH  32  35
ENDBRANCH  31  32
ENDBRANCH  29  31
ENDBRANCH  18  29
BRANCH   7  51
ATOM     51  O   UNL     1      45.161 -47.935  50.067  0.00  0.00    +0.000 OA
BRANCH  51  53
ATOM     52  O   UNL     1      44.387 -46.192  50.694  0.00  0.00    +0.000 OA
ATOM     53  C   UNL     1      44.797 -46.679  49.645  0.00  0.00    +0.000 C 
BRANCH  53  54
ATOM     54  C   UNL     1      44.714 -46.145  47.807  0.00  0.00    +0.000 A 
ATOM     55  C   UNL     1      44.964 -44.793  47.306  0.00  0.00    +0.000 A 
ATOM     56  C   UNL     1      44.536 -46.985  46.665  0.00  0.00    +0.000 A 
ATOM     57  C   UNL     1      45.019 -44.376  45.952  0.00  0.00    +0.000 A 
ATOM     58  C   UNL     1      44.588 -46.584  45.298  0.00  0.00    +0.000 A 
ATOM     59  C   UNL     1      44.830 -45.281  44.939  0.00  0.00    +0.000 A 
ENDBRANCH  53  54
ENDBRANCH  51  53
ENDBRANCH   7  51
BRANCH   4  60
ATOM     60  O   UNL     1      42.154 -47.880  48.917  0.00  0.00    +0.000 OA
BRANCH  60  62
ATOM     61  O   UNL     1      40.396 -47.861  47.533  0.00  0.00    +0.000 OA
ATOM     62  C   UNL     1      41.205 -47.227  48.206  0.00  0.00    +0.000 C 
ATOM     63  C   UNL     1      41.234 -45.732  48.161  0.00  0.00    +0.000 C 
ENDBRANCH  60  62
ENDBRANCH   4  60
TORSDOF 17
ENDMDL
MODEL 9
REMARK VINA RESULT:      -6.6      9.674     15.027
REMARK  Name = 
REMARK  25 active torsions:
REMARK  status: ('A' for Active; 'I' for Inactive)
REMARK    1  A    between atoms: O_2  and  C_17
REMARK    2  A    between atoms: O_2  and  C_36
REMARK    3  A    between atoms: O_3  and  C_20
REMARK    4  A    between atoms: O_3  and  C_37
REMARK    5  A    between atoms: O_4  and  C_21
REMARK    6  A    between atoms: O_5  and  C_22
REMARK    7  A    between atoms: O_7  and  C_30
REMARK    8  A    between atoms: O_8  and  C_31
REMARK    9  A    between atoms: O_8  and  C_39
REMARK   10  A    between atoms: O_12  and  C_41
REMARK   11  A    between atoms: O_13  and  C_51
REMARK   12  A    between atoms: O_13  and  C_55
REMARK   13  A    between atoms: N_15  and  C_44
REMARK   14  A    between atoms: C_18  and  C_29
REMARK   15  A    between atoms: C_24  and  C_33
REMARK   16  A    between atoms: C_24  and  C_34
REMARK   17  A    between atoms: C_32  and  C_35
REMARK   18  A    between atoms: C_36  and  C_38
REMARK   19  A    between atoms: C_37  and  C_40
REMARK   20  A    between atoms: C_39  and  C_41
REMARK   21  A    between atoms: C_41  and  C_44
REMARK   22  A    between atoms: C_44  and  C_48
REMARK   23  A    between atoms: C_55  and  C_56
REMARK   24  A    between atoms: C_55  and  C_57
REMARK   25  A    between atoms: C_55  and  C_58
REMARK                            x       y       z     vdW  Elec       q    Type
REMARK                         _______ _______ _______ _____ _____    ______ ____
ROOT
ATOM      1  O   UNL     1      44.352 -57.914  62.217  0.00  0.00    +0.000 OA
ATOM      2  O   UNL     1      49.342 -59.628  58.056  0.00  0.00    +0.000 OA
ATOM      3  C   UNL     1      46.339 -56.823  59.625  0.00  0.00    +0.000 C 
ATOM      4  C   UNL     1      44.990 -57.225  60.291  0.00  0.00    +0.000 C 
ATOM      5  C   UNL     1      47.109 -58.412  58.930  0.00  0.00    +0.000 C 
ATOM      6  C   UNL     1      45.599 -58.068  61.485  0.00  0.00    +0.000 C 
ATOM      7  C   UNL     1      46.184 -55.269  58.608  0.00  0.00    +0.000 C 
ATOM      8  C   UNL     1      47.194 -54.130  57.481  0.00  0.00    +0.000 C 
ATOM      9  C   UNL     1      47.322 -59.320  60.213  0.00  0.00    +0.000 C 
ATOM     10  C   UNL     1      46.079 -59.463  61.145  0.00  0.00    +0.000 C 
ATOM     11  C   UNL     1      48.790 -54.417  56.759  0.00  0.00    +0.000 C 
ATOM     12  C   UNL     1      44.234 -56.604  61.533  0.00  0.00    +0.000 C 
ATOM     13  C   UNL     1      48.670 -58.586  57.893  0.00  0.00    +0.000 C 
ATOM     14  C   UNL     1      46.314 -53.956  56.158  0.00  0.00    +0.000 C 
ATOM     15  C   UNL     1      48.831 -55.799  55.952  0.00  0.00    +0.000 C 
ATOM     16  C   UNL     1      46.081 -59.250  58.059  0.00  0.00    +0.000 C 
ATOM     17  C   UNL     1      49.387 -57.371  56.593  0.00  0.00    +0.000 C 
ATOM     18  C   UNL     1      46.649 -54.893  54.909  0.00  0.00    +0.000 C 
ATOM     19  C   UNL     1      47.926 -55.808  54.917  0.00  0.00    +0.000 C 
ATOM     20  C   UNL     1      49.040 -53.244  55.685  0.00  0.00    +0.000 C 
ATOM     21  C   UNL     1      50.074 -54.112  57.594  0.00  0.00    +0.000 C 
ATOM     22  C   UNL     1      47.928 -56.874  53.849  0.00  0.00    +0.000 C 
ENDROOT
BRANCH  17  23
ATOM     23  O   UNL     1      50.807 -57.247  56.679  0.00  0.00    +0.000 OA
ATOM     24  H   UNL     1      50.960 -56.589  57.383  0.00  0.00    +0.000 HD
ENDBRANCH  17  23
BRANCH   9  25
ATOM     25  O   UNL     1      48.368 -58.754  61.003  0.00  0.00    +0.000 OA
ATOM     26  H   UNL     1      48.172 -58.970  61.933  0.00  0.00    +0.000 HD
ENDBRANCH   9  25
BRANCH   8  27
ATOM     27  O   UNL     1      47.186 -52.854  58.153  0.00  0.00    +0.000 OA
ATOM     28  H   UNL     1      48.015 -52.384  57.954  0.00  0.00    +0.000 HD
ENDBRANCH   8  27
BRANCH  18  29
ATOM     29  O   UNL     1      45.506 -55.771  54.698  0.00  0.00    +0.000 OA
BRANCH  29  31
ATOM     30  O   UNL     1      44.692 -56.172  52.630  0.00  0.00    +0.000 OA
ATOM     31  C   UNL     1      44.684 -55.498  53.654  0.00  0.00    +0.000 C 
BRANCH  31  32
ATOM     32  C   UNL     1      43.876 -54.202  53.783  0.00  0.00    +0.000 C 
BRANCH  32  33
ATOM     33  O   UNL     1      42.460 -54.370  53.916  0.00  0.00    +0.000 OA
ATOM     34  H   UNL     1      42.281 -54.398  54.875  0.00  0.00    +0.000 HD
ENDBRANCH  32  33
BRANCH  32  35
ATOM     35  C   UNL     1      44.229 -53.282  52.584  0.00  0.00    +0.000 C 
BRANCH  35  36
ATOM     36  C   UNL     1      45.407 -52.359  52.878  0.00  0.00    +0.000 A 
ATOM     37  C   UNL     1      45.327 -51.452  53.947  0.00  0.00    +0.000 A 
ATOM     38  C   UNL     1      46.597 -52.412  52.133  0.00  0.00    +0.000 A 
ATOM     39  C   UNL     1      46.396 -50.604  54.246  0.00  0.00    +0.000 A 
ATOM     40  C   UNL     1      47.663 -51.562  52.433  0.00  0.00    +0.000 A 
ATOM     41  C   UNL     1      47.561 -50.657  53.487  0.00  0.00    +0.000 A 
ENDBRANCH  35  36
BRANCH  35  43
ATOM     42  O   UNL     1      43.407 -52.588  49.919  0.00  0.00    +0.000 OA
ATOM     43  N   UNL     1      43.089 -52.471  52.179  0.00  0.00    +0.000 N 
ATOM     44  C   UNL     1      42.848 -52.113  50.893  0.00  0.00    +0.000 C 
ATOM     45  H   UNL     1      42.637 -51.911  52.891  0.00  0.00    +0.000 HD
BRANCH  44  46
ATOM     46  O   UNL     1      41.876 -51.176  50.880  0.00  0.00    +0.000 OA
BRANCH  46  47
ATOM     47  C   UNL     1      42.164 -49.815  50.467  0.00  0.00    +0.000 C 
ATOM     48  C   UNL     1      41.916 -49.623  48.967  0.00  0.00    +0.000 C 
ATOM     49  C   UNL     1      41.160 -48.952  51.245  0.00  0.00    +0.000 C 
ATOM     50  C   UNL     1      43.583 -49.402  50.871  0.00  0.00    +0.000 C 
ENDBRANCH  46  47
ENDBRANCH  44  46
ENDBRANCH  35  43
ENDBRANCH  32  35
ENDBRANCH  31  32
ENDBRANCH  29  31
ENDBRANCH  18  29
BRANCH   7  51
ATOM     51  O   UNL     1      45.979 -56.067  57.581  0.00  0.00    +0.000 OA
BRANCH  51  53
ATOM     52  O   UNL     1      44.632 -54.796  58.358  0.00  0.00    +0.000 OA
ATOM     53  C   UNL     1      44.653 -55.711  57.541  0.00  0.00    +0.000 C 
BRANCH  53  54
ATOM     54  C   UNL     1      43.298 -56.720  56.638  0.00  0.00    +0.000 A 
ATOM     55  C   UNL     1      43.480 -58.048  56.050  0.00  0.00    +0.000 A 
ATOM     56  C   UNL     1      41.910 -56.402  56.522  0.00  0.00    +0.000 A 
ATOM     57  C   UNL     1      42.485 -58.875  55.470  0.00  0.00    +0.000 A 
ATOM     58  C   UNL     1      40.895 -57.219  55.942  0.00  0.00    +0.000 A 
ATOM     59  C   UNL     1      41.181 -58.456  55.416  0.00  0.00    +0.000 A 
ENDBRANCH  53  54
ENDBRANCH  51  53
ENDBRANCH   7  51
BRANCH   4  60
ATOM     60  O   UNL     1      44.139 -57.984  59.400  0.00  0.00    +0.000 OA
BRANCH  60  62
ATOM     61  O   UNL     1      42.741 -59.661  59.887  0.00  0.00    +0.000 OA
ATOM     62  C   UNL     1      42.915 -58.454  59.735  0.00  0.00    +0.000 C 
ATOM     63  C   UNL     1      41.764 -57.501  59.800  0.00  0.00    +0.000 C 
ENDBRANCH  60  62
ENDBRANCH   4  60
TORSDOF 17
ENDMDL
