MODEL 1
REMARK VINA RESULT:      -9.0      0.000      0.000
REMARK  Name = 
REMARK  13 active torsions:
REMARK  status: ('A' for Active; 'I' for Inactive)
REMARK    1  A    between atoms: O_1  and  C_13
REMARK    2  A    between atoms: O_1  and  C_19
REMARK    3  A    between atoms: O_3  and  C_14
REMARK    4  A    between atoms: O_4  and  C_22
REMARK    5  A    between atoms: O_5  and  C_24
REMARK    6  A    between atoms: O_6  and  C_26
REMARK    7  A    between atoms: O_8  and  C_30
REMARK    8  A    between atoms: O_11  and  C_35
REMARK    9  A    between atoms: O_11  and  C_39
REMARK   10  A    between atoms: N_12  and  C_21
REMARK   11  A    between atoms: C_14  and  C_25
REMARK   12  A    between atoms: C_23  and  C_29
REMARK   13  A    between atoms: C_25  and  C_30
REMARK                            x       y       z     vdW  Elec       q    Type
REMARK                         _______ _______ _______ _____ _____    ______ ____
ROOT
ATOM      1  O   UNL     1      50.051 -41.013  47.049  0.00  0.00    +0.000 OA
ATOM      2  O   UNL     1      47.936 -39.234  51.592  0.00  0.00    +0.000 OA
ATOM      3  C   UNL     1      48.760 -45.338  49.486  0.00  0.00    +0.000 C 
ATOM      4  C   UNL     1      47.875 -45.823  51.810  0.00  0.00    +0.000 C 
ATOM      5  C   UNL     1      47.780 -46.167  50.318  0.00  0.00    +0.000 C 
ATOM      6  C   UNL     1      47.569 -44.336  52.045  0.00  0.00    +0.000 C 
ATOM      7  C   UNL     1      48.623 -43.854  49.763  0.00  0.00    +0.000 A 
ATOM      8  C   UNL     1      48.096 -43.388  50.983  0.00  0.00    +0.000 A 
ATOM      9  C   UNL     1      49.077 -42.917  48.816  0.00  0.00    +0.000 A 
ATOM     10  C   UNL     1      48.014 -42.002  51.209  0.00  0.00    +0.000 A 
ATOM     11  C   UNL     1      49.001 -41.531  49.054  0.00  0.00    +0.000 A 
ATOM     12  C   UNL     1      48.466 -41.076  50.254  0.00  0.00    +0.000 A 
ATOM     13  C   UNL     1      49.498 -40.564  48.049  0.00  0.00    +0.000 C 
ATOM     14  C   UNL     1      48.378 -39.627  50.516  0.00  0.00    +0.000 C 
ATOM     15  C   UNL     1      49.345 -39.108  48.278  0.00  0.00    +0.000 A 
ATOM     16  C   UNL     1      48.810 -38.664  49.489  0.00  0.00    +0.000 A 
ATOM     17  C   UNL     1      49.730 -38.153  47.323  0.00  0.00    +0.000 A 
ATOM     18  C   UNL     1      48.663 -37.291  49.746  0.00  0.00    +0.000 A 
ATOM     19  C   UNL     1      49.558 -36.786  47.571  0.00  0.00    +0.000 A 
ATOM     20  C   UNL     1      49.035 -36.355  48.786  0.00  0.00    +0.000 A 
ENDROOT
BRANCH   4  21
ATOM     21  O   UNL     1      49.176 -46.142  52.319  0.00  0.00    +0.000 OA
ATOM     22  H   UNL     1      49.825 -45.629  51.792  0.00  0.00    +0.000 HD
ENDBRANCH   4  21
BRANCH   9  23
ATOM     23  O   UNL     1      49.596 -43.417  47.645  0.00  0.00    +0.000 OA
ATOM     24  H   UNL     1      48.865 -43.513  46.991  0.00  0.00    +0.000 HD
ENDBRANCH   9  23
BRANCH  10  25
ATOM     25  O   UNL     1      47.466 -41.604  52.404  0.00  0.00    +0.000 OA
ATOM     26  H   UNL     1      46.944 -40.784  52.257  0.00  0.00    +0.000 HD
ENDBRANCH  10  25
BRANCH   4  28
ATOM     27  O   UNL     1      46.060 -46.167  53.405  0.00  0.00    +0.000 OA
ATOM     28  C   UNL     1      46.861 -46.664  52.604  0.00  0.00    +0.000 C 
BRANCH  28  29
ATOM     29  C   UNL     1      46.885 -48.175  52.387  0.00  0.00    +0.000 C 
BRANCH  29  30
ATOM     30  O   UNL     1      47.940 -48.787  53.120  0.00  0.00    +0.000 OA
ATOM     31  H   UNL     1      48.103 -48.209  53.894  0.00  0.00    +0.000 HD
ENDBRANCH  29  30
ENDBRANCH  28  29
ENDBRANCH   4  28
BRANCH  17  32
ATOM     32  O   UNL     1      50.184 -38.510  46.081  0.00  0.00    +0.000 OA
ATOM     33  C   UNL     1      49.320 -38.000  45.063  0.00  0.00    +0.000 C 
ENDBRANCH  17  32
BRANCH   3  34
ATOM     34  O   UNL     1      50.101 -45.696  49.862  0.00  0.00    +0.000 OA
BRANCH  34  36
ATOM     35  O   UNL     1      51.984 -46.933  49.176  0.00  0.00    +0.000 OA
ATOM     36  C   UNL     1      50.560 -46.871  49.188  0.00  0.00    +0.000 C 
ATOM     37  C   UNL     1      49.967 -46.904  47.778  0.00  0.00    +0.000 C 
ATOM     38  C   UNL     1      50.590 -45.819  46.896  0.00  0.00    +0.000 C 
ATOM     39  C   UNL     1      52.126 -45.950  46.922  0.00  0.00    +0.000 C 
ATOM     40  C   UNL     1      52.606 -45.911  48.386  0.00  0.00    +0.000 C 
ATOM     41  C   UNL     1      54.112 -46.106  48.513  0.00  0.00    +0.000 C 
BRANCH  38  42
ATOM     42  N   UNL     1      50.087 -45.917  45.514  0.00  0.00    +0.000 NA
ATOM     43  H   UNL     1      50.477 -46.740  45.058  0.00  0.00    +0.000 HD
ATOM     44  H   UNL     1      50.458 -45.108  45.004  0.00  0.00    +0.000 HD
ENDBRANCH  38  42
BRANCH  39  45
ATOM     45  O   UNL     1      52.485 -47.187  46.278  0.00  0.00    +0.000 OA
ATOM     46  H   UNL     1      51.691 -47.525  45.833  0.00  0.00    +0.000 HD
ENDBRANCH  39  45
ENDBRANCH  34  36
ENDBRANCH   3  34
TORSDOF 11
ENDMDL
MODEL 2
REMARK VINA RESULT:      -8.9      1.730      2.346
REMARK  Name = 
REMARK  13 active torsions:
REMARK  status: ('A' for Active; 'I' for Inactive)
REMARK    1  A    between atoms: O_1  and  C_13
REMARK    2  A    between atoms: O_1  and  C_19
REMARK    3  A    between atoms: O_3  and  C_14
REMARK    4  A    between atoms: O_4  and  C_22
REMARK    5  A    between atoms: O_5  and  C_24
REMARK    6  A    between atoms: O_6  and  C_26
REMARK    7  A    between atoms: O_8  and  C_30
REMARK    8  A    between atoms: O_11  and  C_35
REMARK    9  A    between atoms: O_11  and  C_39
REMARK   10  A    between atoms: N_12  and  C_21
REMARK   11  A    between atoms: C_14  and  C_25
REMARK   12  A    between atoms: C_23  and  C_29
REMARK   13  A    between atoms: C_25  and  C_30
REMARK                            x       y       z     vdW  Elec       q    Type
REMARK                         _______ _______ _______ _____ _____    ______ ____
ROOT
ATOM      1  O   UNL     1      50.092 -40.600  47.198  0.00  0.00    +0.000 OA
ATOM      2  O   UNL     1      47.743 -40.922  51.956  0.00  0.00    +0.000 OA
ATOM      3  C   UNL     1      49.551 -45.656  47.871  0.00  0.00    +0.000 C 
ATOM      4  C   UNL     1      48.773 -47.073  49.822  0.00  0.00    +0.000 C 
ATOM      5  C   UNL     1      48.727 -46.870  48.302  0.00  0.00    +0.000 C 
ATOM      6  C   UNL     1      48.227 -45.838  50.552  0.00  0.00    +0.000 C 
ATOM      7  C   UNL     1      49.172 -44.411  48.648  0.00  0.00    +0.000 A 
ATOM      8  C   UNL     1      48.584 -44.502  49.924  0.00  0.00    +0.000 A 
ATOM      9  C   UNL     1      49.459 -43.138  48.120  0.00  0.00    +0.000 A 
ATOM     10  C   UNL     1      48.275 -43.320  50.622  0.00  0.00    +0.000 A 
ATOM     11  C   UNL     1      49.157 -41.960  48.830  0.00  0.00    +0.000 A 
ATOM     12  C   UNL     1      48.561 -42.055  50.083  0.00  0.00    +0.000 A 
ATOM     13  C   UNL     1      49.480 -40.632  48.261  0.00  0.00    +0.000 C 
ATOM     14  C   UNL     1      48.237 -40.829  50.836  0.00  0.00    +0.000 C 
ATOM     15  C   UNL     1      49.090 -39.397  48.982  0.00  0.00    +0.000 A 
ATOM     16  C   UNL     1      48.496 -39.506  50.242  0.00  0.00    +0.000 A 
ATOM     17  C   UNL     1      49.305 -38.116  48.450  0.00  0.00    +0.000 A 
ATOM     18  C   UNL     1      48.126 -38.358  50.960  0.00  0.00    +0.000 A 
ATOM     19  C   UNL     1      48.911 -36.974  49.156  0.00  0.00    +0.000 A 
ATOM     20  C   UNL     1      48.332 -37.094  50.416  0.00  0.00    +0.000 A 
ENDROOT
BRANCH   4  21
ATOM     21  O   UNL     1      50.113 -47.346  50.253  0.00  0.00    +0.000 OA
ATOM     22  H   UNL     1      50.639 -46.535  50.088  0.00  0.00    +0.000 HD
ENDBRANCH   4  21
BRANCH   9  23
ATOM     23  O   UNL     1      50.046 -43.097  46.878  0.00  0.00    +0.000 OA
ATOM     24  H   UNL     1      50.011 -44.000  46.482  0.00  0.00    +0.000 HD
ENDBRANCH   9  23
BRANCH  10  25
ATOM     25  O   UNL     1      47.677 -43.468  51.850  0.00  0.00    +0.000 OA
ATOM     26  H   UNL     1      48.345 -43.800  52.491  0.00  0.00    +0.000 HD
ENDBRANCH  10  25
BRANCH   4  28
ATOM     27  O   UNL     1      46.796 -48.500  49.736  0.00  0.00    +0.000 OA
ATOM     28  C   UNL     1      47.918 -48.291  50.211  0.00  0.00    +0.000 C 
BRANCH  28  29
ATOM     29  C   UNL     1      48.499 -49.251  51.246  0.00  0.00    +0.000 C 
BRANCH  29  30
ATOM     30  O   UNL     1      48.546 -48.655  52.537  0.00  0.00    +0.000 OA
ATOM     31  H   UNL     1      49.403 -48.184  52.588  0.00  0.00    +0.000 HD
ENDBRANCH  29  30
ENDBRANCH  28  29
ENDBRANCH   4  28
BRANCH  17  32
ATOM     32  O   UNL     1      49.804 -37.929  47.188  0.00  0.00    +0.000 OA
ATOM     33  C   UNL     1      48.902 -37.147  46.401  0.00  0.00    +0.000 C 
ENDBRANCH  17  32
BRANCH   3  34
ATOM     34  O   UNL     1      50.935 -45.910  48.167  0.00  0.00    +0.000 OA
BRANCH  34  36
ATOM     35  O   UNL     1      52.087 -46.677  46.261  0.00  0.00    +0.000 OA
ATOM     36  C   UNL     1      51.797 -45.549  47.084  0.00  0.00    +0.000 C 
ATOM     37  C   UNL     1      53.065 -44.902  47.646  0.00  0.00    +0.000 C 
ATOM     38  C   UNL     1      53.938 -45.937  48.362  0.00  0.00    +0.000 C 
ATOM     39  C   UNL     1      54.218 -47.121  47.414  0.00  0.00    +0.000 C 
ATOM     40  C   UNL     1      52.876 -47.683  46.908  0.00  0.00    +0.000 C 
ATOM     41  C   UNL     1      53.058 -48.818  45.905  0.00  0.00    +0.000 C 
BRANCH  38  42
ATOM     42  N   UNL     1      55.201 -45.328  48.816  0.00  0.00    +0.000 NA
ATOM     43  H   UNL     1      55.840 -46.052  49.141  0.00  0.00    +0.000 HD
ATOM     44  H   UNL     1      54.977 -44.758  49.639  0.00  0.00    +0.000 HD
ENDBRANCH  38  42
BRANCH  39  45
ATOM     45  O   UNL     1      55.038 -46.647  46.330  0.00  0.00    +0.000 OA
ATOM     46  H   UNL     1      54.474 -46.591  45.540  0.00  0.00    +0.000 HD
ENDBRANCH  39  45
ENDBRANCH  34  36
ENDBRANCH   3  34
TORSDOF 11
ENDMDL
MODEL 3
REMARK VINA RESULT:      -8.7      2.302      7.965
REMARK  Name = 
REMARK  13 active torsions:
REMARK  status: ('A' for Active; 'I' for Inactive)
REMARK    1  A    between atoms: O_1  and  C_13
REMARK    2  A    between atoms: O_1  and  C_19
REMARK    3  A    between atoms: O_3  and  C_14
REMARK    4  A    between atoms: O_4  and  C_22
REMARK    5  A    between atoms: O_5  and  C_24
REMARK    6  A    between atoms: O_6  and  C_26
REMARK    7  A    between atoms: O_8  and  C_30
REMARK    8  A    between atoms: O_11  and  C_35
REMARK    9  A    between atoms: O_11  and  C_39
REMARK   10  A    between atoms: N_12  and  C_21
REMARK   11  A    between atoms: C_14  and  C_25
REMARK   12  A    between atoms: C_23  and  C_29
REMARK   13  A    between atoms: C_25  and  C_30
REMARK                            x       y       z     vdW  Elec       q    Type
REMARK                         _______ _______ _______ _____ _____    ______ ____
ROOT
ATOM      1  O   UNL     1      49.951 -45.235  48.106  0.00  0.00    +0.000 OA
ATOM      2  O   UNL     1      47.293 -44.614  52.668  0.00  0.00    +0.000 OA
ATOM      3  C   UNL     1      49.838 -40.140  48.683  0.00  0.00    +0.000 C 
ATOM      4  C   UNL     1      48.683 -38.606  50.337  0.00  0.00    +0.000 C 
ATOM      5  C   UNL     1      49.969 -38.886  49.549  0.00  0.00    +0.000 C 
ATOM      6  C   UNL     1      48.340 -39.790  51.254  0.00  0.00    +0.000 C 
ATOM      7  C   UNL     1      49.363 -41.334  49.487  0.00  0.00    +0.000 A 
ATOM      8  C   UNL     1      48.627 -41.164  50.676  0.00  0.00    +0.000 A 
ATOM      9  C   UNL     1      49.607 -42.639  49.019  0.00  0.00    +0.000 A 
ATOM     10  C   UNL     1      48.182 -42.301  51.374  0.00  0.00    +0.000 A 
ATOM     11  C   UNL     1      49.148 -43.772  49.719  0.00  0.00    +0.000 A 
ATOM     12  C   UNL     1      48.435 -43.599  50.900  0.00  0.00    +0.000 A 
ATOM     13  C   UNL     1      49.405 -45.134  49.200  0.00  0.00    +0.000 C 
ATOM     14  C   UNL     1      47.951 -44.776  51.644  0.00  0.00    +0.000 C 
ATOM     15  C   UNL     1      48.983 -46.321  49.982  0.00  0.00    +0.000 A 
ATOM     16  C   UNL     1      48.264 -46.133  51.164  0.00  0.00    +0.000 A 
ATOM     17  C   UNL     1      49.270 -47.632  49.571  0.00  0.00    +0.000 A 
ATOM     18  C   UNL     1      47.837 -47.234  51.924  0.00  0.00    +0.000 A 
ATOM     19  C   UNL     1      48.865 -48.727  50.343  0.00  0.00    +0.000 A 
ATOM     20  C   UNL     1      48.139 -48.528  51.514  0.00  0.00    +0.000 A 
ENDROOT
BRANCH   4  21
ATOM     21  O   UNL     1      47.592 -38.345  49.445  0.00  0.00    +0.000 OA
ATOM     22  H   UNL     1      47.950 -38.388  48.532  0.00  0.00    +0.000 HD
ENDBRANCH   4  21
BRANCH   9  23
ATOM     23  O   UNL     1      50.317 -42.757  47.847  0.00  0.00    +0.000 OA
ATOM     24  H   UNL     1      50.920 -43.534  47.921  0.00  0.00    +0.000 HD
ENDBRANCH   9  23
BRANCH  10  25
ATOM     25  O   UNL     1      47.493 -42.076  52.541  0.00  0.00    +0.000 OA
ATOM     26  H   UNL     1      46.878 -42.829  52.698  0.00  0.00    +0.000 HD
ENDBRANCH  10  25
BRANCH   4  28
ATOM     27  O   UNL     1      49.798 -37.222  52.008  0.00  0.00    +0.000 OA
ATOM     28  C   UNL     1      48.867 -37.350  51.205  0.00  0.00    +0.000 C 
BRANCH  28  29
ATOM     29  C   UNL     1      47.826 -36.242  51.061  0.00  0.00    +0.000 C 
BRANCH  29  30
ATOM     30  O   UNL     1      46.557 -36.657  51.554  0.00  0.00    +0.000 OA
ATOM     31  H   UNL     1      45.896 -36.077  51.124  0.00  0.00    +0.000 HD
ENDBRANCH  29  30
ENDBRANCH  28  29
ENDBRANCH   4  28
BRANCH  17  32
ATOM     32  O   UNL     1      50.040 -47.896  48.470  0.00  0.00    +0.000 OA
ATOM     33  C   UNL     1      49.347 -48.759  47.565  0.00  0.00    +0.000 C 
ENDBRANCH  17  32
BRANCH   3  34
ATOM     34  O   UNL     1      48.834 -39.905  47.680  0.00  0.00    +0.000 OA
BRANCH  34  36
ATOM     35  O   UNL     1      49.852 -38.339  46.246  0.00  0.00    +0.000 OA
ATOM     36  C   UNL     1      49.401 -39.684  46.386  0.00  0.00    +0.000 C 
ATOM     37  C   UNL     1      48.374 -40.063  45.317  0.00  0.00    +0.000 C 
ATOM     38  C   UNL     1      47.217 -39.061  45.287  0.00  0.00    +0.000 C 
ATOM     39  C   UNL     1      47.775 -37.632  45.126  0.00  0.00    +0.000 C 
ATOM     40  C   UNL     1      48.798 -37.367  46.247  0.00  0.00    +0.000 C 
ATOM     41  C   UNL     1      49.457 -35.997  46.125  0.00  0.00    +0.000 C 
BRANCH  38  42
ATOM     42  N   UNL     1      46.282 -39.377  44.193  0.00  0.00    +0.000 NA
ATOM     43  H   UNL     1      45.702 -40.174  44.449  0.00  0.00    +0.000 HD
ATOM     44  H   UNL     1      46.850 -39.683  43.396  0.00  0.00    +0.000 HD
ENDBRANCH  38  42
BRANCH  39  45
ATOM     45  O   UNL     1      48.376 -37.527  43.822  0.00  0.00    +0.000 OA
ATOM     46  H   UNL     1      48.255 -38.381  43.375  0.00  0.00    +0.000 HD
ENDBRANCH  39  45
ENDBRANCH  34  36
ENDBRANCH   3  34
TORSDOF 11
ENDMDL
MODEL 4
REMARK VINA RESULT:      -8.1      2.004      2.691
REMARK  Name = 
REMARK  13 active torsions:
REMARK  status: ('A' for Active; 'I' for Inactive)
REMARK    1  A    between atoms: O_1  and  C_13
REMARK    2  A    between atoms: O_1  and  C_19
REMARK    3  A    between atoms: O_3  and  C_14
REMARK    4  A    between atoms: O_4  and  C_22
REMARK    5  A    between atoms: O_5  and  C_24
REMARK    6  A    between atoms: O_6  and  C_26
REMARK    7  A    between atoms: O_8  and  C_30
REMARK    8  A    between atoms: O_11  and  C_35
REMARK    9  A    between atoms: O_11  and  C_39
REMARK   10  A    between atoms: N_12  and  C_21
REMARK   11  A    between atoms: C_14  and  C_25
REMARK   12  A    between atoms: C_23  and  C_29
REMARK   13  A    between atoms: C_25  and  C_30
REMARK                            x       y       z     vdW  Elec       q    Type
REMARK                         _______ _______ _______ _____ _____    ______ ____
ROOT
ATOM      1  O   UNL     1      50.025 -40.314  45.452  0.00  0.00    +0.000 OA
ATOM      2  O   UNL     1      48.958 -39.910  50.644  0.00  0.00    +0.000 OA
ATOM      3  C   UNL     1      49.893 -45.208  46.981  0.00  0.00    +0.000 C 
ATOM      4  C   UNL     1      49.692 -46.312  49.253  0.00  0.00    +0.000 C 
ATOM      5  C   UNL     1      49.257 -46.346  47.782  0.00  0.00    +0.000 C 
ATOM      6  C   UNL     1      49.292 -44.981  49.906  0.00  0.00    +0.000 C 
ATOM      7  C   UNL     1      49.666 -43.860  47.635  0.00  0.00    +0.000 A 
ATOM      8  C   UNL     1      49.420 -43.756  49.018  0.00  0.00    +0.000 A 
ATOM      9  C   UNL     1      49.755 -42.682  46.870  0.00  0.00    +0.000 A 
ATOM     10  C   UNL     1      49.244 -42.482  49.588  0.00  0.00    +0.000 A 
ATOM     11  C   UNL     1      49.589 -41.410  47.451  0.00  0.00    +0.000 A 
ATOM     12  C   UNL     1      49.331 -41.314  48.813  0.00  0.00    +0.000 A 
ATOM     13  C   UNL     1      49.700 -40.185  46.628  0.00  0.00    +0.000 C 
ATOM     14  C   UNL     1      49.151 -39.988  49.435  0.00  0.00    +0.000 C 
ATOM     15  C   UNL     1      49.449 -38.855  47.234  0.00  0.00    +0.000 A 
ATOM     16  C   UNL     1      49.195 -38.772  48.604  0.00  0.00    +0.000 A 
ATOM     17  C   UNL     1      49.468 -37.671  46.481  0.00  0.00    +0.000 A 
ATOM     18  C   UNL     1      48.966 -37.529  49.215  0.00  0.00    +0.000 A 
ATOM     19  C   UNL     1      49.213 -36.435  47.087  0.00  0.00    +0.000 A 
ATOM     20  C   UNL     1      48.973 -36.363  48.456  0.00  0.00    +0.000 A 
ENDROOT
BRANCH   4  21
ATOM     21  O   UNL     1      51.107 -46.507  49.365  0.00  0.00    +0.000 OA
ATOM     22  H   UNL     1      51.346 -47.237  48.754  0.00  0.00    +0.000 HD
ENDBRANCH   4  21
BRANCH   9  23
ATOM     23  O   UNL     1      50.010 -42.831  45.527  0.00  0.00    +0.000 OA
ATOM     24  H   UNL     1      50.871 -42.396  45.319  0.00  0.00    +0.000 HD
ENDBRANCH   9  23
BRANCH  10  25
ATOM     25  O   UNL     1      48.979 -42.442  50.936  0.00  0.00    +0.000 OA
ATOM     26  H   UNL     1      48.256 -41.795  51.099  0.00  0.00    +0.000 HD
ENDBRANCH  10  25
BRANCH   4  28
ATOM     27  O   UNL     1      47.791 -47.631  50.027  0.00  0.00    +0.000 OA
ATOM     28  C   UNL     1      49.015 -47.459  50.023  0.00  0.00    +0.000 C 
BRANCH  28  29
ATOM     29  C   UNL     1      49.920 -48.394  50.821  0.00  0.00    +0.000 C 
BRANCH  29  30
ATOM     30  O   UNL     1      50.537 -47.713  51.908  0.00  0.00    +0.000 OA
ATOM     31  H   UNL     1      50.947 -48.406  52.464  0.00  0.00    +0.000 HD
ENDBRANCH  29  30
ENDBRANCH  28  29
ENDBRANCH   4  28
BRANCH  17  32
ATOM     32  O   UNL     1      49.626 -37.678  45.120  0.00  0.00    +0.000 OA
ATOM     33  C   UNL     1      49.724 -36.343  44.618  0.00  0.00    +0.000 C 
ENDBRANCH  17  32
BRANCH   3  34
ATOM     34  O   UNL     1      51.317 -45.406  46.949  0.00  0.00    +0.000 OA
BRANCH  34  36
ATOM     35  O   UNL     1      52.406 -47.140  45.786  0.00  0.00    +0.000 OA
ATOM     36  C   UNL     1      51.774 -45.867  45.675  0.00  0.00    +0.000 C 
ATOM     37  C   UNL     1      52.700 -44.813  45.063  0.00  0.00    +0.000 C 
ATOM     38  C   UNL     1      54.027 -44.742  45.823  0.00  0.00    +0.000 C 
ATOM     39  C   UNL     1      54.657 -46.147  45.897  0.00  0.00    +0.000 C 
ATOM     40  C   UNL     1      53.636 -47.119  46.520  0.00  0.00    +0.000 C 
ATOM     41  C   UNL     1      54.150 -48.554  46.568  0.00  0.00    +0.000 C 
BRANCH  38  42
ATOM     42  N   UNL     1      54.950 -43.795  45.171  0.00  0.00    +0.000 NA
ATOM     43  H   UNL     1      54.531 -42.868  45.136  0.00  0.00    +0.000 HD
ATOM     44  H   UNL     1      55.047 -44.099  44.196  0.00  0.00    +0.000 HD
ENDBRANCH  38  42
BRANCH  39  45
ATOM     45  O   UNL     1      55.026 -46.547  44.564  0.00  0.00    +0.000 OA
ATOM     46  H   UNL     1      54.229 -46.495  44.012  0.00  0.00    +0.000 HD
ENDBRANCH  39  45
ENDBRANCH  34  36
ENDBRANCH   3  34
TORSDOF 11
ENDMDL
MODEL 5
REMARK VINA RESULT:      -7.4     18.031     22.621
REMARK  Name = 
REMARK  13 active torsions:
REMARK  status: ('A' for Active; 'I' for Inactive)
REMARK    1  A    between atoms: O_1  and  C_13
REMARK    2  A    between atoms: O_1  and  C_19
REMARK    3  A    between atoms: O_3  and  C_14
REMARK    4  A    between atoms: O_4  and  C_22
REMARK    5  A    between atoms: O_5  and  C_24
REMARK    6  A    between atoms: O_6  and  C_26
REMARK    7  A    between atoms: O_8  and  C_30
REMARK    8  A    between atoms: O_11  and  C_35
REMARK    9  A    between atoms: O_11  and  C_39
REMARK   10  A    between atoms: N_12  and  C_21
REMARK   11  A    between atoms: C_14  and  C_25
REMARK   12  A    between atoms: C_23  and  C_29
REMARK   13  A    between atoms: C_25  and  C_30
REMARK                            x       y       z     vdW  Elec       q    Type
REMARK                         _______ _______ _______ _____ _____    ______ ____
ROOT
ATOM      1  O   UNL     1      32.519 -26.636  53.781  0.00  0.00    +0.000 OA
ATOM      2  O   UNL     1      33.854 -29.589  57.996  0.00  0.00    +0.000 OA
ATOM      3  C   UNL     1      37.589 -27.190  53.235  0.00  0.00    +0.000 C 
ATOM      4  C   UNL     1      39.392 -28.199  54.701  0.00  0.00    +0.000 C 
ATOM      5  C   UNL     1      38.855 -28.048  53.272  0.00  0.00    +0.000 C 
ATOM      6  C   UNL     1      38.341 -28.854  55.609  0.00  0.00    +0.000 C 
ATOM      7  C   UNL     1      36.542 -27.686  54.212  0.00  0.00    +0.000 A 
ATOM      8  C   UNL     1      36.905 -28.437  55.347  0.00  0.00    +0.000 A 
ATOM      9  C   UNL     1      35.188 -27.350  54.024  0.00  0.00    +0.000 A 
ATOM     10  C   UNL     1      35.903 -28.852  56.243  0.00  0.00    +0.000 A 
ATOM     11  C   UNL     1      34.193 -27.760  54.932  0.00  0.00    +0.000 A 
ATOM     12  C   UNL     1      34.554 -28.514  56.042  0.00  0.00    +0.000 A 
ATOM     13  C   UNL     1      32.777 -27.383  54.720  0.00  0.00    +0.000 C 
ATOM     14  C   UNL     1      33.522 -28.953  57.000  0.00  0.00    +0.000 C 
ATOM     15  C   UNL     1      31.727 -27.882  55.640  0.00  0.00    +0.000 A 
ATOM     16  C   UNL     1      32.104 -28.635  56.754  0.00  0.00    +0.000 A 
ATOM     17  C   UNL     1      30.364 -27.616  55.439  0.00  0.00    +0.000 A 
ATOM     18  C   UNL     1      31.139 -29.113  57.655  0.00  0.00    +0.000 A 
ATOM     19  C   UNL     1      29.401 -28.116  56.324  0.00  0.00    +0.000 A 
ATOM     20  C   UNL     1      29.789 -28.855  57.438  0.00  0.00    +0.000 A 
ENDROOT
BRANCH   4  21
ATOM     21  O   UNL     1      39.775 -26.925  55.234  0.00  0.00    +0.000 OA
ATOM     22  H   UNL     1      39.068 -26.649  55.855  0.00  0.00    +0.000 HD
ENDBRANCH   4  21
BRANCH   9  23
ATOM     23  O   UNL     1      34.881 -26.605  52.910  0.00  0.00    +0.000 OA
ATOM     24  H   UNL     1      34.178 -25.955  53.148  0.00  0.00    +0.000 HD
ENDBRANCH   9  23
BRANCH  10  25
ATOM     25  O   UNL     1      36.311 -29.604  57.318  0.00  0.00    +0.000 OA
ATOM     26  H   UNL     1      37.212 -29.956  57.136  0.00  0.00    +0.000 HD
ENDBRANCH  10  25
BRANCH   4  28
ATOM     27  O   UNL     1      41.738 -28.694  54.246  0.00  0.00    +0.000 OA
ATOM     28  C   UNL     1      40.652 -29.082  54.693  0.00  0.00    +0.000 C 
BRANCH  28  29
ATOM     29  C   UNL     1      40.518 -30.497  55.249  0.00  0.00    +0.000 C 
BRANCH  29  30
ATOM     30  O   UNL     1      40.436 -31.458  54.204  0.00  0.00    +0.000 OA
ATOM     31  H   UNL     1      39.856 -32.174  54.537  0.00  0.00    +0.000 HD
ENDBRANCH  29  30
ENDBRANCH  28  29
ENDBRANCH   4  28
BRANCH  17  32
ATOM     32  O   UNL     1      29.908 -26.958  54.328  0.00  0.00    +0.000 OA
ATOM     33  C   UNL     1      29.148 -27.838  53.497  0.00  0.00    +0.000 C 
ENDBRANCH  17  32
BRANCH   3  34
ATOM     34  O   UNL     1      37.924 -25.854  53.647  0.00  0.00    +0.000 OA
BRANCH  34  36
ATOM     35  O   UNL     1      39.387 -24.080  53.142  0.00  0.00    +0.000 OA
ATOM     36  C   UNL     1      38.558 -25.107  52.604  0.00  0.00    +0.000 C 
ATOM     37  C   UNL     1      37.487 -24.552  51.663  0.00  0.00    +0.000 C 
ATOM     38  C   UNL     1      36.678 -23.445  52.343  0.00  0.00    +0.000 C 
ATOM     39  C   UNL     1      37.635 -22.368  52.892  0.00  0.00    +0.000 C 
ATOM     40  C   UNL     1      38.667 -23.041  53.816  0.00  0.00    +0.000 C 
ATOM     41  C   UNL     1      39.702 -22.057  54.351  0.00  0.00    +0.000 C 
BRANCH  38  42
ATOM     42  N   UNL     1      35.714 -22.849  51.401  0.00  0.00    +0.000 NA
ATOM     43  H   UNL     1      35.510 -21.889  51.671  0.00  0.00    +0.000 HD
ATOM     44  H   UNL     1      34.835 -23.366  51.508  0.00  0.00    +0.000 HD
ENDBRANCH  38  42
BRANCH  39  45
ATOM     45  O   UNL     1      38.268 -21.716  51.775  0.00  0.00    +0.000 OA
ATOM     46  H   UNL     1      37.907 -20.815  51.719  0.00  0.00    +0.000 HD
ENDBRANCH  39  45
ENDBRANCH  34  36
ENDBRANCH   3  34
TORSDOF 11
ENDMDL
MODEL 6
REMARK VINA RESULT:      -7.4      2.297      4.083
REMARK  Name = 
REMARK  13 active torsions:
REMARK  status: ('A' for Active; 'I' for Inactive)
REMARK    1  A    between atoms: O_1  and  C_13
REMARK    2  A    between atoms: O_1  and  C_19
REMARK    3  A    between atoms: O_3  and  C_14
REMARK    4  A    between atoms: O_4  and  C_22
REMARK    5  A    between atoms: O_5  and  C_24
REMARK    6  A    between atoms: O_6  and  C_26
REMARK    7  A    between atoms: O_8  and  C_30
REMARK    8  A    between atoms: O_11  and  C_35
REMARK    9  A    between atoms: O_11  and  C_39
REMARK   10  A    between atoms: N_12  and  C_21
REMARK   11  A    between atoms: C_14  and  C_25
REMARK   12  A    between atoms: C_23  and  C_29
REMARK   13  A    between atoms: C_25  and  C_30
REMARK                            x       y       z     vdW  Elec       q    Type
REMARK                         _______ _______ _______ _____ _____    ______ ____
ROOT
ATOM      1  O   UNL     1      50.281 -40.021  43.299  0.00  0.00    +0.000 OA
ATOM      2  O   UNL     1      49.313 -36.830  47.440  0.00  0.00    +0.000 OA
ATOM      3  C   UNL     1      49.379 -43.331  47.112  0.00  0.00    +0.000 C 
ATOM      4  C   UNL     1      49.014 -43.051  49.604  0.00  0.00    +0.000 C 
ATOM      5  C   UNL     1      48.574 -43.785  48.331  0.00  0.00    +0.000 C 
ATOM      6  C   UNL     1      48.834 -41.534  49.445  0.00  0.00    +0.000 C 
ATOM      7  C   UNL     1      49.372 -41.823  46.960  0.00  0.00    +0.000 A 
ATOM      8  C   UNL     1      49.152 -40.982  48.067  0.00  0.00    +0.000 A 
ATOM      9  C   UNL     1      49.644 -41.241  45.707  0.00  0.00    +0.000 A 
ATOM     10  C   UNL     1      49.182 -39.587  47.885  0.00  0.00    +0.000 A 
ATOM     11  C   UNL     1      49.684 -39.844  45.535  0.00  0.00    +0.000 A 
ATOM     12  C   UNL     1      49.450 -39.018  46.629  0.00  0.00    +0.000 A 
ATOM     13  C   UNL     1      49.986 -39.255  44.211  0.00  0.00    +0.000 C 
ATOM     14  C   UNL     1      49.487 -37.553  46.463  0.00  0.00    +0.000 C 
ATOM     15  C   UNL     1      49.952 -37.785  44.025  0.00  0.00    +0.000 A 
ATOM     16  C   UNL     1      49.720 -36.966  45.132  0.00  0.00    +0.000 A 
ATOM     17  C   UNL     1      50.155 -37.181  42.774  0.00  0.00    +0.000 A 
ATOM     18  C   UNL     1      49.694 -35.569  44.996  0.00  0.00    +0.000 A 
ATOM     19  C   UNL     1      50.103 -35.789  42.636  0.00  0.00    +0.000 A 
ATOM     20  C   UNL     1      49.883 -34.983  43.748  0.00  0.00    +0.000 A 
ENDROOT
BRANCH   4  21
ATOM     21  O   UNL     1      50.381 -43.352  49.912  0.00  0.00    +0.000 OA
ATOM     22  H   UNL     1      50.381 -43.860  50.752  0.00  0.00    +0.000 HD
ENDBRANCH   4  21
BRANCH   9  23
ATOM     23  O   UNL     1      49.867 -42.101  44.657  0.00  0.00    +0.000 OA
ATOM     24  H   UNL     1      49.370 -42.936  44.823  0.00  0.00    +0.000 HD
ENDBRANCH   9  23
BRANCH  10  25
ATOM     25  O   UNL     1      48.934 -38.816  48.994  0.00  0.00    +0.000 OA
ATOM     26  H   UNL     1      48.394 -38.037  48.726  0.00  0.00    +0.000 HD
ENDBRANCH  10  25
BRANCH   4  28
ATOM     27  O   UNL     1      47.564 -44.603  50.804  0.00  0.00    +0.000 OA
ATOM     28  C   UNL     1      48.167 -43.524  50.798  0.00  0.00    +0.000 C 
BRANCH  28  29
ATOM     29  C   UNL     1      48.072 -42.589  52.001  0.00  0.00    +0.000 C 
BRANCH  29  30
ATOM     30  O   UNL     1      46.829 -41.897  52.022  0.00  0.00    +0.000 OA
ATOM     31  H   UNL     1      46.968 -41.105  52.579  0.00  0.00    +0.000 HD
ENDBRANCH  29  30
ENDBRANCH  28  29
ENDBRANCH   4  28
BRANCH  17  32
ATOM     32  O   UNL     1      50.305 -37.917  41.628  0.00  0.00    +0.000 OA
ATOM     33  C   UNL     1      49.185 -37.730  40.760  0.00  0.00    +0.000 C 
ENDBRANCH  17  32
BRANCH   3  34
ATOM     34  O   UNL     1      50.753 -43.711  47.300  0.00  0.00    +0.000 OA
BRANCH  34  36
ATOM     35  O   UNL     1      50.867 -46.018  47.759  0.00  0.00    +0.000 OA
ATOM     36  C   UNL     1      51.037 -45.008  46.767  0.00  0.00    +0.000 C 
ATOM     37  C   UNL     1      52.448 -45.010  46.176  0.00  0.00    +0.000 C 
ATOM     38  C   UNL     1      53.505 -44.927  47.280  0.00  0.00    +0.000 C 
ATOM     39  C   UNL     1      53.267 -46.050  48.310  0.00  0.00    +0.000 C 
ATOM     40  C   UNL     1      51.819 -45.952  48.828  0.00  0.00    +0.000 C 
ATOM     41  C   UNL     1      51.471 -47.072  49.803  0.00  0.00    +0.000 C 
BRANCH  38  42
ATOM     42  N   UNL     1      54.862 -45.026  46.711  0.00  0.00    +0.000 NA
ATOM     43  H   UNL     1      55.088 -44.176  46.199  0.00  0.00    +0.000 HD
ATOM     44  H   UNL     1      54.837 -45.778  46.014  0.00  0.00    +0.000 HD
ENDBRANCH  38  42
BRANCH  39  45
ATOM     45  O   UNL     1      53.517 -47.313  47.666  0.00  0.00    +0.000 OA
ATOM     46  H   UNL     1      52.944 -47.360  46.883  0.00  0.00    +0.000 HD
ENDBRANCH  39  45
ENDBRANCH  34  36
ENDBRANCH   3  34
TORSDOF 11
ENDMDL
MODEL 7
REMARK VINA RESULT:      -7.3      9.474     16.090
REMARK  Name = 
REMARK  13 active torsions:
REMARK  status: ('A' for Active; 'I' for Inactive)
REMARK    1  A    between atoms: O_1  and  C_13
REMARK    2  A    between atoms: O_1  and  C_19
REMARK    3  A    between atoms: O_3  and  C_14
REMARK    4  A    between atoms: O_4  and  C_22
REMARK    5  A    between atoms: O_5  and  C_24
REMARK    6  A    between atoms: O_6  and  C_26
REMARK    7  A    between atoms: O_8  and  C_30
REMARK    8  A    between atoms: O_11  and  C_35
REMARK    9  A    between atoms: O_11  and  C_39
REMARK   10  A    between atoms: N_12  and  C_21
REMARK   11  A    between atoms: C_14  and  C_25
REMARK   12  A    between atoms: C_23  and  C_29
REMARK   13  A    between atoms: C_25  and  C_30
REMARK                            x       y       z     vdW  Elec       q    Type
REMARK                         _______ _______ _______ _____ _____    ______ ____
ROOT
ATOM      1  O   UNL     1      46.130 -56.093  60.217  0.00  0.00    +0.000 OA
ATOM      2  O   UNL     1      41.728 -55.840  57.246  0.00  0.00    +0.000 OA
ATOM      3  C   UNL     1      47.535 -53.040  56.342  0.00  0.00    +0.000 C 
ATOM      4  C   UNL     1      46.403 -52.339  54.187  0.00  0.00    +0.000 C 
ATOM      5  C   UNL     1      47.258 -51.886  55.377  0.00  0.00    +0.000 C 
ATOM      6  C   UNL     1      45.055 -52.897  54.668  0.00  0.00    +0.000 C 
ATOM      7  C   UNL     1      46.260 -53.743  56.762  0.00  0.00    +0.000 A 
ATOM      8  C   UNL     1      45.108 -53.704  55.954  0.00  0.00    +0.000 A 
ATOM      9  C   UNL     1      46.231 -54.498  57.950  0.00  0.00    +0.000 A 
ATOM     10  C   UNL     1      43.955 -54.395  56.369  0.00  0.00    +0.000 A 
ATOM     11  C   UNL     1      45.076 -55.196  58.353  0.00  0.00    +0.000 A 
ATOM     12  C   UNL     1      43.937 -55.141  57.559  0.00  0.00    +0.000 A 
ATOM     13  C   UNL     1      45.074 -55.994  59.600  0.00  0.00    +0.000 C 
ATOM     14  C   UNL     1      42.719 -55.865  57.970  0.00  0.00    +0.000 C 
ATOM     15  C   UNL     1      43.832 -56.664  60.053  0.00  0.00    +0.000 A 
ATOM     16  C   UNL     1      42.695 -56.604  59.244  0.00  0.00    +0.000 A 
ATOM     17  C   UNL     1      43.757 -57.369  61.265  0.00  0.00    +0.000 A 
ATOM     18  C   UNL     1      41.504 -57.238  59.634  0.00  0.00    +0.000 A 
ATOM     19  C   UNL     1      42.562 -57.978  61.665  0.00  0.00    +0.000 A 
ATOM     20  C   UNL     1      41.439 -57.922  60.844  0.00  0.00    +0.000 A 
ENDROOT
BRANCH   4  21
ATOM     21  O   UNL     1      47.095 -53.328  53.415  0.00  0.00    +0.000 OA
ATOM     22  H   UNL     1      47.893 -52.896  53.042  0.00  0.00    +0.000 HD
ENDBRANCH   4  21
BRANCH   9  23
ATOM     23  O   UNL     1      47.382 -54.520  58.702  0.00  0.00    +0.000 OA
ATOM     24  H   UNL     1      47.208 -55.021  59.533  0.00  0.00    +0.000 HD
ENDBRANCH   9  23
BRANCH  10  25
ATOM     25  O   UNL     1      42.853 -54.299  55.555  0.00  0.00    +0.000 OA
ATOM     26  H   UNL     1      42.893 -53.447  55.063  0.00  0.00    +0.000 HD
ENDBRANCH  10  25
BRANCH   4  28
ATOM     27  O   UNL     1      45.128 -51.068  52.540  0.00  0.00    +0.000 OA
ATOM     28  C   UNL     1      46.134 -51.146  53.254  0.00  0.00    +0.000 C 
BRANCH  28  29
ATOM     29  C   UNL     1      47.185 -50.039  53.216  0.00  0.00    +0.000 C 
BRANCH  29  30
ATOM     30  O   UNL     1      46.719 -48.861  53.864  0.00  0.00    +0.000 OA
ATOM     31  H   UNL     1      46.322 -48.304  53.162  0.00  0.00    +0.000 HD
ENDBRANCH  29  30
ENDBRANCH  28  29
ENDBRANCH   4  28
BRANCH  17  32
ATOM     32  O   UNL     1      44.801 -57.402  62.151  0.00  0.00    +0.000 OA
ATOM     33  C   UNL     1      44.338 -57.727  63.464  0.00  0.00    +0.000 C 
ENDBRANCH  17  32
BRANCH   3  34
ATOM     34  O   UNL     1      48.335 -54.025  55.667  0.00  0.00    +0.000 OA
BRANCH  34  36
ATOM     35  O   UNL     1      50.495 -54.634  54.953  0.00  0.00    +0.000 OA
ATOM     36  C   UNL     1      49.736 -53.768  55.794  0.00  0.00    +0.000 C 
ATOM     37  C   UNL     1      50.138 -53.894  57.265  0.00  0.00    +0.000 C 
ATOM     38  C   UNL     1      50.081 -55.353  57.726  0.00  0.00    +0.000 C 
ATOM     39  C   UNL     1      50.928 -56.228  56.780  0.00  0.00    +0.000 C 
ATOM     40  C   UNL     1      50.440 -56.014  55.334  0.00  0.00    +0.000 C 
ATOM     41  C   UNL     1      51.270 -56.790  54.316  0.00  0.00    +0.000 C 
BRANCH  38  42
ATOM     42  N   UNL     1      50.561 -55.479  59.114  0.00  0.00    +0.000 NA
ATOM     43  H   UNL     1      49.813 -55.826  59.712  0.00  0.00    +0.000 HD
ATOM     44  H   UNL     1      50.770 -54.531  59.444  0.00  0.00    +0.000 HD
ENDBRANCH  38  42
BRANCH  39  45
ATOM     45  O   UNL     1      52.309 -55.855  56.935  0.00  0.00    +0.000 OA
ATOM     46  H   UNL     1      52.839 -56.466  56.397  0.00  0.00    +0.000 HD
ENDBRANCH  39  45
ENDBRANCH  34  36
ENDBRANCH   3  34
TORSDOF 11
ENDMDL
MODEL 8
REMARK VINA RESULT:      -7.3      1.561      2.034
REMARK  Name = 
REMARK  13 active torsions:
REMARK  status: ('A' for Active; 'I' for Inactive)
REMARK    1  A    between atoms: O_1  and  C_13
REMARK    2  A    between atoms: O_1  and  C_19
REMARK    3  A    between atoms: O_3  and  C_14
REMARK    4  A    between atoms: O_4  and  C_22
REMARK    5  A    between atoms: O_5  and  C_24
REMARK    6  A    between atoms: O_6  and  C_26
REMARK    7  A    between atoms: O_8  and  C_30
REMARK    8  A    between atoms: O_11  and  C_35
REMARK    9  A    between atoms: O_11  and  C_39
REMARK   10  A    between atoms: N_12  and  C_21
REMARK   11  A    between atoms: C_14  and  C_25
REMARK   12  A    between atoms: C_23  and  C_29
REMARK   13  A    between atoms: C_25  and  C_30
REMARK                            x       y       z     vdW  Elec       q    Type
REMARK                         _______ _______ _______ _____ _____    ______ ____
ROOT
ATOM      1  O   UNL     1      48.935 -40.530  46.083  0.00  0.00    +0.000 OA
ATOM      2  O   UNL     1      48.959 -39.320  51.260  0.00  0.00    +0.000 OA
ATOM      3  C   UNL     1      48.199 -45.082  48.328  0.00  0.00    +0.000 C 
ATOM      4  C   UNL     1      48.231 -45.852  50.742  0.00  0.00    +0.000 C 
ATOM      5  C   UNL     1      47.528 -45.963  49.383  0.00  0.00    +0.000 C 
ATOM      6  C   UNL     1      48.213 -44.401  51.245  0.00  0.00    +0.000 C 
ATOM      7  C   UNL     1      48.351 -43.650  48.802  0.00  0.00    +0.000 A 
ATOM      8  C   UNL     1      48.394 -43.339  50.175  0.00  0.00    +0.000 A 
ATOM      9  C   UNL     1      48.508 -42.612  47.864  0.00  0.00    +0.000 A 
ATOM     10  C   UNL     1      48.565 -42.000  50.569  0.00  0.00    +0.000 A 
ATOM     11  C   UNL     1      48.690 -41.275  48.267  0.00  0.00    +0.000 A 
ATOM     12  C   UNL     1      48.716 -40.972  49.624  0.00  0.00    +0.000 A 
ATOM     13  C   UNL     1      48.867 -40.202  47.263  0.00  0.00    +0.000 C 
ATOM     14  C   UNL     1      48.903 -39.575  50.060  0.00  0.00    +0.000 C 
ATOM     15  C   UNL     1      48.983 -38.789  47.696  0.00  0.00    +0.000 A 
ATOM     16  C   UNL     1      49.012 -38.498  49.061  0.00  0.00    +0.000 A 
ATOM     17  C   UNL     1      49.076 -37.728  46.781  0.00  0.00    +0.000 A 
ATOM     18  C   UNL     1      49.134 -37.173  49.508  0.00  0.00    +0.000 A 
ATOM     19  C   UNL     1      49.171 -36.405  47.228  0.00  0.00    +0.000 A 
ATOM     20  C   UNL     1      49.212 -36.128  48.592  0.00  0.00    +0.000 A 
ENDROOT
BRANCH   4  21
ATOM     21  O   UNL     1      49.582 -46.322  50.651  0.00  0.00    +0.000 OA
ATOM     22  H   UNL     1      50.040 -46.044  51.473  0.00  0.00    +0.000 HD
ENDBRANCH   4  21
BRANCH   9  23
ATOM     23  O   UNL     1      48.474 -42.963  46.535  0.00  0.00    +0.000 OA
ATOM     24  H   UNL     1      47.892 -42.328  46.056  0.00  0.00    +0.000 HD
ENDBRANCH   9  23
BRANCH  10  25
ATOM     25  O   UNL     1      48.571 -41.752  51.920  0.00  0.00    +0.000 OA
ATOM     26  H   UNL     1      47.642 -41.682  52.236  0.00  0.00    +0.000 HD
ENDBRANCH  10  25
BRANCH   4  28
ATOM     27  O   UNL     1      47.739 -47.949  51.888  0.00  0.00    +0.000 OA
ATOM     28  C   UNL     1      47.514 -46.738  51.775  0.00  0.00    +0.000 C 
BRANCH  28  29
ATOM     29  C   UNL     1      46.471 -46.068  52.667  0.00  0.00    +0.000 C 
BRANCH  29  30
ATOM     30  O   UNL     1      45.153 -46.465  52.309  0.00  0.00    +0.000 OA
ATOM     31  H   UNL     1      45.099 -47.425  52.491  0.00  0.00    +0.000 HD
ENDBRANCH  29  30
ENDBRANCH  28  29
ENDBRANCH   4  28
BRANCH  17  32
ATOM     32  O   UNL     1      48.971 -37.924  45.430  0.00  0.00    +0.000 OA
ATOM     33  C   UNL     1      49.158 -36.693  44.727  0.00  0.00    +0.000 C 
ENDBRANCH  17  32
BRANCH   3  34
ATOM     34  O   UNL     1      49.531 -45.573  48.096  0.00  0.00    +0.000 OA
BRANCH  34  36
ATOM     35  O   UNL     1      50.781 -44.290  46.566  0.00  0.00    +0.000 OA
ATOM     36  C   UNL     1      50.480 -44.514  47.942  0.00  0.00    +0.000 C 
ATOM     37  C   UNL     1      51.732 -44.840  48.761  0.00  0.00    +0.000 C 
ATOM     38  C   UNL     1      52.509 -46.002  48.137  0.00  0.00    +0.000 C 
ATOM     39  C   UNL     1      52.806 -45.689  46.656  0.00  0.00    +0.000 C 
ATOM     40  C   UNL     1      51.480 -45.372  45.938  0.00  0.00    +0.000 C 
ATOM     41  C   UNL     1      51.685 -44.981  44.479  0.00  0.00    +0.000 C 
BRANCH  38  42
ATOM     42  N   UNL     1      53.761 -46.247  48.875  0.00  0.00    +0.000 NA
ATOM     43  H   UNL     1      53.588 -46.211  49.878  0.00  0.00    +0.000 HD
ATOM     44  H   UNL     1      54.386 -45.461  48.668  0.00  0.00    +0.000 HD
ENDBRANCH  38  42
BRANCH  39  45
ATOM     45  O   UNL     1      53.718 -44.577  46.604  0.00  0.00    +0.000 OA
ATOM     46  H   UNL     1      54.076 -44.535  45.701  0.00  0.00    +0.000 HD
ENDBRANCH  39  45
ENDBRANCH  34  36
ENDBRANCH   3  34
TORSDOF 11
ENDMDL
MODEL 9
REMARK VINA RESULT:      -7.0     21.878     24.772
REMARK  Name = 
REMARK  13 active torsions:
REMARK  status: ('A' for Active; 'I' for Inactive)
REMARK    1  A    between atoms: O_1  and  C_13
REMARK    2  A    between atoms: O_1  and  C_19
REMARK    3  A    between atoms: O_3  and  C_14
REMARK    4  A    between atoms: O_4  and  C_22
REMARK    5  A    between atoms: O_5  and  C_24
REMARK    6  A    between atoms: O_6  and  C_26
REMARK    7  A    between atoms: O_8  and  C_30
REMARK    8  A    between atoms: O_11  and  C_35
REMARK    9  A    between atoms: O_11  and  C_39
REMARK   10  A    between atoms: N_12  and  C_21
REMARK   11  A    between atoms: C_14  and  C_25
REMARK   12  A    between atoms: C_23  and  C_29
REMARK   13  A    between atoms: C_25  and  C_30
REMARK                            x       y       z     vdW  Elec       q    Type
REMARK                         _______ _______ _______ _____ _____    ______ ____
ROOT
ATOM      1  O   UNL     1      61.964 -23.667  54.033  0.00  0.00    +0.000 OA
ATOM      2  O   UNL     1      64.561 -28.306  53.943  0.00  0.00    +0.000 OA
ATOM      3  C   UNL     1      63.815 -24.038  58.802  0.00  0.00    +0.000 C 
ATOM      4  C   UNL     1      65.029 -25.877  60.054  0.00  0.00    +0.000 C 
ATOM      5  C   UNL     1      64.944 -24.370  59.780  0.00  0.00    +0.000 C 
ATOM      6  C   UNL     1      65.278 -26.652  58.752  0.00  0.00    +0.000 C 
ATOM      7  C   UNL     1      63.902 -24.868  57.536  0.00  0.00    +0.000 A 
ATOM      8  C   UNL     1      64.560 -26.113  57.527  0.00  0.00    +0.000 A 
ATOM      9  C   UNL     1      63.273 -24.423  56.358  0.00  0.00    +0.000 A 
ATOM     10  C   UNL     1      64.592 -26.862  56.337  0.00  0.00    +0.000 A 
ATOM     11  C   UNL     1      63.300 -25.184  55.174  0.00  0.00    +0.000 A 
ATOM     12  C   UNL     1      63.964 -26.406  55.166  0.00  0.00    +0.000 A 
ATOM     13  C   UNL     1      62.619 -24.702  53.952  0.00  0.00    +0.000 C 
ATOM     14  C   UNL     1      64.002 -27.212  53.932  0.00  0.00    +0.000 C 
ATOM     15  C   UNL     1      62.717 -25.475  52.690  0.00  0.00    +0.000 A 
ATOM     16  C   UNL     1      63.383 -26.702  52.697  0.00  0.00    +0.000 A 
ATOM     17  C   UNL     1      62.154 -25.022  51.487  0.00  0.00    +0.000 A 
ATOM     18  C   UNL     1      63.484 -27.468  51.525  0.00  0.00    +0.000 A 
ATOM     19  C   UNL     1      62.278 -25.775  50.313  0.00  0.00    +0.000 A 
ATOM     20  C   UNL     1      62.933 -27.003  50.334  0.00  0.00    +0.000 A 
ENDROOT
BRANCH   4  21
ATOM     21  O   UNL     1      63.828 -26.344  60.681  0.00  0.00    +0.000 OA
ATOM     22  H   UNL     1      64.052 -27.177  61.147  0.00  0.00    +0.000 HD
ENDBRANCH   4  21
BRANCH   9  23
ATOM     23  O   UNL     1      62.631 -23.208  56.417  0.00  0.00    +0.000 OA
ATOM     24  H   UNL     1      61.725 -23.311  56.042  0.00  0.00    +0.000 HD
ENDBRANCH   9  23
BRANCH  10  25
ATOM     25  O   UNL     1      65.270 -28.056  56.379  0.00  0.00    +0.000 OA
ATOM     26  H   UNL     1      65.712 -28.202  55.511  0.00  0.00    +0.000 HD
ENDBRANCH  10  25
BRANCH   4  28
ATOM     27  O   UNL     1      67.363 -25.885  60.766  0.00  0.00    +0.000 OA
ATOM     28  C   UNL     1      66.187 -26.165  61.025  0.00  0.00    +0.000 C 
BRANCH  28  29
ATOM     29  C   UNL     1      65.837 -26.844  62.347  0.00  0.00    +0.000 C 
BRANCH  29  30
ATOM     30  O   UNL     1      65.376 -28.174  62.139  0.00  0.00    +0.000 OA
ATOM     31  H   UNL     1      64.764 -28.367  62.878  0.00  0.00    +0.000 HD
ENDBRANCH  29  30
ENDBRANCH  28  29
ENDBRANCH   4  28
BRANCH  17  32
ATOM     32  O   UNL     1      61.559 -23.793  51.379  0.00  0.00    +0.000 OA
ATOM     33  C   UNL     1      62.302 -22.949  50.497  0.00  0.00    +0.000 C 
ENDBRANCH  17  32
BRANCH   3  34
ATOM     34  O   UNL     1      62.559 -24.373  59.417  0.00  0.00    +0.000 OA
BRANCH  34  36
ATOM     35  O   UNL     1      61.679 -23.156  61.230  0.00  0.00    +0.000 OA
ATOM     36  C   UNL     1      61.822 -23.214  59.813  0.00  0.00    +0.000 C 
ATOM     37  C   UNL     1      60.470 -23.209  59.096  0.00  0.00    +0.000 C 
ATOM     38  C   UNL     1      59.559 -24.314  59.636  0.00  0.00    +0.000 C 
ATOM     39  C   UNL     1      59.443 -24.187  61.168  0.00  0.00    +0.000 C 
ATOM     40  C   UNL     1      60.858 -24.196  61.777  0.00  0.00    +0.000 C 
ATOM     41  C   UNL     1      60.845 -24.002  63.290  0.00  0.00    +0.000 C 
BRANCH  38  42
ATOM     42  N   UNL     1      58.226 -24.243  59.009  0.00  0.00    +0.000 NA
ATOM     43  H   UNL     1      58.122 -23.362  58.511  0.00  0.00    +0.000 HD
ATOM     44  H   UNL     1      57.540 -24.220  59.772  0.00  0.00    +0.000 HD
ENDBRANCH  38  42
BRANCH  39  45
ATOM     45  O   UNL     1      58.744 -22.965  61.468  0.00  0.00    +0.000 OA
ATOM     46  H   UNL     1      58.635 -22.920  62.433  0.00  0.00    +0.000 HD
ENDBRANCH  39  45
ENDBRANCH  34  36
ENDBRANCH   3  34
TORSDOF 11
ENDMDL
