MODEL 1
REMARK VINA RESULT:      -6.9      0.000      0.000
REMARK  Name = Dronabinol.pdbqt.pdb
REMARK  3 active torsions:
REMARK  status: ('A' for Active; 'I' for Inactive)
REMARK    1  A    between atoms: C_13  and  O_18
REMARK    2  A    between atoms: C_16  and  C_20
REMARK    3  A    between atoms: C_21  and  C_22
REMARK                            x       y       z     vdW  Elec       q    Type
REMARK                         _______ _______ _______ _____ _____    ______ ____
ROOT
ATOM      1  O   UNL     1      47.497 -43.312  47.950  0.00  0.00    +0.000 OA
ATOM      2  C   UNL     1      48.384 -41.012  47.937  0.00  0.00    +0.000 A 
ATOM      3  C   UNL     1      48.407 -41.071  49.419  0.00  0.00    +0.000 A 
ATOM      4  C   UNL     1      48.216 -42.310  47.193  0.00  0.00    +0.000 C 
ATOM      5  C   UNL     1      48.759 -39.719  47.428  0.00  0.00    +0.000 A 
ATOM      6  C   UNL     1      48.142 -42.332  50.107  0.00  0.00    +0.000 A 
ATOM      7  C   UNL     1      49.107 -38.501  48.305  0.00  0.00    +0.000 A 
ATOM      8  C   UNL     1      48.752 -39.803  50.026  0.00  0.00    +0.000 A 
ATOM      9  C   UNL     1      49.085 -38.568  49.738  0.00  0.00    +0.000 A 
ATOM     10  C   UNL     1      47.697 -43.395  49.307  0.00  0.00    +0.000 A 
ATOM     11  C   UNL     1      47.378 -42.060  45.910  0.00  0.00    +0.000 C 
ATOM     12  C   UNL     1      49.616 -42.880  46.822  0.00  0.00    +0.000 C 
ATOM     13  C   UNL     1      48.279 -42.547  51.484  0.00  0.00    +0.000 A 
ATOM     14  C   UNL     1      47.365 -44.624  49.879  0.00  0.00    +0.000 A 
ATOM     15  C   UNL     1      48.541 -37.426  50.538  0.00  0.00    +0.000 C 
ATOM     16  C   UNL     1      47.507 -44.820  51.248  0.00  0.00    +0.000 A 
ATOM     17  C   UNL     1      47.966 -43.784  52.053  0.00  0.00    +0.000 A 
ENDROOT
BRANCH  13  18
ATOM     18  O   UNL     1      48.731 -41.550  52.301  0.00  0.00    +0.000 OA
ATOM     19  H   UNL     1      48.096 -40.811  52.288  0.00  0.00    +0.000 HD
ENDBRANCH  13  18
BRANCH  16  20
ATOM     20  C   UNL     1      47.193 -46.084  51.823  0.00  0.00    +0.000 C 
ATOM     21  C   UNL     1      46.866 -47.444  52.450  0.00  0.00    +0.000 C 
BRANCH  21  22
ATOM     22  C   UNL     1      46.547 -48.801  53.084  0.00  0.00    +0.000 C 
ATOM     23  C   UNL     1      46.233 -50.159  53.720  0.00  0.00    +0.000 C 
ATOM     24  C   UNL     1      45.918 -51.515  54.359  0.00  0.00    +0.000 C 
ENDBRANCH  21  22
ENDBRANCH  16  20
TORSDOF 3
ENDMDL
MODEL 2
REMARK VINA RESULT:      -6.6      2.483      8.573
REMARK  Name = Dronabinol.pdbqt.pdb
REMARK  3 active torsions:
REMARK  status: ('A' for Active; 'I' for Inactive)
REMARK    1  A    between atoms: C_13  and  O_18
REMARK    2  A    between atoms: C_16  and  C_20
REMARK    3  A    between atoms: C_21  and  C_22
REMARK                            x       y       z     vdW  Elec       q    Type
REMARK                         _______ _______ _______ _____ _____    ______ ____
ROOT
ATOM      1  O   UNL     1      50.175 -42.464  47.329  0.00  0.00    +0.000 OA
ATOM      2  C   UNL     1      49.105 -44.257  48.639  0.00  0.00    +0.000 A 
ATOM      3  C   UNL     1      48.545 -43.203  49.521  0.00  0.00    +0.000 A 
ATOM      4  C   UNL     1      49.679 -43.823  47.317  0.00  0.00    +0.000 C 
ATOM      5  C   UNL     1      48.802 -45.586  49.103  0.00  0.00    +0.000 A 
ATOM      6  C   UNL     1      48.676 -41.795  49.155  0.00  0.00    +0.000 A 
ATOM      7  C   UNL     1      48.023 -45.905  50.392  0.00  0.00    +0.000 A 
ATOM      8  C   UNL     1      47.861 -43.743  50.677  0.00  0.00    +0.000 A 
ATOM      9  C   UNL     1      47.522 -44.872  51.252  0.00  0.00    +0.000 A 
ATOM     10  C   UNL     1      49.501 -41.513  48.055  0.00  0.00    +0.000 A 
ATOM     11  C   UNL     1      50.897 -44.721  46.968  0.00  0.00    +0.000 C 
ATOM     12  C   UNL     1      48.587 -43.942  46.213  0.00  0.00    +0.000 C 
ATOM     13  C   UNL     1      48.067 -40.725  49.822  0.00  0.00    +0.000 A 
ATOM     14  C   UNL     1      49.733 -40.194  47.661  0.00  0.00    +0.000 A 
ATOM     15  C   UNL     1      47.603 -45.023  52.739  0.00  0.00    +0.000 C 
ATOM     16  C   UNL     1      49.119 -39.145  48.336  0.00  0.00    +0.000 A 
ATOM     17  C   UNL     1      48.284 -39.407  49.415  0.00  0.00    +0.000 A 
ENDROOT
BRANCH  13  18
ATOM     18  O   UNL     1      47.238 -40.951  50.884  0.00  0.00    +0.000 OA
ATOM     19  H   UNL     1      46.335 -40.665  50.653  0.00  0.00    +0.000 HD
ENDBRANCH  13  18
BRANCH  16  20
ATOM     20  C   UNL     1      49.338 -37.803  47.914  0.00  0.00    +0.000 C 
ATOM     21  C   UNL     1      49.569 -36.361  47.447  0.00  0.00    +0.000 C 
BRANCH  21  22
ATOM     22  C   UNL     1      49.793 -34.923  46.972  0.00  0.00    +0.000 C 
ATOM     23  C   UNL     1      50.019 -33.482  46.501  0.00  0.00    +0.000 C 
ATOM     24  C   UNL     1      50.248 -32.042  46.031  0.00  0.00    +0.000 C 
ENDBRANCH  21  22
ENDBRANCH  16  20
TORSDOF 3
ENDMDL
MODEL 3
REMARK VINA RESULT:      -6.6      2.536      8.146
REMARK  Name = Dronabinol.pdbqt.pdb
REMARK  3 active torsions:
REMARK  status: ('A' for Active; 'I' for Inactive)
REMARK    1  A    between atoms: C_13  and  O_18
REMARK    2  A    between atoms: C_16  and  C_20
REMARK    3  A    between atoms: C_21  and  C_22
REMARK                            x       y       z     vdW  Elec       q    Type
REMARK                         _______ _______ _______ _____ _____    ______ ____
ROOT
ATOM      1  O   UNL     1      49.613 -45.834  49.077  0.00  0.00    +0.000 OA
ATOM      2  C   UNL     1      48.858 -48.077  49.769  0.00  0.00    +0.000 A 
ATOM      3  C   UNL     1      48.231 -47.440  50.954  0.00  0.00    +0.000 A 
ATOM      4  C   UNL     1      49.287 -47.175  48.643  0.00  0.00    +0.000 C 
ATOM      5  C   UNL     1      48.751 -49.512  49.790  0.00  0.00    +0.000 A 
ATOM      6  C   UNL     1      48.166 -45.984  51.055  0.00  0.00    +0.000 A 
ATOM      7  C   UNL     1      48.102 -50.324  50.927  0.00  0.00    +0.000 A 
ATOM      8  C   UNL     1      47.696 -48.404  51.892  0.00  0.00    +0.000 A 
ATOM      9  C   UNL     1      47.536 -49.691  52.084  0.00  0.00    +0.000 A 
ATOM     10  C   UNL     1      48.876 -45.261  50.085  0.00  0.00    +0.000 A 
ATOM     11  C   UNL     1      50.581 -47.742  47.997  0.00  0.00    +0.000 C 
ATOM     12  C   UNL     1      48.148 -47.090  47.584  0.00  0.00    +0.000 C 
ATOM     13  C   UNL     1      47.474 -45.272  52.043  0.00  0.00    +0.000 A 
ATOM     14  C   UNL     1      48.919 -43.867  50.128  0.00  0.00    +0.000 A 
ATOM     15  C   UNL     1      47.731 -50.289  53.441  0.00  0.00    +0.000 C 
ATOM     16  C   UNL     1      48.226 -43.176  51.117  0.00  0.00    +0.000 A 
ATOM     17  C   UNL     1      47.501 -43.876  52.074  0.00  0.00    +0.000 A 
ENDROOT
BRANCH  13  18
ATOM     18  O   UNL     1      46.750 -45.931  52.996  0.00  0.00    +0.000 OA
ATOM     19  H   UNL     1      45.844 -45.572  53.016  0.00  0.00    +0.000 HD
ENDBRANCH  13  18
BRANCH  16  20
ATOM     20  C   UNL     1      48.251 -41.753  51.142  0.00  0.00    +0.000 C 
ATOM     21  C   UNL     1      48.266 -40.220  51.175  0.00  0.00    +0.000 C 
BRANCH  21  22
ATOM     22  C   UNL     1      48.274 -38.690  51.216  0.00  0.00    +0.000 C 
ATOM     23  C   UNL     1      48.278 -37.158  51.261  0.00  0.00    +0.000 C 
ATOM     24  C   UNL     1      48.283 -35.627  51.309  0.00  0.00    +0.000 C 
ENDBRANCH  21  22
ENDBRANCH  16  20
TORSDOF 3
ENDMDL
MODEL 4
REMARK VINA RESULT:      -6.5      6.952     13.997
REMARK  Name = Dronabinol.pdbqt.pdb
REMARK  3 active torsions:
REMARK  status: ('A' for Active; 'I' for Inactive)
REMARK    1  A    between atoms: C_13  and  O_18
REMARK    2  A    between atoms: C_16  and  C_20
REMARK    3  A    between atoms: C_21  and  C_22
REMARK                            x       y       z     vdW  Elec       q    Type
REMARK                         _______ _______ _______ _____ _____    ______ ____
ROOT
ATOM      1  O   UNL     1      44.141 -54.359  53.960  0.00  0.00    +0.000 OA
ATOM      2  C   UNL     1      43.543 -55.357  56.133  0.00  0.00    +0.000 A 
ATOM      3  C   UNL     1      44.752 -54.711  56.701  0.00  0.00    +0.000 A 
ATOM      4  C   UNL     1      43.074 -54.887  54.782  0.00  0.00    +0.000 C 
ATOM      5  C   UNL     1      42.865 -56.196  57.085  0.00  0.00    +0.000 A 
ATOM      6  C   UNL     1      45.514 -53.753  55.903  0.00  0.00    +0.000 A 
ATOM      7  C   UNL     1      43.344 -56.447  58.527  0.00  0.00    +0.000 A 
ATOM      8  C   UNL     1      45.009 -55.105  58.069  0.00  0.00    +0.000 A 
ATOM      9  C   UNL     1      44.538 -55.843  59.046  0.00  0.00    +0.000 A 
ATOM     10  C   UNL     1      45.147 -53.636  54.554  0.00  0.00    +0.000 A 
ATOM     11  C   UNL     1      42.485 -56.091  53.997  0.00  0.00    +0.000 C 
ATOM     12  C   UNL     1      41.994 -53.780  54.964  0.00  0.00    +0.000 C 
ATOM     13  C   UNL     1      46.577 -52.972  56.374  0.00  0.00    +0.000 A 
ATOM     14  C   UNL     1      45.850 -52.787  53.698  0.00  0.00    +0.000 A 
ATOM     15  C   UNL     1      45.463 -56.629  59.920  0.00  0.00    +0.000 C 
ATOM     16  C   UNL     1      46.903 -52.020  54.183  0.00  0.00    +0.000 A 
ATOM     17  C   UNL     1      47.267 -52.108  55.521  0.00  0.00    +0.000 A 
ENDROOT
BRANCH  13  18
ATOM     18  O   UNL     1      46.956 -53.034  57.685  0.00  0.00    +0.000 OA
ATOM     19  H   UNL     1      46.539 -52.302  58.175  0.00  0.00    +0.000 HD
ENDBRANCH  13  18
BRANCH  16  20
ATOM     20  C   UNL     1      47.600 -51.136  53.311  0.00  0.00    +0.000 C 
ATOM     21  C   UNL     1      48.357 -50.178  52.384  0.00  0.00    +0.000 C 
BRANCH  21  22
ATOM     22  C   UNL     1      49.118 -49.218  51.466  0.00  0.00    +0.000 C 
ATOM     23  C   UNL     1      49.883 -48.256  50.551  0.00  0.00    +0.000 C 
ATOM     24  C   UNL     1      50.651 -47.296  49.636  0.00  0.00    +0.000 C 
ENDBRANCH  21  22
ENDBRANCH  16  20
TORSDOF 3
ENDMDL
MODEL 5
REMARK VINA RESULT:      -6.2      4.758      9.644
REMARK  Name = Dronabinol.pdbqt.pdb
REMARK  3 active torsions:
REMARK  status: ('A' for Active; 'I' for Inactive)
REMARK    1  A    between atoms: C_13  and  O_18
REMARK    2  A    between atoms: C_16  and  C_20
REMARK    3  A    between atoms: C_21  and  C_22
REMARK                            x       y       z     vdW  Elec       q    Type
REMARK                         _______ _______ _______ _____ _____    ______ ____
ROOT
ATOM      1  O   UNL     1      49.595 -40.293  47.258  0.00  0.00    +0.000 OA
ATOM      2  C   UNL     1      48.742 -39.360  49.374  0.00  0.00    +0.000 A 
ATOM      3  C   UNL     1      48.880 -38.011  48.772  0.00  0.00    +0.000 A 
ATOM      4  C   UNL     1      48.811 -40.545  48.448  0.00  0.00    +0.000 C 
ATOM      5  C   UNL     1      48.331 -39.311  50.753  0.00  0.00    +0.000 A 
ATOM      6  C   UNL     1      49.202 -37.871  47.353  0.00  0.00    +0.000 A 
ATOM      7  C   UNL     1      48.096 -38.015  51.550  0.00  0.00    +0.000 A 
ATOM      8  C   UNL     1      48.619 -36.946  49.715  0.00  0.00    +0.000 A 
ATOM      9  C   UNL     1      48.273 -36.719  50.960  0.00  0.00    +0.000 A 
ATOM     10  C   UNL     1      49.543 -39.051  46.674  0.00  0.00    +0.000 A 
ATOM     11  C   UNL     1      49.508 -41.725  49.178  0.00  0.00    +0.000 C 
ATOM     12  C   UNL     1      47.371 -40.950  48.016  0.00  0.00    +0.000 C 
ATOM     13  C   UNL     1      49.213 -36.666  46.641  0.00  0.00    +0.000 A 
ATOM     14  C   UNL     1      49.919 -39.013  45.330  0.00  0.00    +0.000 A 
ATOM     15  C   UNL     1      48.916 -35.616  51.740  0.00  0.00    +0.000 C 
ATOM     16  C   UNL     1      49.924 -37.806  44.639  0.00  0.00    +0.000 A 
ATOM     17  C   UNL     1      49.569 -36.631  45.291  0.00  0.00    +0.000 A 
ENDROOT
BRANCH  13  18
ATOM     18  O   UNL     1      48.865 -35.495  47.253  0.00  0.00    +0.000 OA
ATOM     19  H   UNL     1      48.860 -34.777  46.594  0.00  0.00    +0.000 HD
ENDBRANCH  13  18
BRANCH  16  20
ATOM     20  C   UNL     1      50.283 -37.777  43.262  0.00  0.00    +0.000 C 
ATOM     21  C   UNL     1      50.681 -37.748  41.782  0.00  0.00    +0.000 C 
BRANCH  21  22
ATOM     22  C   UNL     1      51.088 -37.726  40.306  0.00  0.00    +0.000 C 
ATOM     23  C   UNL     1      51.500 -37.700  38.830  0.00  0.00    +0.000 C 
ATOM     24  C   UNL     1      51.914 -37.675  37.355  0.00  0.00    +0.000 C 
ENDBRANCH  21  22
ENDBRANCH  16  20
TORSDOF 3
ENDMDL
MODEL 6
REMARK VINA RESULT:      -5.8     21.324     24.938
REMARK  Name = Dronabinol.pdbqt.pdb
REMARK  3 active torsions:
REMARK  status: ('A' for Active; 'I' for Inactive)
REMARK    1  A    between atoms: C_13  and  O_18
REMARK    2  A    between atoms: C_16  and  C_20
REMARK    3  A    between atoms: C_21  and  C_22
REMARK                            x       y       z     vdW  Elec       q    Type
REMARK                         _______ _______ _______ _____ _____    ______ ____
ROOT
ATOM      1  O   UNL     1      45.162 -29.770  70.852  0.00  0.00    +0.000 OA
ATOM      2  C   UNL     1      43.982 -31.376  72.303  0.00  0.00    +0.000 A 
ATOM      3  C   UNL     1      42.930 -31.462  71.261  0.00  0.00    +0.000 A 
ATOM      4  C   UNL     1      45.291 -30.740  71.918  0.00  0.00    +0.000 C 
ATOM      5  C   UNL     1      43.656 -32.134  73.483  0.00  0.00    +0.000 A 
ATOM      6  C   UNL     1      43.133 -30.828  69.960  0.00  0.00    +0.000 A 
ATOM      7  C   UNL     1      42.347 -32.919  73.683  0.00  0.00    +0.000 A 
ATOM      8  C   UNL     1      41.788 -32.247  71.679  0.00  0.00    +0.000 A 
ATOM      9  C   UNL     1      41.324 -32.958  72.678  0.00  0.00    +0.000 A 
ATOM     10  C   UNL     1      44.265 -30.007  69.839  0.00  0.00    +0.000 A 
ATOM     11  C   UNL     1      45.861 -29.962  73.136  0.00  0.00    +0.000 C 
ATOM     12  C   UNL     1      46.291 -31.844  71.466  0.00  0.00    +0.000 C 
ATOM     13  C   UNL     1      42.287 -30.963  68.853  0.00  0.00    +0.000 A 
ATOM     14  C   UNL     1      44.516 -29.315  68.653  0.00  0.00    +0.000 A 
ATOM     15  C   UNL     1      39.881 -32.876  73.066  0.00  0.00    +0.000 C 
ATOM     16  C   UNL     1      43.664 -29.461  67.564  0.00  0.00    +0.000 A 
ATOM     17  C   UNL     1      42.550 -30.286  67.660  0.00  0.00    +0.000 A 
ENDROOT
BRANCH  13  18
ATOM     18  O   UNL     1      41.185 -31.770  68.915  0.00  0.00    +0.000 OA
ATOM     19  H   UNL     1      40.419 -31.245  69.209  0.00  0.00    +0.000 HD
ENDBRANCH  13  18
BRANCH  16  20
ATOM     20  C   UNL     1      43.939 -28.774  66.348  0.00  0.00    +0.000 C 
ATOM     21  C   UNL     1      44.224 -28.028  65.039  0.00  0.00    +0.000 C 
BRANCH  21  22
ATOM     22  C   UNL     1      44.500 -27.275  63.735  0.00  0.00    +0.000 C 
ATOM     23  C   UNL     1      44.776 -26.518  62.432  0.00  0.00    +0.000 C 
ATOM     24  C   UNL     1      45.054 -25.759  61.130  0.00  0.00    +0.000 C 
ENDBRANCH  21  22
ENDBRANCH  16  20
TORSDOF 3
ENDMDL
MODEL 7
REMARK VINA RESULT:      -5.8      4.133     10.092
REMARK  Name = Dronabinol.pdbqt.pdb
REMARK  3 active torsions:
REMARK  status: ('A' for Active; 'I' for Inactive)
REMARK    1  A    between atoms: C_13  and  O_18
REMARK    2  A    between atoms: C_16  and  C_20
REMARK    3  A    between atoms: C_21  and  C_22
REMARK                            x       y       z     vdW  Elec       q    Type
REMARK                         _______ _______ _______ _____ _____    ______ ____
ROOT
ATOM      1  O   UNL     1      48.453 -38.939  44.858  0.00  0.00    +0.000 OA
ATOM      2  C   UNL     1      48.078 -41.029  46.110  0.00  0.00    +0.000 A 
ATOM      3  C   UNL     1      48.712 -40.376  47.282  0.00  0.00    +0.000 A 
ATOM      4  C   UNL     1      47.662 -40.146  44.965  0.00  0.00    +0.000 C 
ATOM      5  C   UNL     1      47.751 -42.409  46.355  0.00  0.00    +0.000 A 
ATOM      6  C   UNL     1      49.029 -38.950  47.244  0.00  0.00    +0.000 A 
ATOM      7  C   UNL     1      48.056 -43.161  47.665  0.00  0.00    +0.000 A 
ATOM      8  C   UNL     1      48.907 -41.282  48.393  0.00  0.00    +0.000 A 
ATOM      9  C   UNL     1      48.705 -42.521  48.773  0.00  0.00    +0.000 A 
ATOM     10  C   UNL     1      48.871 -38.311  46.005  0.00  0.00    +0.000 A 
ATOM     11  C   UNL     1      47.865 -40.911  43.628  0.00  0.00    +0.000 C 
ATOM     12  C   UNL     1      46.167 -39.745  45.135  0.00  0.00    +0.000 C 
ATOM     13  C   UNL     1      49.487 -38.194  48.330  0.00  0.00    +0.000 A 
ATOM     14  C   UNL     1      49.199 -36.963  45.854  0.00  0.00    +0.000 A 
ATOM     15  C   UNL     1      49.743 -43.254  49.564  0.00  0.00    +0.000 C 
ATOM     16  C   UNL     1      49.654 -36.228  46.944  0.00  0.00    +0.000 A 
ATOM     17  C   UNL     1      49.797 -36.840  48.183  0.00  0.00    +0.000 A 
ENDROOT
BRANCH  13  18
ATOM     18  O   UNL     1      49.635 -38.766  49.562  0.00  0.00    +0.000 OA
ATOM     19  H   UNL     1      49.816 -38.071  50.220  0.00  0.00    +0.000 HD
ENDBRANCH  13  18
BRANCH  16  20
ATOM     20  C   UNL     1      49.963 -34.846  46.791  0.00  0.00    +0.000 C 
ATOM     21  C   UNL     1      50.282 -33.355  46.631  0.00  0.00    +0.000 C 
BRANCH  21  22
ATOM     22  C   UNL     1      50.591 -31.864  46.475  0.00  0.00    +0.000 C 
ATOM     23  C   UNL     1      50.896 -30.371  46.318  0.00  0.00    +0.000 C 
ATOM     24  C   UNL     1      51.199 -28.877  46.162  0.00  0.00    +0.000 C 
ENDBRANCH  21  22
ENDBRANCH  16  20
TORSDOF 3
ENDMDL
MODEL 8
REMARK VINA RESULT:      -5.7      5.289      8.074
REMARK  Name = Dronabinol.pdbqt.pdb
REMARK  3 active torsions:
REMARK  status: ('A' for Active; 'I' for Inactive)
REMARK    1  A    between atoms: C_13  and  O_18
REMARK    2  A    between atoms: C_16  and  C_20
REMARK    3  A    between atoms: C_21  and  C_22
REMARK                            x       y       z     vdW  Elec       q    Type
REMARK                         _______ _______ _______ _____ _____    ______ ____
ROOT
ATOM      1  O   UNL     1      45.355 -49.864  51.039  0.00  0.00    +0.000 OA
ATOM      2  C   UNL     1      46.892 -48.031  51.632  0.00  0.00    +0.000 A 
ATOM      3  C   UNL     1      45.748 -47.097  51.482  0.00  0.00    +0.000 A 
ATOM      4  C   UNL     1      46.581 -49.501  51.716  0.00  0.00    +0.000 C 
ATOM      5  C   UNL     1      48.131 -47.350  51.904  0.00  0.00    +0.000 A 
ATOM      6  C   UNL     1      44.397 -47.618  51.293  0.00  0.00    +0.000 A 
ATOM      7  C   UNL     1      48.287 -45.820  51.991  0.00  0.00    +0.000 A 
ATOM      8  C   UNL     1      46.140 -45.708  51.593  0.00  0.00    +0.000 A 
ATOM      9  C   UNL     1      47.175 -44.932  51.804  0.00  0.00    +0.000 A 
ATOM     10  C   UNL     1      44.287 -49.001  51.082  0.00  0.00    +0.000 A 
ATOM     11  C   UNL     1      47.710 -50.304  51.015  0.00  0.00    +0.000 C 
ATOM     12  C   UNL     1      46.466 -49.923  53.210  0.00  0.00    +0.000 C 
ATOM     13  C   UNL     1      43.226 -46.849  51.288  0.00  0.00    +0.000 A 
ATOM     14  C   UNL     1      43.044 -49.585  50.837  0.00  0.00    +0.000 A 
ATOM     15  C   UNL     1      47.346 -43.662  51.032  0.00  0.00    +0.000 C 
ATOM     16  C   UNL     1      41.892 -48.806  50.835  0.00  0.00    +0.000 A 
ATOM     17  C   UNL     1      41.980 -47.437  51.063  0.00  0.00    +0.000 A 
ENDROOT
BRANCH  13  18
ATOM     18  O   UNL     1      43.280 -45.502  51.512  0.00  0.00    +0.000 OA
ATOM     19  H   UNL     1      43.545 -45.050  50.690  0.00  0.00    +0.000 HD
ENDBRANCH  13  18
BRANCH  16  20
ATOM     20  C   UNL     1      40.623 -49.411  50.612  0.00  0.00    +0.000 C 
ATOM     21  C   UNL     1      39.258 -50.070  50.382  0.00  0.00    +0.000 C 
BRANCH  21  22
ATOM     22  C   UNL     1      37.895 -50.732  50.163  0.00  0.00    +0.000 C 
ATOM     23  C   UNL     1      36.530 -51.393  49.949  0.00  0.00    +0.000 C 
ATOM     24  C   UNL     1      35.163 -52.052  49.735  0.00  0.00    +0.000 C 
ENDBRANCH  21  22
ENDBRANCH  16  20
TORSDOF 3
ENDMDL
MODEL 9
REMARK VINA RESULT:      -5.7     20.315     22.828
REMARK  Name = Dronabinol.pdbqt.pdb
REMARK  3 active torsions:
REMARK  status: ('A' for Active; 'I' for Inactive)
REMARK    1  A    between atoms: C_13  and  O_18
REMARK    2  A    between atoms: C_16  and  C_20
REMARK    3  A    between atoms: C_21  and  C_22
REMARK                            x       y       z     vdW  Elec       q    Type
REMARK                         _______ _______ _______ _____ _____    ______ ____
ROOT
ATOM      1  O   UNL     1      41.855 -57.304  68.419  0.00  0.00    +0.000 OA
ATOM      2  C   UNL     1      39.824 -57.491  67.036  0.00  0.00    +0.000 A 
ATOM      3  C   UNL     1      40.465 -56.568  66.067  0.00  0.00    +0.000 A 
ATOM      4  C   UNL     1      40.702 -58.113  68.087  0.00  0.00    +0.000 C 
ATOM      5  C   UNL     1      38.473 -57.827  66.670  0.00  0.00    +0.000 A 
ATOM      6  C   UNL     1      41.867 -56.191  66.231  0.00  0.00    +0.000 A 
ATOM      7  C   UNL     1      37.736 -57.268  65.438  0.00  0.00    +0.000 A 
ATOM      8  C   UNL     1      39.575 -56.170  64.997  0.00  0.00    +0.000 A 
ATOM      9  C   UNL     1      38.361 -56.345  64.534  0.00  0.00    +0.000 A 
ATOM     10  C   UNL     1      42.484 -56.597  67.424  0.00  0.00    +0.000 A 
ATOM     11  C   UNL     1      39.894 -58.267  69.405  0.00  0.00    +0.000 C 
ATOM     12  C   UNL     1      41.200 -59.503  67.593  0.00  0.00    +0.000 C 
ATOM     13  C   UNL     1      42.619 -55.452  65.309  0.00  0.00    +0.000 A 
ATOM     14  C   UNL     1      43.805 -56.239  67.697  0.00  0.00    +0.000 A 
ATOM     15  C   UNL     1      37.585 -55.194  63.976  0.00  0.00    +0.000 C 
ATOM     16  C   UNL     1      44.537 -55.504  66.771  0.00  0.00    +0.000 A 
ATOM     17  C   UNL     1      43.948 -55.112  65.575  0.00  0.00    +0.000 A 
ENDROOT
BRANCH  13  18
ATOM     18  O   UNL     1      42.069 -55.054  64.124  0.00  0.00    +0.000 OA
ATOM     19  H   UNL     1      41.124 -55.293  64.112  0.00  0.00    +0.000 HD
ENDBRANCH  13  18
BRANCH  16  20
ATOM     20  C   UNL     1      45.892 -55.165  67.042  0.00  0.00    +0.000 C 
ATOM     21  C   UNL     1      47.349 -54.786  67.336  0.00  0.00    +0.000 C 
BRANCH  21  22
ATOM     22  C   UNL     1      48.800 -54.398  67.632  0.00  0.00    +0.000 C 
ATOM     23  C   UNL     1      50.253 -54.010  67.924  0.00  0.00    +0.000 C 
ATOM     24  C   UNL     1      51.706 -53.621  68.214  0.00  0.00    +0.000 C 
ENDBRANCH  21  22
ENDBRANCH  16  20
TORSDOF 3
ENDMDL
