MODEL 1
REMARK VINA RESULT:      -7.4      0.000      0.000
REMARK  Name = Ellipticine.pdbqt.pdb
REMARK  0 active torsions:
REMARK  status: ('A' for Active; 'I' for Inactive)
REMARK                            x       y       z     vdW  Elec       q    Type
REMARK                         _______ _______ _______ _____ _____    ______ ____
ROOT
ATOM      1  N   UNL     1      48.256 -40.682  51.639  0.00  0.00    +0.000 N 
ATOM      2  N   UNL     1      49.519 -36.920  46.591  0.00  0.00    +0.000 NA
ATOM      3  C   UNL     1      48.782 -40.802  49.465  0.00  0.00    +0.000 A 
ATOM      4  C   UNL     1      48.535 -39.921  50.523  0.00  0.00    +0.000 A 
ATOM      5  C   UNL     1      49.096 -40.256  48.194  0.00  0.00    +0.000 A 
ATOM      6  C   UNL     1      48.640 -42.132  49.996  0.00  0.00    +0.000 A 
ATOM      7  C   UNL     1      48.583 -38.526  50.382  0.00  0.00    +0.000 A 
ATOM      8  C   UNL     1      48.895 -37.987  49.119  0.00  0.00    +0.000 A 
ATOM      9  C   UNL     1      49.149 -38.852  48.033  0.00  0.00    +0.000 A 
ATOM     10  C   UNL     1      48.314 -42.020  51.345  0.00  0.00    +0.000 A 
ATOM     11  C   UNL     1      49.370 -41.180  47.027  0.00  0.00    +0.000 C 
ATOM     12  C   UNL     1      48.760 -43.424  49.445  0.00  0.00    +0.000 A 
ATOM     13  C   UNL     1      48.298 -37.668  51.593  0.00  0.00    +0.000 C 
ATOM     14  C   UNL     1      48.101 -43.126  52.176  0.00  0.00    +0.000 A 
ATOM     15  C   UNL     1      48.961 -36.602  48.904  0.00  0.00    +0.000 A 
ATOM     16  C   UNL     1      49.452 -38.251  46.812  0.00  0.00    +0.000 A 
ATOM     17  C   UNL     1      48.552 -44.542  50.256  0.00  0.00    +0.000 A 
ATOM     18  C   UNL     1      48.228 -44.391  51.598  0.00  0.00    +0.000 A 
ATOM     19  C   UNL     1      49.271 -36.122  47.645  0.00  0.00    +0.000 A 
ATOM     20  H   UNL     1      48.039 -40.294  52.550  0.00  0.00    +0.000 HD
ENDROOT
TORSDOF 0
ENDMDL
MODEL 2
REMARK VINA RESULT:      -6.7     16.339     18.499
REMARK  Name = Ellipticine.pdbqt.pdb
REMARK  0 active torsions:
REMARK  status: ('A' for Active; 'I' for Inactive)
REMARK                            x       y       z     vdW  Elec       q    Type
REMARK                         _______ _______ _______ _____ _____    ______ ____
ROOT
ATOM      1  N   UNL     1      59.568 -48.732  58.316  0.00  0.00    +0.000 N 
ATOM      2  N   UNL     1      56.946 -52.338  62.937  0.00  0.00    +0.000 NA
ATOM      3  C   UNL     1      59.205 -48.739  60.527  0.00  0.00    +0.000 A 
ATOM      4  C   UNL     1      59.019 -49.466  59.347  0.00  0.00    +0.000 A 
ATOM      5  C   UNL     1      58.721 -49.290  61.741  0.00  0.00    +0.000 A 
ATOM      6  C   UNL     1      59.892 -47.529  60.159  0.00  0.00    +0.000 A 
ATOM      7  C   UNL     1      58.378 -50.714  59.313  0.00  0.00    +0.000 A 
ATOM      8  C   UNL     1      57.899 -51.259  60.520  0.00  0.00    +0.000 A 
ATOM      9  C   UNL     1      58.072 -50.547  61.726  0.00  0.00    +0.000 A 
ATOM     10  C   UNL     1      60.101 -47.558  58.783  0.00  0.00    +0.000 A 
ATOM     11  C   UNL     1      58.905 -48.529  63.037  0.00  0.00    +0.000 C 
ATOM     12  C   UNL     1      60.356 -46.409  60.879  0.00  0.00    +0.000 A 
ATOM     13  C   UNL     1      58.232 -51.414  57.982  0.00  0.00    +0.000 C 
ATOM     14  C   UNL     1      60.747 -46.532  58.084  0.00  0.00    +0.000 A 
ATOM     15  C   UNL     1      57.248 -52.501  60.562  0.00  0.00    +0.000 A 
ATOM     16  C   UNL     1      57.574 -51.144  62.883  0.00  0.00    +0.000 A 
ATOM     17  C   UNL     1      61.003 -45.373  60.202  0.00  0.00    +0.000 A 
ATOM     18  C   UNL     1      61.193 -45.438  58.827  0.00  0.00    +0.000 A 
ATOM     19  C   UNL     1      56.796 -52.993  61.772  0.00  0.00    +0.000 A 
ATOM     20  H   UNL     1      59.571 -49.030  57.347  0.00  0.00    +0.000 HD
ENDROOT
TORSDOF 0
ENDMDL
MODEL 3
REMARK VINA RESULT:      -6.6      1.861      3.379
REMARK  Name = Ellipticine.pdbqt.pdb
REMARK  0 active torsions:
REMARK  status: ('A' for Active; 'I' for Inactive)
REMARK                            x       y       z     vdW  Elec       q    Type
REMARK                         _______ _______ _______ _____ _____    ______ ____
ROOT
ATOM      1  N   UNL     1      49.877 -41.931  47.209  0.00  0.00    +0.000 N 
ATOM      2  N   UNL     1      48.013 -37.090  50.992  0.00  0.00    +0.000 NA
ATOM      3  C   UNL     1      49.034 -41.537  49.246  0.00  0.00    +0.000 A 
ATOM      4  C   UNL     1      49.464 -40.930  48.062  0.00  0.00    +0.000 A 
ATOM      5  C   UNL     1      48.555 -40.708  50.293  0.00  0.00    +0.000 A 
ATOM      6  C   UNL     1      49.208 -42.955  49.067  0.00  0.00    +0.000 A 
ATOM      7  C   UNL     1      49.442 -39.540  47.865  0.00  0.00    +0.000 A 
ATOM      8  C   UNL     1      48.966 -38.720  48.906  0.00  0.00    +0.000 A 
ATOM      9  C   UNL     1      48.526 -39.306  50.112  0.00  0.00    +0.000 A 
ATOM     10  C   UNL     1      49.732 -43.163  47.794  0.00  0.00    +0.000 A 
ATOM     11  C   UNL     1      48.082 -41.333  51.588  0.00  0.00    +0.000 C 
ATOM     12  C   UNL     1      48.964 -44.081  49.879  0.00  0.00    +0.000 A 
ATOM     13  C   UNL     1      49.930 -38.991  46.546  0.00  0.00    +0.000 C 
ATOM     14  C   UNL     1      50.027 -44.432  47.286  0.00  0.00    +0.000 A 
ATOM     15  C   UNL     1      48.916 -37.323  48.780  0.00  0.00    +0.000 A 
ATOM     16  C   UNL     1      48.067 -38.435  51.101  0.00  0.00    +0.000 A 
ATOM     17  C   UNL     1      49.251 -45.358  49.391  0.00  0.00    +0.000 A 
ATOM     18  C   UNL     1      49.774 -45.526  48.115  0.00  0.00    +0.000 A 
ATOM     19  C   UNL     1      48.440 -36.562  49.832  0.00  0.00    +0.000 A 
ATOM     20  H   UNL     1      50.239 -41.767  46.276  0.00  0.00    +0.000 HD
ENDROOT
TORSDOF 0
ENDMDL
MODEL 4
REMARK VINA RESULT:      -6.6      4.692      8.190
REMARK  Name = Ellipticine.pdbqt.pdb
REMARK  0 active torsions:
REMARK  status: ('A' for Active; 'I' for Inactive)
REMARK                            x       y       z     vdW  Elec       q    Type
REMARK                         _______ _______ _______ _____ _____    ______ ____
ROOT
ATOM      1  N   UNL     1      49.331 -49.444  51.255  0.00  0.00    +0.000 N 
ATOM      2  N   UNL     1      47.572 -43.290  50.747  0.00  0.00    +0.000 NA
ATOM      3  C   UNL     1      47.808 -47.997  52.033  0.00  0.00    +0.000 A 
ATOM      4  C   UNL     1      48.911 -48.132  51.184  0.00  0.00    +0.000 A 
ATOM      5  C   UNL     1      47.189 -46.725  52.135  0.00  0.00    +0.000 A 
ATOM      6  C   UNL     1      47.582 -49.291  52.622  0.00  0.00    +0.000 A 
ATOM      7  C   UNL     1      49.429 -47.068  50.430  0.00  0.00    +0.000 A 
ATOM      8  C   UNL     1      48.812 -45.806  50.533  0.00  0.00    +0.000 A 
ATOM      9  C   UNL     1      47.698 -45.641  51.383  0.00  0.00    +0.000 A 
ATOM     10  C   UNL     1      48.544 -50.163  52.118  0.00  0.00    +0.000 A 
ATOM     11  C   UNL     1      45.993 -46.543  53.045  0.00  0.00    +0.000 C 
ATOM     12  C   UNL     1      46.641 -49.797  53.542  0.00  0.00    +0.000 A 
ATOM     13  C   UNL     1      50.625 -47.327  49.544  0.00  0.00    +0.000 C 
ATOM     14  C   UNL     1      48.619 -51.512  52.480  0.00  0.00    +0.000 A 
ATOM     15  C   UNL     1      49.276 -44.697  49.810  0.00  0.00    +0.000 A 
ATOM     16  C   UNL     1      47.135 -44.365  51.438  0.00  0.00    +0.000 A 
ATOM     17  C   UNL     1      46.698 -51.141  53.918  0.00  0.00    +0.000 A 
ATOM     18  C   UNL     1      47.672 -51.981  53.393  0.00  0.00    +0.000 A 
ATOM     19  C   UNL     1      48.635 -43.479  49.946  0.00  0.00    +0.000 A 
ATOM     20  H   UNL     1      50.118 -49.816  50.735  0.00  0.00    +0.000 HD
ENDROOT
TORSDOF 0
ENDMDL
MODEL 5
REMARK VINA RESULT:      -6.5     16.987     18.526
REMARK  Name = Ellipticine.pdbqt.pdb
REMARK  0 active torsions:
REMARK  status: ('A' for Active; 'I' for Inactive)
REMARK                            x       y       z     vdW  Elec       q    Type
REMARK                         _______ _______ _______ _____ _____    ______ ____
ROOT
ATOM      1  N   UNL     1      57.806 -50.139  62.357  0.00  0.00    +0.000 N 
ATOM      2  N   UNL     1      57.157 -54.427  57.622  0.00  0.00    +0.000 NA
ATOM      3  C   UNL     1      58.228 -50.400  60.173  0.00  0.00    +0.000 A 
ATOM      4  C   UNL     1      57.692 -51.022  61.304  0.00  0.00    +0.000 A 
ATOM      5  C   UNL     1      58.226 -51.114  58.947  0.00  0.00    +0.000 A 
ATOM      6  C   UNL     1      58.673 -49.097  60.593  0.00  0.00    +0.000 A 
ATOM      7  C   UNL     1      57.153 -52.318  61.280  0.00  0.00    +0.000 A 
ATOM      8  C   UNL     1      57.153 -53.025  60.062  0.00  0.00    +0.000 A 
ATOM      9  C   UNL     1      57.688 -52.421  58.904  0.00  0.00    +0.000 A 
ATOM     10  C   UNL     1      58.396 -48.969  61.952  0.00  0.00    +0.000 A 
ATOM     11  C   UNL     1      58.799 -50.470  57.703  0.00  0.00    +0.000 C 
ATOM     12  C   UNL     1      59.288 -48.014  59.934  0.00  0.00    +0.000 A 
ATOM     13  C   UNL     1      56.600 -52.894  62.562  0.00  0.00    +0.000 C 
ATOM     14  C   UNL     1      58.699 -47.820  62.690  0.00  0.00    +0.000 A 
ATOM     15  C   UNL     1      56.631 -54.324  59.962  0.00  0.00    +0.000 A 
ATOM     16  C   UNL     1      57.656 -53.177  57.732  0.00  0.00    +0.000 A 
ATOM     17  C   UNL     1      59.600 -46.856  60.652  0.00  0.00    +0.000 A 
ATOM     18  C   UNL     1      59.308 -46.765  62.007  0.00  0.00    +0.000 A 
ATOM     19  C   UNL     1      56.655 -54.975  58.743  0.00  0.00    +0.000 A 
ATOM     20  H   UNL     1      57.493 -50.338  63.301  0.00  0.00    +0.000 HD
ENDROOT
TORSDOF 0
ENDMDL
MODEL 6
REMARK VINA RESULT:      -6.5     12.471     16.175
REMARK  Name = Ellipticine.pdbqt.pdb
REMARK  0 active torsions:
REMARK  status: ('A' for Active; 'I' for Inactive)
REMARK                            x       y       z     vdW  Elec       q    Type
REMARK                         _______ _______ _______ _____ _____    ______ ____
ROOT
ATOM      1  N   UNL     1      45.125 -55.038  58.310  0.00  0.00    +0.000 N 
ATOM      2  N   UNL     1      45.942 -51.376  53.099  0.00  0.00    +0.000 NA
ATOM      3  C   UNL     1      44.036 -54.344  56.480  0.00  0.00    +0.000 A 
ATOM      4  C   UNL     1      45.247 -54.264  57.174  0.00  0.00    +0.000 A 
ATOM      5  C   UNL     1      43.909 -53.625  55.263  0.00  0.00    +0.000 A 
ATOM      6  C   UNL     1      43.176 -55.203  57.250  0.00  0.00    +0.000 A 
ATOM      7  C   UNL     1      46.338 -53.507  56.722  0.00  0.00    +0.000 A 
ATOM      8  C   UNL     1      46.210 -52.795  55.514  0.00  0.00    +0.000 A 
ATOM      9  C   UNL     1      44.999 -52.857  54.791  0.00  0.00    +0.000 A 
ATOM     10  C   UNL     1      43.883 -55.615  58.377  0.00  0.00    +0.000 A 
ATOM     11  C   UNL     1      42.612 -53.689  54.485  0.00  0.00    +0.000 C 
ATOM     12  C   UNL     1      41.855 -55.667  57.086  0.00  0.00    +0.000 A 
ATOM     13  C   UNL     1      47.600 -53.492  57.553  0.00  0.00    +0.000 C 
ATOM     14  C   UNL     1      43.345 -56.464  59.350  0.00  0.00    +0.000 A 
ATOM     15  C   UNL     1      47.259 -52.017  55.000  0.00  0.00    +0.000 A 
ATOM     16  C   UNL     1      44.940 -52.128  53.604  0.00  0.00    +0.000 A 
ATOM     17  C   UNL     1      41.298 -56.516  58.046  0.00  0.00    +0.000 A 
ATOM     18  C   UNL     1      42.035 -56.906  59.158  0.00  0.00    +0.000 A 
ATOM     19  C   UNL     1      47.082 -51.337  53.810  0.00  0.00    +0.000 A 
ATOM     20  H   UNL     1      45.862 -55.157  58.996  0.00  0.00    +0.000 HD
ENDROOT
TORSDOF 0
ENDMDL
MODEL 7
REMARK VINA RESULT:      -6.4      3.799      8.366
REMARK  Name = Ellipticine.pdbqt.pdb
REMARK  0 active torsions:
REMARK  status: ('A' for Active; 'I' for Inactive)
REMARK                            x       y       z     vdW  Elec       q    Type
REMARK                         _______ _______ _______ _____ _____    ______ ____
ROOT
ATOM      1  N   UNL     1      47.041 -44.384  51.581  0.00  0.00    +0.000 N 
ATOM      2  N   UNL     1      49.056 -50.479  51.734  0.00  0.00    +0.000 NA
ATOM      3  C   UNL     1      48.659 -45.705  50.771  0.00  0.00    +0.000 A 
ATOM      4  C   UNL     1      47.517 -45.679  51.579  0.00  0.00    +0.000 A 
ATOM      5  C   UNL     1      49.339 -46.939  50.608  0.00  0.00    +0.000 A 
ATOM      6  C   UNL     1      48.850 -44.364  50.285  0.00  0.00    +0.000 A 
ATOM      7  C   UNL     1      47.017 -46.816  52.232  0.00  0.00    +0.000 A 
ATOM      8  C   UNL     1      47.695 -48.039  52.068  0.00  0.00    +0.000 A 
ATOM      9  C   UNL     1      48.850 -48.096  51.259  0.00  0.00    +0.000 A 
ATOM     10  C   UNL     1      47.829 -43.572  50.806  0.00  0.00    +0.000 A 
ATOM     11  C   UNL     1      50.578 -47.004  49.741  0.00  0.00    +0.000 C 
ATOM     12  C   UNL     1      49.803 -43.754  49.445  0.00  0.00    +0.000 A 
ATOM     13  C   UNL     1      45.776 -46.672  53.081  0.00  0.00    +0.000 C 
ATOM     14  C   UNL     1      47.708 -42.205  50.536  0.00  0.00    +0.000 A 
ATOM     15  C   UNL     1      47.253 -49.216  52.691  0.00  0.00    +0.000 A 
ATOM     16  C   UNL     1      49.471 -49.339  51.140  0.00  0.00    +0.000 A 
ATOM     17  C   UNL     1      49.701 -42.390  49.163  0.00  0.00    +0.000 A 
ATOM     18  C   UNL     1      48.669 -41.632  49.701  0.00  0.00    +0.000 A 
ATOM     19  C   UNL     1      47.953 -50.393  52.498  0.00  0.00    +0.000 A 
ATOM     20  H   UNL     1      46.217 -44.084  52.090  0.00  0.00    +0.000 HD
ENDROOT
TORSDOF 0
ENDMDL
MODEL 8
REMARK VINA RESULT:      -6.4     13.113     17.463
REMARK  Name = Ellipticine.pdbqt.pdb
REMARK  0 active torsions:
REMARK  status: ('A' for Active; 'I' for Inactive)
REMARK                            x       y       z     vdW  Elec       q    Type
REMARK                         _______ _______ _______ _____ _____    ______ ____
ROOT
ATOM      1  N   UNL     1      46.507 -53.735  56.966  0.00  0.00    +0.000 N 
ATOM      2  N   UNL     1      41.090 -56.874  58.391  0.00  0.00    +0.000 NA
ATOM      3  C   UNL     1      44.414 -54.025  56.222  0.00  0.00    +0.000 A 
ATOM      4  C   UNL     1      45.319 -54.386  57.225  0.00  0.00    +0.000 A 
ATOM      5  C   UNL     1      43.105 -54.570  56.268  0.00  0.00    +0.000 A 
ATOM      6  C   UNL     1      45.112 -53.124  55.343  0.00  0.00    +0.000 A 
ATOM      7  C   UNL     1      44.990 -55.262  58.272  0.00  0.00    +0.000 A 
ATOM      8  C   UNL     1      43.690 -55.801  58.315  0.00  0.00    +0.000 A 
ATOM      9  C   UNL     1      42.756 -55.455  57.316  0.00  0.00    +0.000 A 
ATOM     10  C   UNL     1      46.406 -52.968  55.834  0.00  0.00    +0.000 A 
ATOM     11  C   UNL     1      42.100 -54.201  55.198  0.00  0.00    +0.000 C 
ATOM     12  C   UNL     1      44.756 -52.428  54.171  0.00  0.00    +0.000 A 
ATOM     13  C   UNL     1      46.046 -55.583  59.302  0.00  0.00    +0.000 C 
ATOM     14  C   UNL     1      47.364 -52.154  55.220  0.00  0.00    +0.000 A 
ATOM     15  C   UNL     1      43.290 -56.683  59.331  0.00  0.00    +0.000 A 
ATOM     16  C   UNL     1      41.487 -56.025  57.419  0.00  0.00    +0.000 A 
ATOM     17  C   UNL     1      45.697 -51.610  53.541  0.00  0.00    +0.000 A 
ATOM     18  C   UNL     1      46.979 -51.478  54.060  0.00  0.00    +0.000 A 
ATOM     19  C   UNL     1      42.002 -57.186  59.328  0.00  0.00    +0.000 A 
ATOM     20  H   UNL     1      47.338 -53.821  57.541  0.00  0.00    +0.000 HD
ENDROOT
TORSDOF 0
ENDMDL
MODEL 9
REMARK VINA RESULT:      -6.3      1.576      5.577
REMARK  Name = Ellipticine.pdbqt.pdb
REMARK  0 active torsions:
REMARK  status: ('A' for Active; 'I' for Inactive)
REMARK                            x       y       z     vdW  Elec       q    Type
REMARK                         _______ _______ _______ _____ _____    ______ ____
ROOT
ATOM      1  N   UNL     1      48.763 -38.383  47.993  0.00  0.00    +0.000 N 
ATOM      2  N   UNL     1      48.502 -43.949  51.183  0.00  0.00    +0.000 NA
ATOM      3  C   UNL     1      49.171 -40.568  47.720  0.00  0.00    +0.000 A 
ATOM      4  C   UNL     1      48.726 -39.605  48.631  0.00  0.00    +0.000 A 
ATOM      5  C   UNL     1      49.226 -41.921  48.143  0.00  0.00    +0.000 A 
ATOM      6  C   UNL     1      49.478 -39.869  46.500  0.00  0.00    +0.000 A 
ATOM      7  C   UNL     1      48.333 -39.918  49.942  0.00  0.00    +0.000 A 
ATOM      8  C   UNL     1      48.388 -41.261  50.359  0.00  0.00    +0.000 A 
ATOM      9  C   UNL     1      48.833 -42.255  49.461  0.00  0.00    +0.000 A 
ATOM     10  C   UNL     1      49.213 -38.517  46.705  0.00  0.00    +0.000 A 
ATOM     11  C   UNL     1      49.702 -42.990  47.183  0.00  0.00    +0.000 C 
ATOM     12  C   UNL     1      49.959 -40.269  45.237  0.00  0.00    +0.000 A 
ATOM     13  C   UNL     1      47.869 -38.797  50.842  0.00  0.00    +0.000 C 
ATOM     14  C   UNL     1      49.402 -37.542  45.719  0.00  0.00    +0.000 A 
ATOM     15  C   UNL     1      48.010 -41.648  51.654  0.00  0.00    +0.000 A 
ATOM     16  C   UNL     1      48.863 -43.564  49.940  0.00  0.00    +0.000 A 
ATOM     17  C   UNL     1      50.155 -39.313  44.239  0.00  0.00    +0.000 A 
ATOM     18  C   UNL     1      49.879 -37.972  44.480  0.00  0.00    +0.000 A 
ATOM     19  C   UNL     1      48.083 -42.980  52.015  0.00  0.00    +0.000 A 
ATOM     20  H   UNL     1      48.490 -37.508  48.428  0.00  0.00    +0.000 HD
ENDROOT
TORSDOF 0
ENDMDL
