MODEL 1
REMARK VINA RESULT:      -8.2      0.000      0.000
REMARK  Name = Enterolactone.pdbqt.pdb
REMARK  2 active torsions:
REMARK  status: ('A' for Active; 'I' for Inactive)
REMARK    1  A    between atoms: C_10  and  O_14
REMARK    2  A    between atoms: C_19  and  O_23
REMARK                            x       y       z     vdW  Elec       q    Type
REMARK                         _______ _______ _______ _____ _____    ______ ____
ROOT
ATOM      1  O   UNL     1      49.438 -37.073  45.804  0.00  0.00    +0.000 OA
ATOM      2  O   UNL     1      49.768 -39.345  45.401  0.00  0.00    +0.000 OA
ATOM      3  C   UNL     1      48.687 -37.184  48.049  0.00  0.00    +0.000 C 
ATOM      4  C   UNL     1      48.974 -38.514  47.568  0.00  0.00    +0.000 C 
ATOM      5  C   UNL     1      49.022 -36.463  46.902  0.00  0.00    +0.000 C 
ATOM      6  C   UNL     1      49.443 -38.425  46.127  0.00  0.00    +0.000 C 
ATOM      7  C   UNL     1      48.638 -36.781  49.397  0.00  0.00    +0.000 C 
ATOM      8  C   UNL     1      48.584 -36.392  50.767  0.00  0.00    +0.000 C 
ATOM      9  C   UNL     1      49.390 -37.037  51.702  0.00  0.00    +0.000 C 
ATOM     10  C   UNL     1      49.320 -36.655  53.038  0.00  0.00    +0.000 C 
ATOM     11  C   UNL     1      48.459 -35.643  53.448  0.00  0.00    +0.000 C 
ATOM     12  C   UNL     1      47.655 -35.002  52.509  0.00  0.00    +0.000 C 
ATOM     13  C   UNL     1      47.717 -35.376  51.167  0.00  0.00    +0.000 C 
ATOM     14  C   UNL     1      48.913 -39.701  48.332  0.00  0.00    +0.000 C 
ATOM     15  C   UNL     1      48.853 -40.893  49.111  0.00  0.00    +0.000 C 
ATOM     16  C   UNL     1      47.834 -41.060  50.044  0.00  0.00    +0.000 C 
ATOM     17  C   UNL     1      47.794 -42.224  50.806  0.00  0.00    +0.000 C 
ATOM     18  C   UNL     1      48.756 -43.216  50.648  0.00  0.00    +0.000 C 
ATOM     19  C   UNL     1      49.773 -43.043  49.711  0.00  0.00    +0.000 C 
ATOM     20  C   UNL     1      49.823 -41.881  48.942  0.00  0.00    +0.000 C 
ENDROOT
BRANCH  10  21
ATOM     21  O   UNL     1      50.097 -37.266  53.980  0.00  0.00    +0.000 OA
ATOM     22  H   UNL     1      51.025 -37.224  53.691  0.00  0.00    +0.000 HD
ENDBRANCH  10  21
BRANCH  17  23
ATOM     23  O   UNL     1      46.810 -42.419  51.730  0.00  0.00    +0.000 OA
ATOM     24  H   UNL     1      46.911 -41.754  52.435  0.00  0.00    +0.000 HD
ENDBRANCH  17  23
TORSDOF 2
ENDMDL
MODEL 2
REMARK VINA RESULT:      -7.3      4.386      8.782
REMARK  Name = Enterolactone.pdbqt.pdb
REMARK  2 active torsions:
REMARK  status: ('A' for Active; 'I' for Inactive)
REMARK    1  A    between atoms: C_10  and  O_14
REMARK    2  A    between atoms: C_19  and  O_23
REMARK                            x       y       z     vdW  Elec       q    Type
REMARK                         _______ _______ _______ _____ _____    ______ ____
ROOT
ATOM      1  O   UNL     1      52.254 -46.543  47.421  0.00  0.00    +0.000 OA
ATOM      2  O   UNL     1      51.960 -44.314  46.807  0.00  0.00    +0.000 OA
ATOM      3  C   UNL     1      50.777 -46.631  49.274  0.00  0.00    +0.000 C 
ATOM      4  C   UNL     1      50.759 -45.306  48.702  0.00  0.00    +0.000 C 
ATOM      5  C   UNL     1      51.689 -47.229  48.402  0.00  0.00    +0.000 C 
ATOM      6  C   UNL     1      51.716 -45.266  47.525  0.00  0.00    +0.000 C 
ATOM      7  C   UNL     1      49.772 -47.205  50.075  0.00  0.00    +0.000 C 
ATOM      8  C   UNL     1      48.748 -47.766  50.892  0.00  0.00    +0.000 C 
ATOM      9  C   UNL     1      47.422 -47.387  50.698  0.00  0.00    +0.000 C 
ATOM     10  C   UNL     1      46.433 -47.935  51.510  0.00  0.00    +0.000 C 
ATOM     11  C   UNL     1      46.752 -48.852  52.506  0.00  0.00    +0.000 C 
ATOM     12  C   UNL     1      48.080 -49.227  52.694  0.00  0.00    +0.000 C 
ATOM     13  C   UNL     1      49.079 -48.685  51.887  0.00  0.00    +0.000 C 
ATOM     14  C   UNL     1      49.926 -44.241  49.111  0.00  0.00    +0.000 C 
ATOM     15  C   UNL     1      49.078 -43.173  49.526  0.00  0.00    +0.000 C 
ATOM     16  C   UNL     1      48.816 -42.984  50.880  0.00  0.00    +0.000 C 
ATOM     17  C   UNL     1      47.977 -41.944  51.271  0.00  0.00    +0.000 C 
ATOM     18  C   UNL     1      47.402 -41.097  50.331  0.00  0.00    +0.000 C 
ATOM     19  C   UNL     1      47.670 -41.291  48.977  0.00  0.00    +0.000 C 
ATOM     20  C   UNL     1      48.508 -42.330  48.573  0.00  0.00    +0.000 C 
ENDROOT
BRANCH  10  21
ATOM     21  O   UNL     1      45.124 -47.584  51.347  0.00  0.00    +0.000 OA
ATOM     22  H   UNL     1      44.842 -47.071  52.124  0.00  0.00    +0.000 HD
ENDBRANCH  10  21
BRANCH  17  23
ATOM     23  O   UNL     1      47.698 -41.732  52.589  0.00  0.00    +0.000 OA
ATOM     24  H   UNL     1      48.211 -42.367  53.120  0.00  0.00    +0.000 HD
ENDBRANCH  17  23
TORSDOF 2
ENDMDL
MODEL 3
REMARK VINA RESULT:      -7.2      2.925      6.137
REMARK  Name = Enterolactone.pdbqt.pdb
REMARK  2 active torsions:
REMARK  status: ('A' for Active; 'I' for Inactive)
REMARK    1  A    between atoms: C_10  and  O_14
REMARK    2  A    between atoms: C_19  and  O_23
REMARK                            x       y       z     vdW  Elec       q    Type
REMARK                         _______ _______ _______ _____ _____    ______ ____
ROOT
ATOM      1  O   UNL     1      48.553 -39.981  45.294  0.00  0.00    +0.000 OA
ATOM      2  O   UNL     1      48.394 -38.358  43.628  0.00  0.00    +0.000 OA
ATOM      3  C   UNL     1      49.247 -38.612  47.101  0.00  0.00    +0.000 C 
ATOM      4  C   UNL     1      49.068 -37.802  45.920  0.00  0.00    +0.000 C 
ATOM      5  C   UNL     1      48.894 -39.852  46.566  0.00  0.00    +0.000 C 
ATOM      6  C   UNL     1      48.634 -38.695  44.772  0.00  0.00    +0.000 C 
ATOM      7  C   UNL     1      49.230 -38.156  48.432  0.00  0.00    +0.000 C 
ATOM      8  C   UNL     1      49.219 -37.675  49.774  0.00  0.00    +0.000 C 
ATOM      9  C   UNL     1      48.434 -36.574  50.108  0.00  0.00    +0.000 C 
ATOM     10  C   UNL     1      48.440 -36.108  51.419  0.00  0.00    +0.000 C 
ATOM     11  C   UNL     1      49.216 -36.725  52.394  0.00  0.00    +0.000 C 
ATOM     12  C   UNL     1      49.999 -37.826  52.053  0.00  0.00    +0.000 C 
ATOM     13  C   UNL     1      50.000 -38.301  50.743  0.00  0.00    +0.000 C 
ATOM     14  C   UNL     1      49.191 -36.396  45.855  0.00  0.00    +0.000 C 
ATOM     15  C   UNL     1      49.312 -34.977  45.800  0.00  0.00    +0.000 C 
ATOM     16  C   UNL     1      50.314 -34.339  46.526  0.00  0.00    +0.000 C 
ATOM     17  C   UNL     1      50.415 -32.952  46.472  0.00  0.00    +0.000 C 
ATOM     18  C   UNL     1      49.530 -32.200  45.707  0.00  0.00    +0.000 C 
ATOM     19  C   UNL     1      48.530 -32.845  44.983  0.00  0.00    +0.000 C 
ATOM     20  C   UNL     1      48.420 -34.234  45.029  0.00  0.00    +0.000 C 
ENDROOT
BRANCH  10  21
ATOM     21  O   UNL     1      47.683 -35.031  51.779  0.00  0.00    +0.000 OA
ATOM     22  H   UNL     1      48.277 -34.286  51.976  0.00  0.00    +0.000 HD
ENDBRANCH  10  21
BRANCH  17  23
ATOM     23  O   UNL     1      51.384 -32.295  47.172  0.00  0.00    +0.000 OA
ATOM     24  H   UNL     1      50.960 -31.791  47.889  0.00  0.00    +0.000 HD
ENDBRANCH  17  23
TORSDOF 2
ENDMDL
MODEL 4
REMARK VINA RESULT:      -7.1      3.390      8.543
REMARK  Name = Enterolactone.pdbqt.pdb
REMARK  2 active torsions:
REMARK  status: ('A' for Active; 'I' for Inactive)
REMARK    1  A    between atoms: C_10  and  O_14
REMARK    2  A    between atoms: C_19  and  O_23
REMARK                            x       y       z     vdW  Elec       q    Type
REMARK                         _______ _______ _______ _____ _____    ______ ____
ROOT
ATOM      1  O   UNL     1      47.644 -44.618  52.192  0.00  0.00    +0.000 OA
ATOM      2  O   UNL     1      47.166 -42.341  52.041  0.00  0.00    +0.000 OA
ATOM      3  C   UNL     1      48.938 -44.872  50.222  0.00  0.00    +0.000 C 
ATOM      4  C   UNL     1      48.520 -43.496  50.354  0.00  0.00    +0.000 C 
ATOM      5  C   UNL     1      48.354 -45.386  51.380  0.00  0.00    +0.000 C 
ATOM      6  C   UNL     1      47.686 -43.355  51.614  0.00  0.00    +0.000 C 
ATOM      7  C   UNL     1      50.029 -45.340  49.466  0.00  0.00    +0.000 C 
ATOM      8  C   UNL     1      51.132 -45.798  48.689  0.00  0.00    +0.000 C 
ATOM      9  C   UNL     1      52.247 -44.980  48.521  0.00  0.00    +0.000 C 
ATOM     10  C   UNL     1      53.313 -45.434  47.751  0.00  0.00    +0.000 C 
ATOM     11  C   UNL     1      53.279 -46.689  47.152  0.00  0.00    +0.000 C 
ATOM     12  C   UNL     1      52.162 -47.502  47.324  0.00  0.00    +0.000 C 
ATOM     13  C   UNL     1      51.088 -47.057  48.093  0.00  0.00    +0.000 C 
ATOM     14  C   UNL     1      48.894 -42.434  49.501  0.00  0.00    +0.000 C 
ATOM     15  C   UNL     1      49.280 -41.366  48.639  0.00  0.00    +0.000 C 
ATOM     16  C   UNL     1      49.374 -41.583  47.268  0.00  0.00    +0.000 C 
ATOM     17  C   UNL     1      49.763 -40.536  46.438  0.00  0.00    +0.000 C 
ATOM     18  C   UNL     1      50.057 -39.281  46.961  0.00  0.00    +0.000 C 
ATOM     19  C   UNL     1      49.961 -39.071  48.334  0.00  0.00    +0.000 C 
ATOM     20  C   UNL     1      49.573 -40.113  49.175  0.00  0.00    +0.000 C 
ENDROOT
BRANCH  10  21
ATOM     21  O   UNL     1      54.420 -44.657  47.565  0.00  0.00    +0.000 OA
ATOM     22  H   UNL     1      54.851 -44.521  48.427  0.00  0.00    +0.000 HD
ENDBRANCH  10  21
BRANCH  17  23
ATOM     23  O   UNL     1      49.866 -40.715  45.090  0.00  0.00    +0.000 OA
ATOM     24  H   UNL     1      49.852 -39.841  44.660  0.00  0.00    +0.000 HD
ENDBRANCH  17  23
TORSDOF 2
ENDMDL
MODEL 5
REMARK VINA RESULT:      -7.1      4.035      8.041
REMARK  Name = Enterolactone.pdbqt.pdb
REMARK  2 active torsions:
REMARK  status: ('A' for Active; 'I' for Inactive)
REMARK    1  A    between atoms: C_10  and  O_14
REMARK    2  A    between atoms: C_19  and  O_23
REMARK                            x       y       z     vdW  Elec       q    Type
REMARK                         _______ _______ _______ _____ _____    ______ ____
ROOT
ATOM      1  O   UNL     1      46.181 -47.409  52.663  0.00  0.00    +0.000 OA
ATOM      2  O   UNL     1      47.277 -49.128  51.532  0.00  0.00    +0.000 OA
ATOM      3  C   UNL     1      47.468 -45.568  51.907  0.00  0.00    +0.000 C 
ATOM      4  C   UNL     1      47.969 -46.785  51.315  0.00  0.00    +0.000 C 
ATOM      5  C   UNL     1      46.420 -46.108  52.654  0.00  0.00    +0.000 C 
ATOM      6  C   UNL     1      47.140 -47.953  51.817  0.00  0.00    +0.000 C 
ATOM      7  C   UNL     1      47.657 -44.264  51.412  0.00  0.00    +0.000 C 
ATOM      8  C   UNL     1      47.866 -42.950  50.902  0.00  0.00    +0.000 C 
ATOM      9  C   UNL     1      47.995 -42.753  49.529  0.00  0.00    +0.000 C 
ATOM     10  C   UNL     1      48.209 -41.466  49.044  0.00  0.00    +0.000 C 
ATOM     11  C   UNL     1      48.295 -40.381  49.909  0.00  0.00    +0.000 C 
ATOM     12  C   UNL     1      48.165 -40.584  51.281  0.00  0.00    +0.000 C 
ATOM     13  C   UNL     1      47.950 -41.869  51.778  0.00  0.00    +0.000 C 
ATOM     14  C   UNL     1      49.004 -46.873  50.357  0.00  0.00    +0.000 C 
ATOM     15  C   UNL     1      50.046 -46.953  49.388  0.00  0.00    +0.000 C 
ATOM     16  C   UNL     1      51.158 -46.122  49.496  0.00  0.00    +0.000 C 
ATOM     17  C   UNL     1      52.163 -46.203  48.537  0.00  0.00    +0.000 C 
ATOM     18  C   UNL     1      52.070 -47.098  47.477  0.00  0.00    +0.000 C 
ATOM     19  C   UNL     1      50.955 -47.927  47.375  0.00  0.00    +0.000 C 
ATOM     20  C   UNL     1      49.942 -47.856  48.330  0.00  0.00    +0.000 C 
ENDROOT
BRANCH  10  21
ATOM     21  O   UNL     1      48.339 -41.239  47.705  0.00  0.00    +0.000 OA
ATOM     22  H   UNL     1      47.897 -41.959  47.223  0.00  0.00    +0.000 HD
ENDBRANCH  10  21
BRANCH  17  23
ATOM     23  O   UNL     1      53.264 -45.402  48.612  0.00  0.00    +0.000 OA
ATOM     24  H   UNL     1      53.099 -44.710  49.277  0.00  0.00    +0.000 HD
ENDBRANCH  17  23
TORSDOF 2
ENDMDL
MODEL 6
REMARK VINA RESULT:      -6.4      5.700     10.003
REMARK  Name = Enterolactone.pdbqt.pdb
REMARK  2 active torsions:
REMARK  status: ('A' for Active; 'I' for Inactive)
REMARK    1  A    between atoms: C_10  and  O_14
REMARK    2  A    between atoms: C_19  and  O_23
REMARK                            x       y       z     vdW  Elec       q    Type
REMARK                         _______ _______ _______ _____ _____    ______ ____
ROOT
ATOM      1  O   UNL     1      47.571 -50.227  52.729  0.00  0.00    +0.000 OA
ATOM      2  O   UNL     1      45.310 -50.792  52.733  0.00  0.00    +0.000 OA
ATOM      3  C   UNL     1      47.457 -48.184  51.533  0.00  0.00    +0.000 C 
ATOM      4  C   UNL     1      46.131 -48.738  51.674  0.00  0.00    +0.000 C 
ATOM      5  C   UNL     1      48.175 -49.168  52.212  0.00  0.00    +0.000 C 
ATOM      6  C   UNL     1      46.225 -50.049  52.433  0.00  0.00    +0.000 C 
ATOM      7  C   UNL     1      47.771 -46.835  51.283  0.00  0.00    +0.000 C 
ATOM      8  C   UNL     1      48.072 -45.466  51.022  0.00  0.00    +0.000 C 
ATOM      9  C   UNL     1      47.224 -44.469  51.499  0.00  0.00    +0.000 C 
ATOM     10  C   UNL     1      47.523 -43.137  51.228  0.00  0.00    +0.000 C 
ATOM     11  C   UNL     1      48.651 -42.793  50.491  0.00  0.00    +0.000 C 
ATOM     12  C   UNL     1      49.495 -43.795  50.018  0.00  0.00    +0.000 C 
ATOM     13  C   UNL     1      49.205 -45.132  50.283  0.00  0.00    +0.000 C 
ATOM     14  C   UNL     1      44.930 -48.124  51.255  0.00  0.00    +0.000 C 
ATOM     15  C   UNL     1      43.722 -47.496  50.833  0.00  0.00    +0.000 C 
ATOM     16  C   UNL     1      43.691 -46.791  49.633  0.00  0.00    +0.000 C 
ATOM     17  C   UNL     1      42.508 -46.173  49.238  0.00  0.00    +0.000 C 
ATOM     18  C   UNL     1      41.364 -46.251  50.024  0.00  0.00    +0.000 C 
ATOM     19  C   UNL     1      41.402 -46.959  51.223  0.00  0.00    +0.000 C 
ATOM     20  C   UNL     1      42.581 -47.582  51.629  0.00  0.00    +0.000 C 
ENDROOT
BRANCH  10  21
ATOM     21  O   UNL     1      46.713 -42.135  51.680  0.00  0.00    +0.000 OA
ATOM     22  H   UNL     1      47.227 -41.568  52.281  0.00  0.00    +0.000 HD
ENDBRANCH  10  21
BRANCH  17  23
ATOM     23  O   UNL     1      42.443 -45.473  48.069  0.00  0.00    +0.000 OA
ATOM     24  H   UNL     1      42.240 -46.095  47.347  0.00  0.00    +0.000 HD
ENDBRANCH  17  23
TORSDOF 2
ENDMDL
MODEL 7
REMARK VINA RESULT:      -6.2     13.999     17.962
REMARK  Name = Enterolactone.pdbqt.pdb
REMARK  2 active torsions:
REMARK  status: ('A' for Active; 'I' for Inactive)
REMARK    1  A    between atoms: C_10  and  O_14
REMARK    2  A    between atoms: C_19  and  O_23
REMARK                            x       y       z     vdW  Elec       q    Type
REMARK                         _______ _______ _______ _____ _____    ______ ____
ROOT
ATOM      1  O   UNL     1      38.088 -22.922  57.108  0.00  0.00    +0.000 OA
ATOM      2  O   UNL     1      37.943 -21.452  55.305  0.00  0.00    +0.000 OA
ATOM      3  C   UNL     1      38.306 -24.965  55.925  0.00  0.00    +0.000 C 
ATOM      4  C   UNL     1      38.206 -23.870  54.989  0.00  0.00    +0.000 C 
ATOM      5  C   UNL     1      38.233 -24.238  57.114  0.00  0.00    +0.000 C 
ATOM      6  C   UNL     1      38.057 -22.574  55.763  0.00  0.00    +0.000 C 
ATOM      7  C   UNL     1      38.858 -26.233  55.665  0.00  0.00    +0.000 C 
ATOM      8  C   UNL     1      39.413 -27.515  55.381  0.00  0.00    +0.000 C 
ATOM      9  C   UNL     1      40.443 -27.632  54.451  0.00  0.00    +0.000 C 
ATOM     10  C   UNL     1      40.970 -28.891  54.175  0.00  0.00    +0.000 C 
ATOM     11  C   UNL     1      40.481 -30.026  54.814  0.00  0.00    +0.000 C 
ATOM     12  C   UNL     1      39.451 -29.901  55.743  0.00  0.00    +0.000 C 
ATOM     13  C   UNL     1      38.917 -28.645  56.027  0.00  0.00    +0.000 C 
ATOM     14  C   UNL     1      38.314 -23.972  53.584  0.00  0.00    +0.000 C 
ATOM     15  C   UNL     1      38.429 -24.083  52.168  0.00  0.00    +0.000 C 
ATOM     16  C   UNL     1      37.865 -25.171  51.510  0.00  0.00    +0.000 C 
ATOM     17  C   UNL     1      37.994 -25.273  50.128  0.00  0.00    +0.000 C 
ATOM     18  C   UNL     1      38.678 -24.305  49.401  0.00  0.00    +0.000 C 
ATOM     19  C   UNL     1      39.240 -23.217  50.065  0.00  0.00    +0.000 C 
ATOM     20  C   UNL     1      39.117 -23.105  51.449  0.00  0.00    +0.000 C 
ENDROOT
BRANCH  10  21
ATOM     21  O   UNL     1      41.979 -29.041  53.270  0.00  0.00    +0.000 OA
ATOM     22  H   UNL     1      42.749 -29.425  53.724  0.00  0.00    +0.000 HD
ENDBRANCH  10  21
BRANCH  17  23
ATOM     23  O   UNL     1      37.454 -26.328  49.452  0.00  0.00    +0.000 OA
ATOM     24  H   UNL     1      37.443 -26.114  48.502  0.00  0.00    +0.000 HD
ENDBRANCH  17  23
TORSDOF 2
ENDMDL
MODEL 8
REMARK VINA RESULT:      -6.2      5.538      9.008
REMARK  Name = Enterolactone.pdbqt.pdb
REMARK  2 active torsions:
REMARK  status: ('A' for Active; 'I' for Inactive)
REMARK    1  A    between atoms: C_10  and  O_14
REMARK    2  A    between atoms: C_19  and  O_23
REMARK                            x       y       z     vdW  Elec       q    Type
REMARK                         _______ _______ _______ _____ _____    ______ ____
ROOT
ATOM      1  O   UNL     1      48.160 -49.865  47.733  0.00  0.00    +0.000 OA
ATOM      2  O   UNL     1      49.893 -49.974  46.177  0.00  0.00    +0.000 OA
ATOM      3  C   UNL     1      48.892 -47.998  48.996  0.00  0.00    +0.000 C 
ATOM      4  C   UNL     1      49.831 -48.262  47.932  0.00  0.00    +0.000 C 
ATOM      5  C   UNL     1      47.974 -49.014  48.730  0.00  0.00    +0.000 C 
ATOM      6  C   UNL     1      49.352 -49.464  47.141  0.00  0.00    +0.000 C 
ATOM      7  C   UNL     1      48.728 -46.776  49.676  0.00  0.00    +0.000 C 
ATOM      8  C   UNL     1      48.580 -45.534  50.359  0.00  0.00    +0.000 C 
ATOM      9  C   UNL     1      48.834 -44.341  49.688  0.00  0.00    +0.000 C 
ATOM     10  C   UNL     1      48.696 -43.135  50.369  0.00  0.00    +0.000 C 
ATOM     11  C   UNL     1      48.311 -43.109  51.705  0.00  0.00    +0.000 C 
ATOM     12  C   UNL     1      48.059 -44.306  52.371  0.00  0.00    +0.000 C 
ATOM     13  C   UNL     1      48.193 -45.519  51.698  0.00  0.00    +0.000 C 
ATOM     14  C   UNL     1      50.966 -47.481  47.619  0.00  0.00    +0.000 C 
ATOM     15  C   UNL     1      52.106 -46.685  47.307  0.00  0.00    +0.000 C 
ATOM     16  C   UNL     1      52.871 -46.137  48.333  0.00  0.00    +0.000 C 
ATOM     17  C   UNL     1      53.975 -45.352  48.015  0.00  0.00    +0.000 C 
ATOM     18  C   UNL     1      54.322 -45.110  46.690  0.00  0.00    +0.000 C 
ATOM     19  C   UNL     1      53.553 -45.662  45.668  0.00  0.00    +0.000 C 
ATOM     20  C   UNL     1      52.444 -46.449  45.975  0.00  0.00    +0.000 C 
ENDROOT
BRANCH  10  21
ATOM     21  O   UNL     1      48.937 -41.948  49.741  0.00  0.00    +0.000 OA
ATOM     22  H   UNL     1      48.440 -41.933  48.904  0.00  0.00    +0.000 HD
ENDBRANCH  10  21
BRANCH  17  23
ATOM     23  O   UNL     1      54.745 -44.799  48.996  0.00  0.00    +0.000 OA
ATOM     24  H   UNL     1      55.192 -45.517  49.480  0.00  0.00    +0.000 HD
ENDBRANCH  17  23
TORSDOF 2
ENDMDL
MODEL 9
REMARK VINA RESULT:      -6.1     16.786     19.189
REMARK  Name = Enterolactone.pdbqt.pdb
REMARK  2 active torsions:
REMARK  status: ('A' for Active; 'I' for Inactive)
REMARK    1  A    between atoms: C_10  and  O_14
REMARK    2  A    between atoms: C_19  and  O_23
REMARK                            x       y       z     vdW  Elec       q    Type
REMARK                         _______ _______ _______ _____ _____    ______ ____
ROOT
ATOM      1  O   UNL     1      65.100 -50.439  57.980  0.00  0.00    +0.000 OA
ATOM      2  O   UNL     1      63.392 -50.687  59.547  0.00  0.00    +0.000 OA
ATOM      3  C   UNL     1      64.602 -48.254  57.208  0.00  0.00    +0.000 C 
ATOM      4  C   UNL     1      63.652 -48.637  58.225  0.00  0.00    +0.000 C 
ATOM      5  C   UNL     1      65.382 -49.411  57.196  0.00  0.00    +0.000 C 
ATOM      6  C   UNL     1      63.980 -50.040  58.700  0.00  0.00    +0.000 C 
ATOM      7  C   UNL     1      64.916 -46.939  56.817  0.00  0.00    +0.000 C 
ATOM      8  C   UNL     1      65.216 -45.601  56.428  0.00  0.00    +0.000 C 
ATOM      9  C   UNL     1      65.131 -44.572  57.364  0.00  0.00    +0.000 C 
ATOM     10  C   UNL     1      65.416 -43.269  56.969  0.00  0.00    +0.000 C 
ATOM     11  C   UNL     1      65.782 -42.983  55.658  0.00  0.00    +0.000 C 
ATOM     12  C   UNL     1      65.865 -44.015  54.727  0.00  0.00    +0.000 C 
ATOM     13  C   UNL     1      65.582 -45.325  55.112  0.00  0.00    +0.000 C 
ATOM     14  C   UNL     1      62.634 -47.814  58.757  0.00  0.00    +0.000 C 
ATOM     15  C   UNL     1      61.614 -46.976  59.293  0.00  0.00    +0.000 C 
ATOM     16  C   UNL     1      60.913 -46.115  58.453  0.00  0.00    +0.000 C 
ATOM     17  C   UNL     1      59.926 -45.294  58.990  0.00  0.00    +0.000 C 
ATOM     18  C   UNL     1      59.634 -45.323  60.349  0.00  0.00    +0.000 C 
ATOM     19  C   UNL     1      60.338 -46.188  61.184  0.00  0.00    +0.000 C 
ATOM     20  C   UNL     1      61.329 -47.015  60.657  0.00  0.00    +0.000 C 
ENDROOT
BRANCH  10  21
ATOM     21  O   UNL     1      65.343 -42.238  57.861  0.00  0.00    +0.000 OA
ATOM     22  H   UNL     1      65.530 -41.407  57.390  0.00  0.00    +0.000 HD
ENDBRANCH  10  21
BRANCH  17  23
ATOM     23  O   UNL     1      59.222 -44.438  58.195  0.00  0.00    +0.000 OA
ATOM     24  H   UNL     1      59.388 -44.673  57.265  0.00  0.00    +0.000 HD
ENDBRANCH  17  23
TORSDOF 2
ENDMDL
