MODEL 1
REMARK VINA RESULT:      -8.1      0.000      0.000
REMARK  Name = 
REMARK  12 active torsions:
REMARK  status: ('A' for Active; 'I' for Inactive)
REMARK    1  A    between atoms: O_2  and  C_12
REMARK    2  A    between atoms: O_2  and  C_24
REMARK    3  A    between atoms: O_3  and  C_18
REMARK    4  A    between atoms: O_4  and  C_23
REMARK    5  A    between atoms: O_5  and  C_25
REMARK    6  A    between atoms: O_6  and  C_26
REMARK    7  A    between atoms: O_8  and  C_27
REMARK    8  A    between atoms: O_9  and  C_31
REMARK    9  A    between atoms: O_10  and  C_32
REMARK   10  A    between atoms: O_11  and  C_33
REMARK   11  A    between atoms: C_13  and  C_16
REMARK   12  A    between atoms: C_24  and  C_28
REMARK                            x       y       z     vdW  Elec       q    Type
REMARK                         _______ _______ _______ _____ _____    ______ ____
ROOT
ATOM      1  O   UNL     1      50.616 -46.716  49.433  0.00  0.00    +0.000 OA
ATOM      2  C   UNL     1      49.406 -45.268  47.837  0.00  0.00    +0.000 C 
ATOM      3  C   UNL     1      50.526 -46.300  48.060  0.00  0.00    +0.000 C 
ATOM      4  C   UNL     1      48.071 -45.923  48.190  0.00  0.00    +0.000 C 
ATOM      5  C   UNL     1      48.173 -46.726  49.462  0.00  0.00    +0.000 A 
ATOM      6  C   UNL     1      49.420 -47.074  49.997  0.00  0.00    +0.000 A 
ATOM      7  C   UNL     1      47.018 -47.161  50.124  0.00  0.00    +0.000 A 
ATOM      8  C   UNL     1      49.509 -47.799  51.187  0.00  0.00    +0.000 A 
ATOM      9  C   UNL     1      47.096 -47.895  51.306  0.00  0.00    +0.000 A 
ATOM     10  C   UNL     1      48.344 -48.204  51.830  0.00  0.00    +0.000 A 
ENDROOT
BRANCH   3  11
ATOM     11  C   UNL     1      51.881 -45.762  47.618  0.00  0.00    +0.000 A 
ATOM     12  C   UNL     1      52.971 -45.794  48.509  0.00  0.00    +0.000 A 
ATOM     13  C   UNL     1      52.077 -45.263  46.316  0.00  0.00    +0.000 A 
ATOM     14  C   UNL     1      53.333 -44.806  45.930  0.00  0.00    +0.000 A 
ATOM     15  C   UNL     1      54.225 -45.329  48.109  0.00  0.00    +0.000 A 
ATOM     16  C   UNL     1      54.404 -44.836  46.821  0.00  0.00    +0.000 A 
BRANCH  14  17
ATOM     17  O   UNL     1      53.565 -44.318  44.672  0.00  0.00    +0.000 OA
ATOM     18  H   UNL     1      52.709 -44.087  44.271  0.00  0.00    +0.000 HD
ENDBRANCH  14  17
BRANCH  15  19
ATOM     19  O   UNL     1      55.283 -45.356  48.971  0.00  0.00    +0.000 OA
ATOM     20  H   UNL     1      55.879 -44.616  48.779  0.00  0.00    +0.000 HD
ENDBRANCH  15  19
BRANCH  16  21
ATOM     21  O   UNL     1      55.625 -44.379  46.407  0.00  0.00    +0.000 OA
ATOM     22  H   UNL     1      56.258 -44.743  47.055  0.00  0.00    +0.000 HD
ENDBRANCH  16  21
ENDBRANCH   3  11
BRANCH   7  23
ATOM     23  O   UNL     1      45.800 -46.850  49.588  0.00  0.00    +0.000 OA
ATOM     24  H   UNL     1      45.750 -45.888  49.461  0.00  0.00    +0.000 HD
ENDBRANCH   7  23
BRANCH  10  25
ATOM     25  O   UNL     1      48.385 -48.920  52.990  0.00  0.00    +0.000 OA
ATOM     26  H   UNL     1      47.819 -49.705  52.894  0.00  0.00    +0.000 HD
ENDBRANCH  10  25
BRANCH   2  27
ATOM     27  O   UNL     1      49.615 -44.127  48.706  0.00  0.00    +0.000 OA
BRANCH  27  29
ATOM     28  O   UNL     1      49.932 -42.660  46.970  0.00  0.00    +0.000 OA
ATOM     29  C   UNL     1      49.603 -42.911  48.117  0.00  0.00    +0.000 C 
BRANCH  29  30
ATOM     30  C   UNL     1      49.160 -41.884  49.094  0.00  0.00    +0.000 A 
ATOM     31  C   UNL     1      49.322 -40.533  48.747  0.00  0.00    +0.000 A 
ATOM     32  C   UNL     1      48.585 -42.236  50.327  0.00  0.00    +0.000 A 
ATOM     33  C   UNL     1      48.188 -41.236  51.214  0.00  0.00    +0.000 A 
ATOM     34  C   UNL     1      48.923 -39.551  49.645  0.00  0.00    +0.000 A 
ATOM     35  C   UNL     1      48.363 -39.898  50.875  0.00  0.00    +0.000 A 
BRANCH  33  36
ATOM     36  O   UNL     1      47.630 -41.560  52.418  0.00  0.00    +0.000 OA
ATOM     37  H   UNL     1      46.863 -40.993  52.584  0.00  0.00    +0.000 HD
ENDBRANCH  33  36
BRANCH  34  38
ATOM     38  O   UNL     1      49.063 -38.220  49.362  0.00  0.00    +0.000 OA
ATOM     39  H   UNL     1      48.363 -37.959  48.737  0.00  0.00    +0.000 HD
ENDBRANCH  34  38
BRANCH  35  40
ATOM     40  O   UNL     1      47.983 -38.904  51.734  0.00  0.00    +0.000 OA
ATOM     41  H   UNL     1      47.388 -39.338  52.376  0.00  0.00    +0.000 HD
ENDBRANCH  35  40
ENDBRANCH  29  30
ENDBRANCH  27  29
ENDBRANCH   2  27
TORSDOF 12
ENDMDL
MODEL 2
REMARK VINA RESULT:      -8.0      3.035      6.023
REMARK  Name = 
REMARK  12 active torsions:
REMARK  status: ('A' for Active; 'I' for Inactive)
REMARK    1  A    between atoms: O_2  and  C_12
REMARK    2  A    between atoms: O_2  and  C_24
REMARK    3  A    between atoms: O_3  and  C_18
REMARK    4  A    between atoms: O_4  and  C_23
REMARK    5  A    between atoms: O_5  and  C_25
REMARK    6  A    between atoms: O_6  and  C_26
REMARK    7  A    between atoms: O_8  and  C_27
REMARK    8  A    between atoms: O_9  and  C_31
REMARK    9  A    between atoms: O_10  and  C_32
REMARK   10  A    between atoms: O_11  and  C_33
REMARK   11  A    between atoms: C_13  and  C_16
REMARK   12  A    between atoms: C_24  and  C_28
REMARK                            x       y       z     vdW  Elec       q    Type
REMARK                         _______ _______ _______ _____ _____    ______ ____
ROOT
ATOM      1  O   UNL     1      48.274 -42.359  50.877  0.00  0.00    +0.000 OA
ATOM      2  C   UNL     1      49.195 -42.521  48.589  0.00  0.00    +0.000 C 
ATOM      3  C   UNL     1      49.262 -41.842  49.968  0.00  0.00    +0.000 C 
ATOM      4  C   UNL     1      49.496 -44.008  48.770  0.00  0.00    +0.000 C 
ATOM      5  C   UNL     1      48.779 -44.572  49.970  0.00  0.00    +0.000 A 
ATOM      6  C   UNL     1      48.224 -43.727  50.940  0.00  0.00    +0.000 A 
ATOM      7  C   UNL     1      48.673 -45.956  50.152  0.00  0.00    +0.000 A 
ATOM      8  C   UNL     1      47.541 -44.252  52.039  0.00  0.00    +0.000 A 
ATOM      9  C   UNL     1      48.003 -46.491  51.251  0.00  0.00    +0.000 A 
ATOM     10  C   UNL     1      47.438 -45.632  52.184  0.00  0.00    +0.000 A 
ENDROOT
BRANCH   3  11
ATOM     11  C   UNL     1      49.089 -40.333  49.859  0.00  0.00    +0.000 A 
ATOM     12  C   UNL     1      49.988 -39.580  49.080  0.00  0.00    +0.000 A 
ATOM     13  C   UNL     1      48.020 -39.674  50.497  0.00  0.00    +0.000 A 
ATOM     14  C   UNL     1      47.870 -38.298  50.355  0.00  0.00    +0.000 A 
ATOM     15  C   UNL     1      49.826 -38.199  48.949  0.00  0.00    +0.000 A 
ATOM     16  C   UNL     1      48.768 -37.561  49.586  0.00  0.00    +0.000 A 
BRANCH  14  17
ATOM     17  O   UNL     1      46.841 -37.622  50.955  0.00  0.00    +0.000 OA
ATOM     18  H   UNL     1      46.462 -38.192  51.646  0.00  0.00    +0.000 HD
ENDBRANCH  14  17
BRANCH  15  19
ATOM     19  O   UNL     1      50.699 -37.466  48.197  0.00  0.00    +0.000 OA
ATOM     20  H   UNL     1      50.224 -37.049  47.462  0.00  0.00    +0.000 HD
ENDBRANCH  15  19
BRANCH  16  21
ATOM     21  O   UNL     1      48.588 -36.210  49.468  0.00  0.00    +0.000 OA
ATOM     22  H   UNL     1      47.645 -36.067  49.675  0.00  0.00    +0.000 HD
ENDBRANCH  16  21
ENDBRANCH   3  11
BRANCH   7  23
ATOM     23  O   UNL     1      49.240 -46.783  49.224  0.00  0.00    +0.000 OA
ATOM     24  H   UNL     1      49.697 -47.506  49.686  0.00  0.00    +0.000 HD
ENDBRANCH   7  23
BRANCH  10  25
ATOM     25  O   UNL     1      46.788 -46.188  53.245  0.00  0.00    +0.000 OA
ATOM     26  H   UNL     1      47.416 -46.736  53.747  0.00  0.00    +0.000 HD
ENDBRANCH  10  25
BRANCH   2  27
ATOM     27  O   UNL     1      47.863 -42.374  48.037  0.00  0.00    +0.000 OA
BRANCH  27  29
ATOM     28  O   UNL     1      47.304 -43.257  45.993  0.00  0.00    +0.000 OA
ATOM     29  C   UNL     1      47.767 -42.368  46.689  0.00  0.00    +0.000 C 
BRANCH  29  30
ATOM     30  C   UNL     1      48.351 -41.115  46.150  0.00  0.00    +0.000 A 
ATOM     31  C   UNL     1      49.561 -41.203  45.444  0.00  0.00    +0.000 A 
ATOM     32  C   UNL     1      47.720 -39.870  46.322  0.00  0.00    +0.000 A 
ATOM     33  C   UNL     1      48.310 -38.719  45.801  0.00  0.00    +0.000 A 
ATOM     34  C   UNL     1      50.135 -40.045  44.935  0.00  0.00    +0.000 A 
ATOM     35  C   UNL     1      49.517 -38.808  45.115  0.00  0.00    +0.000 A 
BRANCH  33  36
ATOM     36  O   UNL     1      47.712 -37.502  45.961  0.00  0.00    +0.000 OA
ATOM     37  H   UNL     1      48.105 -37.043  46.718  0.00  0.00    +0.000 HD
ENDBRANCH  33  36
BRANCH  34  38
ATOM     38  O   UNL     1      51.316 -40.072  44.244  0.00  0.00    +0.000 OA
ATOM     39  H   UNL     1      51.715 -40.955  44.343  0.00  0.00    +0.000 HD
ENDBRANCH  34  38
BRANCH  35  40
ATOM     40  O   UNL     1      50.111 -37.688  44.600  0.00  0.00    +0.000 OA
ATOM     41  H   UNL     1      50.944 -38.005  44.200  0.00  0.00    +0.000 HD
ENDBRANCH  35  40
ENDBRANCH  29  30
ENDBRANCH  27  29
ENDBRANCH   2  27
TORSDOF 12
ENDMDL
MODEL 3
REMARK VINA RESULT:      -8.0      3.042      5.955
REMARK  Name = 
REMARK  12 active torsions:
REMARK  status: ('A' for Active; 'I' for Inactive)
REMARK    1  A    between atoms: O_2  and  C_12
REMARK    2  A    between atoms: O_2  and  C_24
REMARK    3  A    between atoms: O_3  and  C_18
REMARK    4  A    between atoms: O_4  and  C_23
REMARK    5  A    between atoms: O_5  and  C_25
REMARK    6  A    between atoms: O_6  and  C_26
REMARK    7  A    between atoms: O_8  and  C_27
REMARK    8  A    between atoms: O_9  and  C_31
REMARK    9  A    between atoms: O_10  and  C_32
REMARK   10  A    between atoms: O_11  and  C_33
REMARK   11  A    between atoms: C_13  and  C_16
REMARK   12  A    between atoms: C_24  and  C_28
REMARK                            x       y       z     vdW  Elec       q    Type
REMARK                         _______ _______ _______ _____ _____    ______ ____
ROOT
ATOM      1  O   UNL     1      48.263 -42.390  50.868  0.00  0.00    +0.000 OA
ATOM      2  C   UNL     1      49.126 -42.602  48.562  0.00  0.00    +0.000 C 
ATOM      3  C   UNL     1      49.236 -41.903  49.929  0.00  0.00    +0.000 C 
ATOM      4  C   UNL     1      49.406 -44.092  48.759  0.00  0.00    +0.000 C 
ATOM      5  C   UNL     1      48.708 -44.625  49.985  0.00  0.00    +0.000 A 
ATOM      6  C   UNL     1      48.191 -43.756  50.954  0.00  0.00    +0.000 A 
ATOM      7  C   UNL     1      48.584 -46.004  50.191  0.00  0.00    +0.000 A 
ATOM      8  C   UNL     1      47.526 -44.253  52.077  0.00  0.00    +0.000 A 
ATOM      9  C   UNL     1      47.932 -46.511  51.313  0.00  0.00    +0.000 A 
ATOM     10  C   UNL     1      47.404 -45.628  52.246  0.00  0.00    +0.000 A 
ENDROOT
BRANCH   3  11
ATOM     11  C   UNL     1      49.086 -40.393  49.801  0.00  0.00    +0.000 A 
ATOM     12  C   UNL     1      48.039 -39.735  50.474  0.00  0.00    +0.000 A 
ATOM     13  C   UNL     1      49.998 -39.632  49.046  0.00  0.00    +0.000 A 
ATOM     14  C   UNL     1      49.853 -38.250  48.971  0.00  0.00    +0.000 A 
ATOM     15  C   UNL     1      47.904 -38.348  50.388  0.00  0.00    +0.000 A 
ATOM     16  C   UNL     1      48.811 -37.608  49.637  0.00  0.00    +0.000 A 
BRANCH  14  17
ATOM     17  O   UNL     1      50.723 -37.475  48.252  0.00  0.00    +0.000 OA
ATOM     18  H   UNL     1      51.582 -37.930  48.217  0.00  0.00    +0.000 HD
ENDBRANCH  14  17
BRANCH  15  19
ATOM     19  O   UNL     1      46.888 -37.707  51.038  0.00  0.00    +0.000 OA
ATOM     20  H   UNL     1      46.083 -38.243  50.990  0.00  0.00    +0.000 HD
ENDBRANCH  15  19
BRANCH  16  21
ATOM     21  O   UNL     1      48.700 -36.248  49.542  0.00  0.00    +0.000 OA
ATOM     22  H   UNL     1      49.404 -35.985  48.918  0.00  0.00    +0.000 HD
ENDBRANCH  16  21
ENDBRANCH   3  11
BRANCH   7  23
ATOM     23  O   UNL     1      49.115 -46.855  49.263  0.00  0.00    +0.000 OA
ATOM     24  H   UNL     1      48.408 -47.145  48.663  0.00  0.00    +0.000 HD
ENDBRANCH   7  23
BRANCH  10  25
ATOM     25  O   UNL     1      46.770 -46.157  53.331  0.00  0.00    +0.000 OA
ATOM     26  H   UNL     1      47.081 -47.069  53.463  0.00  0.00    +0.000 HD
ENDBRANCH  10  25
BRANCH   2  27
ATOM     27  O   UNL     1      47.783 -42.442  48.040  0.00  0.00    +0.000 OA
BRANCH  27  29
ATOM     28  O   UNL     1      47.120 -43.261  46.001  0.00  0.00    +0.000 OA
ATOM     29  C   UNL     1      47.660 -42.415  46.695  0.00  0.00    +0.000 C 
BRANCH  29  30
ATOM     30  C   UNL     1      48.322 -41.201  46.153  0.00  0.00    +0.000 A 
ATOM     31  C   UNL     1      47.692 -39.963  46.353  0.00  0.00    +0.000 A 
ATOM     32  C   UNL     1      49.547 -41.271  45.467  0.00  0.00    +0.000 A 
ATOM     33  C   UNL     1      50.128 -40.105  44.973  0.00  0.00    +0.000 A 
ATOM     34  C   UNL     1      48.285 -38.812  45.850  0.00  0.00    +0.000 A 
ATOM     35  C   UNL     1      49.494 -38.880  45.159  0.00  0.00    +0.000 A 
BRANCH  33  36
ATOM     36  O   UNL     1      51.317 -40.154  44.302  0.00  0.00    +0.000 OA
ATOM     37  H   UNL     1      51.499 -39.293  43.898  0.00  0.00    +0.000 HD
ENDBRANCH  33  36
BRANCH  34  38
ATOM     38  O   UNL     1      47.712 -37.579  46.010  0.00  0.00    +0.000 OA
ATOM     39  H   UNL     1      46.743 -37.681  45.992  0.00  0.00    +0.000 HD
ENDBRANCH  34  38
BRANCH  35  40
ATOM     40  O   UNL     1      50.049 -37.726  44.677  0.00  0.00    +0.000 OA
ATOM     41  H   UNL     1      51.012 -37.844  44.784  0.00  0.00    +0.000 HD
ENDBRANCH  35  40
ENDBRANCH  29  30
ENDBRANCH  27  29
ENDBRANCH   2  27
TORSDOF 12
ENDMDL
MODEL 4
REMARK VINA RESULT:      -8.0      0.445      2.081
REMARK  Name = 
REMARK  12 active torsions:
REMARK  status: ('A' for Active; 'I' for Inactive)
REMARK    1  A    between atoms: O_2  and  C_12
REMARK    2  A    between atoms: O_2  and  C_24
REMARK    3  A    between atoms: O_3  and  C_18
REMARK    4  A    between atoms: O_4  and  C_23
REMARK    5  A    between atoms: O_5  and  C_25
REMARK    6  A    between atoms: O_6  and  C_26
REMARK    7  A    between atoms: O_8  and  C_27
REMARK    8  A    between atoms: O_9  and  C_31
REMARK    9  A    between atoms: O_10  and  C_32
REMARK   10  A    between atoms: O_11  and  C_33
REMARK   11  A    between atoms: C_13  and  C_16
REMARK   12  A    between atoms: C_24  and  C_28
REMARK                            x       y       z     vdW  Elec       q    Type
REMARK                         _______ _______ _______ _____ _____    ______ ____
ROOT
ATOM      1  O   UNL     1      50.329 -46.473  49.334  0.00  0.00    +0.000 OA
ATOM      2  C   UNL     1      49.319 -44.965  47.658  0.00  0.00    +0.000 C 
ATOM      3  C   UNL     1      50.326 -46.091  47.948  0.00  0.00    +0.000 C 
ATOM      4  C   UNL     1      47.916 -45.478  47.979  0.00  0.00    +0.000 C 
ATOM      5  C   UNL     1      47.897 -46.249  49.274  0.00  0.00    +0.000 A 
ATOM      6  C   UNL     1      49.086 -46.699  49.863  0.00  0.00    +0.000 A 
ATOM      7  C   UNL     1      46.684 -46.553  49.905  0.00  0.00    +0.000 A 
ATOM      8  C   UNL     1      49.065 -47.393  51.075  0.00  0.00    +0.000 A 
ATOM      9  C   UNL     1      46.651 -47.255  51.108  0.00  0.00    +0.000 A 
ATOM     10  C   UNL     1      47.845 -47.666  51.685  0.00  0.00    +0.000 A 
ENDROOT
BRANCH   3  11
ATOM     11  C   UNL     1      51.740 -45.699  47.542  0.00  0.00    +0.000 A 
ATOM     12  C   UNL     1      51.981 -45.186  46.252  0.00  0.00    +0.000 A 
ATOM     13  C   UNL     1      52.814 -45.804  48.446  0.00  0.00    +0.000 A 
ATOM     14  C   UNL     1      54.090 -45.409  48.057  0.00  0.00    +0.000 A 
ATOM     15  C   UNL     1      53.268 -44.796  45.874  0.00  0.00    +0.000 A 
ATOM     16  C   UNL     1      54.319 -44.908  46.777  0.00  0.00    +0.000 A 
BRANCH  14  17
ATOM     17  O   UNL     1      55.159 -45.492  48.908  0.00  0.00    +0.000 OA
ATOM     18  H   UNL     1      55.195 -44.675  49.434  0.00  0.00    +0.000 HD
ENDBRANCH  14  17
BRANCH  15  19
ATOM     19  O   UNL     1      53.504 -44.302  44.624  0.00  0.00    +0.000 OA
ATOM     20  H   UNL     1      54.363 -43.855  44.608  0.00  0.00    +0.000 HD
ENDBRANCH  15  19
BRANCH  16  21
ATOM     21  O   UNL     1      55.587 -44.529  46.429  0.00  0.00    +0.000 OA
ATOM     22  H   UNL     1      55.772 -45.014  45.602  0.00  0.00    +0.000 HD
ENDBRANCH  16  21
ENDBRANCH   3  11
BRANCH   7  23
ATOM     23  O   UNL     1      45.521 -46.143  49.317  0.00  0.00    +0.000 OA
ATOM     24  H   UNL     1      44.771 -46.508  49.817  0.00  0.00    +0.000 HD
ENDBRANCH   7  23
BRANCH  10  25
ATOM     25  O   UNL     1      47.778 -48.348  52.864  0.00  0.00    +0.000 OA
ATOM     26  H   UNL     1      48.633 -48.781  53.026  0.00  0.00    +0.000 HD
ENDBRANCH  10  25
BRANCH   2  27
ATOM     27  O   UNL     1      49.607 -43.824  48.504  0.00  0.00    +0.000 OA
BRANCH  27  29
ATOM     28  O   UNL     1      49.967 -42.376  46.759  0.00  0.00    +0.000 OA
ATOM     29  C   UNL     1      49.613 -42.614  47.902  0.00  0.00    +0.000 C 
BRANCH  29  30
ATOM     30  C   UNL     1      49.153 -41.575  48.857  0.00  0.00    +0.000 A 
ATOM     31  C   UNL     1      48.731 -41.992  50.130  0.00  0.00    +0.000 A 
ATOM     32  C   UNL     1      49.143 -40.211  48.519  0.00  0.00    +0.000 A 
ATOM     33  C   UNL     1      48.697 -39.272  49.448  0.00  0.00    +0.000 A 
ATOM     34  C   UNL     1      48.288 -41.042  51.042  0.00  0.00    +0.000 A 
ATOM     35  C   UNL     1      48.266 -39.689  50.703  0.00  0.00    +0.000 A 
BRANCH  33  36
ATOM     36  O   UNL     1      48.679 -37.943  49.135  0.00  0.00    +0.000 OA
ATOM     37  H   UNL     1      48.267 -37.818  48.267  0.00  0.00    +0.000 HD
ENDBRANCH  33  36
BRANCH  34  38
ATOM     38  O   UNL     1      47.860 -41.392  52.293  0.00  0.00    +0.000 OA
ATOM     39  H   UNL     1      47.124 -42.024  52.205  0.00  0.00    +0.000 HD
ENDBRANCH  34  38
BRANCH  35  40
ATOM     40  O   UNL     1      47.822 -38.782  51.627  0.00  0.00    +0.000 OA
ATOM     41  H   UNL     1      46.866 -38.689  51.452  0.00  0.00    +0.000 HD
ENDBRANCH  35  40
ENDBRANCH  29  30
ENDBRANCH  27  29
ENDBRANCH   2  27
TORSDOF 12
ENDMDL
MODEL 5
REMARK VINA RESULT:      -7.8      3.506      7.808
REMARK  Name = 
REMARK  12 active torsions:
REMARK  status: ('A' for Active; 'I' for Inactive)
REMARK    1  A    between atoms: O_2  and  C_12
REMARK    2  A    between atoms: O_2  and  C_24
REMARK    3  A    between atoms: O_3  and  C_18
REMARK    4  A    between atoms: O_4  and  C_23
REMARK    5  A    between atoms: O_5  and  C_25
REMARK    6  A    between atoms: O_6  and  C_26
REMARK    7  A    between atoms: O_8  and  C_27
REMARK    8  A    between atoms: O_9  and  C_31
REMARK    9  A    between atoms: O_10  and  C_32
REMARK   10  A    between atoms: O_11  and  C_33
REMARK   11  A    between atoms: C_13  and  C_16
REMARK   12  A    between atoms: C_24  and  C_28
REMARK                            x       y       z     vdW  Elec       q    Type
REMARK                         _______ _______ _______ _____ _____    ______ ____
ROOT
ATOM      1  O   UNL     1      48.596 -37.612  47.881  0.00  0.00    +0.000 OA
ATOM      2  C   UNL     1      50.155 -39.513  48.121  0.00  0.00    +0.000 C 
ATOM      3  C   UNL     1      49.731 -38.279  47.305  0.00  0.00    +0.000 C 
ATOM      4  C   UNL     1      50.574 -39.048  49.515  0.00  0.00    +0.000 C 
ATOM      5  C   UNL     1      49.615 -38.022  50.063  0.00  0.00    +0.000 A 
ATOM      6  C   UNL     1      48.700 -37.371  49.225  0.00  0.00    +0.000 A 
ATOM      7  C   UNL     1      49.635 -37.682  51.421  0.00  0.00    +0.000 A 
ATOM      8  C   UNL     1      47.798 -36.438  49.741  0.00  0.00    +0.000 A 
ATOM      9  C   UNL     1      48.747 -36.744  51.944  0.00  0.00    +0.000 A 
ATOM     10  C   UNL     1      47.832 -36.132  51.097  0.00  0.00    +0.000 A 
ENDROOT
BRANCH   3  11
ATOM     11  C   UNL     1      49.410 -38.644  45.862  0.00  0.00    +0.000 A 
ATOM     12  C   UNL     1      50.274 -39.496  45.147  0.00  0.00    +0.000 A 
ATOM     13  C   UNL     1      48.241 -38.173  45.234  0.00  0.00    +0.000 A 
ATOM     14  C   UNL     1      47.958 -38.548  43.925  0.00  0.00    +0.000 A 
ATOM     15  C   UNL     1      49.978 -39.861  43.832  0.00  0.00    +0.000 A 
ATOM     16  C   UNL     1      48.821 -39.387  43.223  0.00  0.00    +0.000 A 
BRANCH  14  17
ATOM     17  O   UNL     1      46.829 -38.115  43.282  0.00  0.00    +0.000 OA
ATOM     18  H   UNL     1      46.912 -38.334  42.338  0.00  0.00    +0.000 HD
ENDBRANCH  14  17
BRANCH  15  19
ATOM     19  O   UNL     1      50.815 -40.685  43.135  0.00  0.00    +0.000 OA
ATOM     20  H   UNL     1      51.676 -40.255  43.024  0.00  0.00    +0.000 HD
ENDBRANCH  15  19
BRANCH  16  21
ATOM     21  O   UNL     1      48.510 -39.734  41.938  0.00  0.00    +0.000 OA
ATOM     22  H   UNL     1      48.136 -40.633  42.008  0.00  0.00    +0.000 HD
ENDBRANCH  16  21
ENDBRANCH   3  11
BRANCH   7  23
ATOM     23  O   UNL     1      50.547 -38.293  52.235  0.00  0.00    +0.000 OA
ATOM     24  H   UNL     1      50.343 -38.067  53.159  0.00  0.00    +0.000 HD
ENDBRANCH   7  23
BRANCH  10  25
ATOM     25  O   UNL     1      46.975 -35.221  51.642  0.00  0.00    +0.000 OA
ATOM     26  H   UNL     1      46.541 -35.621  52.414  0.00  0.00    +0.000 HD
ENDBRANCH  10  25
BRANCH   2  27
ATOM     27  O   UNL     1      49.034 -40.423  48.246  0.00  0.00    +0.000 OA
BRANCH  27  29
ATOM     28  O   UNL     1      49.767 -42.280  47.113  0.00  0.00    +0.000 OA
ATOM     29  C   UNL     1      49.307 -41.739  48.106  0.00  0.00    +0.000 C 
BRANCH  29  30
ATOM     30  C   UNL     1      48.927 -42.466  49.343  0.00  0.00    +0.000 A 
ATOM     31  C   UNL     1      48.391 -41.722  50.405  0.00  0.00    +0.000 A 
ATOM     32  C   UNL     1      49.083 -43.859  49.460  0.00  0.00    +0.000 A 
ATOM     33  C   UNL     1      48.716 -44.497  50.643  0.00  0.00    +0.000 A 
ATOM     34  C   UNL     1      48.034 -42.375  51.578  0.00  0.00    +0.000 A 
ATOM     35  C   UNL     1      48.199 -43.755  51.701  0.00  0.00    +0.000 A 
BRANCH  33  36
ATOM     36  O   UNL     1      48.863 -45.848  50.775  0.00  0.00    +0.000 OA
ATOM     37  H   UNL     1      48.876 -46.262  49.899  0.00  0.00    +0.000 HD
ENDBRANCH  33  36
BRANCH  34  38
ATOM     38  O   UNL     1      47.513 -41.699  52.648  0.00  0.00    +0.000 OA
ATOM     39  H   UNL     1      48.247 -41.343  53.179  0.00  0.00    +0.000 HD
ENDBRANCH  34  38
BRANCH  35  40
ATOM     40  O   UNL     1      47.837 -44.365  52.871  0.00  0.00    +0.000 OA
ATOM     41  H   UNL     1      46.862 -44.312  52.893  0.00  0.00    +0.000 HD
ENDBRANCH  35  40
ENDBRANCH  29  30
ENDBRANCH  27  29
ENDBRANCH   2  27
TORSDOF 12
ENDMDL
MODEL 6
REMARK VINA RESULT:      -7.7      1.463      2.605
REMARK  Name = 
REMARK  12 active torsions:
REMARK  status: ('A' for Active; 'I' for Inactive)
REMARK    1  A    between atoms: O_2  and  C_12
REMARK    2  A    between atoms: O_2  and  C_24
REMARK    3  A    between atoms: O_3  and  C_18
REMARK    4  A    between atoms: O_4  and  C_23
REMARK    5  A    between atoms: O_5  and  C_25
REMARK    6  A    between atoms: O_6  and  C_26
REMARK    7  A    between atoms: O_8  and  C_27
REMARK    8  A    between atoms: O_9  and  C_31
REMARK    9  A    between atoms: O_10  and  C_32
REMARK   10  A    between atoms: O_11  and  C_33
REMARK   11  A    between atoms: C_13  and  C_16
REMARK   12  A    between atoms: C_24  and  C_28
REMARK                            x       y       z     vdW  Elec       q    Type
REMARK                         _______ _______ _______ _____ _____    ______ ____
ROOT
ATOM      1  O   UNL     1      49.282 -47.381  50.290  0.00  0.00    +0.000 OA
ATOM      2  C   UNL     1      48.094 -45.249  49.902  0.00  0.00    +0.000 C 
ATOM      3  C   UNL     1      48.890 -46.419  49.296  0.00  0.00    +0.000 C 
ATOM      4  C   UNL     1      46.809 -45.805  50.512  0.00  0.00    +0.000 C 
ATOM      5  C   UNL     1      47.071 -47.074  51.284  0.00  0.00    +0.000 A 
ATOM      6  C   UNL     1      48.272 -47.778  51.125  0.00  0.00    +0.000 A 
ATOM      7  C   UNL     1      46.107 -47.587  52.160  0.00  0.00    +0.000 A 
ATOM      8  C   UNL     1      48.520 -48.940  51.859  0.00  0.00    +0.000 A 
ATOM      9  C   UNL     1      46.340 -48.753  52.888  0.00  0.00    +0.000 A 
ATOM     10  C   UNL     1      47.549 -49.418  52.733  0.00  0.00    +0.000 A 
ENDROOT
BRANCH   3  11
ATOM     11  C   UNL     1      50.133 -45.932  48.563  0.00  0.00    +0.000 A 
ATOM     12  C   UNL     1      51.410 -46.286  49.040  0.00  0.00    +0.000 A 
ATOM     13  C   UNL     1      50.031 -45.160  47.391  0.00  0.00    +0.000 A 
ATOM     14  C   UNL     1      51.183 -44.755  46.725  0.00  0.00    +0.000 A 
ATOM     15  C   UNL     1      52.558 -45.870  48.362  0.00  0.00    +0.000 A 
ATOM     16  C   UNL     1      52.442 -45.105  47.206  0.00  0.00    +0.000 A 
BRANCH  14  17
ATOM     17  O   UNL     1      51.126 -44.007  45.579  0.00  0.00    +0.000 OA
ATOM     18  H   UNL     1      50.191 -43.887  45.338  0.00  0.00    +0.000 HD
ENDBRANCH  14  17
BRANCH  15  19
ATOM     19  O   UNL     1      53.797 -46.209  48.823  0.00  0.00    +0.000 OA
ATOM     20  H   UNL     1      53.862 -47.172  48.906  0.00  0.00    +0.000 HD
ENDBRANCH  15  19
BRANCH  16  21
ATOM     21  O   UNL     1      53.554 -44.690  46.525  0.00  0.00    +0.000 OA
ATOM     22  H   UNL     1      54.168 -45.447  46.570  0.00  0.00    +0.000 HD
ENDBRANCH  16  21
ENDBRANCH   3  11
BRANCH   7  23
ATOM     23  O   UNL     1      44.922 -46.920  52.293  0.00  0.00    +0.000 OA
ATOM     24  H   UNL     1      44.672 -46.910  53.232  0.00  0.00    +0.000 HD
ENDBRANCH   7  23
BRANCH  10  25
ATOM     25  O   UNL     1      47.746 -50.553  53.462  0.00  0.00    +0.000 OA
ATOM     26  H   UNL     1      47.114 -50.565  54.201  0.00  0.00    +0.000 HD
ENDBRANCH  10  25
BRANCH   2  27
ATOM     27  O   UNL     1      48.876 -44.617  50.947  0.00  0.00    +0.000 OA
BRANCH  27  29
ATOM     28  O   UNL     1      47.791 -43.553  52.667  0.00  0.00    +0.000 OA
ATOM     29  C   UNL     1      48.311 -43.556  51.564  0.00  0.00    +0.000 C 
BRANCH  29  30
ATOM     30  C   UNL     1      48.377 -42.367  50.677  0.00  0.00    +0.000 A 
ATOM     31  C   UNL     1      47.617 -41.240  51.029  0.00  0.00    +0.000 A 
ATOM     32  C   UNL     1      49.178 -42.348  49.522  0.00  0.00    +0.000 A 
ATOM     33  C   UNL     1      49.203 -41.210  48.718  0.00  0.00    +0.000 A 
ATOM     34  C   UNL     1      47.652 -40.116  50.214  0.00  0.00    +0.000 A 
ATOM     35  C   UNL     1      48.437 -40.100  49.061  0.00  0.00    +0.000 A 
BRANCH  33  36
ATOM     36  O   UNL     1      49.974 -41.176  47.591  0.00  0.00    +0.000 OA
ATOM     37  H   UNL     1      50.570 -40.413  47.626  0.00  0.00    +0.000 HD
ENDBRANCH  33  36
BRANCH  34  38
ATOM     38  O   UNL     1      46.927 -38.993  50.505  0.00  0.00    +0.000 OA
ATOM     39  H   UNL     1      47.289 -38.247  49.994  0.00  0.00    +0.000 HD
ENDBRANCH  34  38
BRANCH  35  40
ATOM     40  O   UNL     1      48.448 -38.976  48.281  0.00  0.00    +0.000 OA
ATOM     41  H   UNL     1      48.516 -39.305  47.364  0.00  0.00    +0.000 HD
ENDBRANCH  35  40
ENDBRANCH  29  30
ENDBRANCH  27  29
ENDBRANCH   2  27
TORSDOF 12
ENDMDL
MODEL 7
REMARK VINA RESULT:      -7.6      2.402      5.304
REMARK  Name = 
REMARK  12 active torsions:
REMARK  status: ('A' for Active; 'I' for Inactive)
REMARK    1  A    between atoms: O_2  and  C_12
REMARK    2  A    between atoms: O_2  and  C_24
REMARK    3  A    between atoms: O_3  and  C_18
REMARK    4  A    between atoms: O_4  and  C_23
REMARK    5  A    between atoms: O_5  and  C_25
REMARK    6  A    between atoms: O_6  and  C_26
REMARK    7  A    between atoms: O_8  and  C_27
REMARK    8  A    between atoms: O_9  and  C_31
REMARK    9  A    between atoms: O_10  and  C_32
REMARK   10  A    between atoms: O_11  and  C_33
REMARK   11  A    between atoms: C_13  and  C_16
REMARK   12  A    between atoms: C_24  and  C_28
REMARK                            x       y       z     vdW  Elec       q    Type
REMARK                         _______ _______ _______ _____ _____    ______ ____
ROOT
ATOM      1  O   UNL     1      50.092 -43.421  47.512  0.00  0.00    +0.000 OA
ATOM      2  C   UNL     1      48.181 -43.015  49.025  0.00  0.00    +0.000 C 
ATOM      3  C   UNL     1      48.701 -43.062  47.577  0.00  0.00    +0.000 C 
ATOM      4  C   UNL     1      48.307 -44.414  49.628  0.00  0.00    +0.000 C 
ATOM      5  C   UNL     1      49.630 -45.045  49.278  0.00  0.00    +0.000 A 
ATOM      6  C   UNL     1      50.430 -44.522  48.253  0.00  0.00    +0.000 A 
ATOM      7  C   UNL     1      50.078 -46.185  49.957  0.00  0.00    +0.000 A 
ATOM      8  C   UNL     1      51.665 -45.097  47.947  0.00  0.00    +0.000 A 
ATOM      9  C   UNL     1      51.304 -46.773  49.652  0.00  0.00    +0.000 A 
ATOM     10  C   UNL     1      52.090 -46.219  48.650  0.00  0.00    +0.000 A 
ENDROOT
BRANCH   3  11
ATOM     11  C   UNL     1      48.501 -41.731  46.865  0.00  0.00    +0.000 A 
ATOM     12  C   UNL     1      49.621 -40.964  46.487  0.00  0.00    +0.000 A 
ATOM     13  C   UNL     1      47.213 -41.264  46.543  0.00  0.00    +0.000 A 
ATOM     14  C   UNL     1      47.061 -40.058  45.866  0.00  0.00    +0.000 A 
ATOM     15  C   UNL     1      49.453 -39.755  45.810  0.00  0.00    +0.000 A 
ATOM     16  C   UNL     1      48.174 -39.304  45.500  0.00  0.00    +0.000 A 
BRANCH  14  17
ATOM     17  O   UNL     1      45.826 -39.573  45.530  0.00  0.00    +0.000 OA
ATOM     18  H   UNL     1      45.176 -39.930  46.159  0.00  0.00    +0.000 HD
ENDBRANCH  14  17
BRANCH  15  19
ATOM     19  O   UNL     1      50.536 -39.008  45.444  0.00  0.00    +0.000 OA
ATOM     20  H   UNL     1      50.573 -38.203  45.982  0.00  0.00    +0.000 HD
ENDBRANCH  15  19
BRANCH  16  21
ATOM     21  O   UNL     1      47.988 -38.124  44.834  0.00  0.00    +0.000 OA
ATOM     22  H   UNL     1      48.034 -37.439  45.527  0.00  0.00    +0.000 HD
ENDBRANCH  16  21
ENDBRANCH   3  11
BRANCH   7  23
ATOM     23  O   UNL     1      49.286 -46.716  50.936  0.00  0.00    +0.000 OA
ATOM     24  H   UNL     1      49.816 -46.824  51.743  0.00  0.00    +0.000 HD
ENDBRANCH   7  23
BRANCH  10  25
ATOM     25  O   UNL     1      53.285 -46.817  48.379  0.00  0.00    +0.000 OA
ATOM     26  H   UNL     1      53.881 -46.685  49.136  0.00  0.00    +0.000 HD
ENDBRANCH  10  25
BRANCH   2  27
ATOM     27  O   UNL     1      48.985 -42.093  49.802  0.00  0.00    +0.000 OA
BRANCH  27  29
ATOM     28  O   UNL     1      47.656 -41.655  51.622  0.00  0.00    +0.000 OA
ATOM     29  C   UNL     1      48.320 -41.293  50.665  0.00  0.00    +0.000 C 
BRANCH  29  30
ATOM     30  C   UNL     1      48.479 -39.874  50.258  0.00  0.00    +0.000 A 
ATOM     31  C   UNL     1      47.527 -38.949  50.714  0.00  0.00    +0.000 A 
ATOM     32  C   UNL     1      49.549 -39.452  49.449  0.00  0.00    +0.000 A 
ATOM     33  C   UNL     1      49.653 -38.109  49.089  0.00  0.00    +0.000 A 
ATOM     34  C   UNL     1      47.646 -37.615  50.342  0.00  0.00    +0.000 A 
ATOM     35  C   UNL     1      48.700 -37.196  49.530  0.00  0.00    +0.000 A 
BRANCH  33  36
ATOM     36  O   UNL     1      50.685 -37.682  48.302  0.00  0.00    +0.000 OA
ATOM     37  H   UNL     1      50.650 -38.133  47.446  0.00  0.00    +0.000 HD
ENDBRANCH  33  36
BRANCH  34  38
ATOM     38  O   UNL     1      46.745 -36.671  50.752  0.00  0.00    +0.000 OA
ATOM     39  H   UNL     1      46.139 -36.478  50.015  0.00  0.00    +0.000 HD
ENDBRANCH  34  38
BRANCH  35  40
ATOM     40  O   UNL     1      48.785 -35.875  49.183  0.00  0.00    +0.000 OA
ATOM     41  H   UNL     1      49.565 -35.817  48.597  0.00  0.00    +0.000 HD
ENDBRANCH  35  40
ENDBRANCH  29  30
ENDBRANCH  27  29
ENDBRANCH   2  27
TORSDOF 12
ENDMDL
MODEL 8
REMARK VINA RESULT:      -7.4      2.354      7.872
REMARK  Name = 
REMARK  12 active torsions:
REMARK  status: ('A' for Active; 'I' for Inactive)
REMARK    1  A    between atoms: O_2  and  C_12
REMARK    2  A    between atoms: O_2  and  C_24
REMARK    3  A    between atoms: O_3  and  C_18
REMARK    4  A    between atoms: O_4  and  C_23
REMARK    5  A    between atoms: O_5  and  C_25
REMARK    6  A    between atoms: O_6  and  C_26
REMARK    7  A    between atoms: O_8  and  C_27
REMARK    8  A    between atoms: O_9  and  C_31
REMARK    9  A    between atoms: O_10  and  C_32
REMARK   10  A    between atoms: O_11  and  C_33
REMARK   11  A    between atoms: C_13  and  C_16
REMARK   12  A    between atoms: C_24  and  C_28
REMARK                            x       y       z     vdW  Elec       q    Type
REMARK                         _______ _______ _______ _____ _____    ______ ____
ROOT
ATOM      1  O   UNL     1      47.533 -42.883  50.698  0.00  0.00    +0.000 OA
ATOM      2  C   UNL     1      48.598 -44.142  48.857  0.00  0.00    +0.000 C 
ATOM      3  C   UNL     1      47.321 -43.867  49.671  0.00  0.00    +0.000 C 
ATOM      4  C   UNL     1      49.009 -42.849  48.154  0.00  0.00    +0.000 C 
ATOM      5  C   UNL     1      48.892 -41.662  49.076  0.00  0.00    +0.000 A 
ATOM      6  C   UNL     1      48.167 -41.747  50.272  0.00  0.00    +0.000 A 
ATOM      7  C   UNL     1      49.488 -40.439  48.743  0.00  0.00    +0.000 A 
ATOM      8  C   UNL     1      48.080 -40.651  51.134  0.00  0.00    +0.000 A 
ATOM      9  C   UNL     1      49.398 -39.336  49.589  0.00  0.00    +0.000 A 
ATOM     10  C   UNL     1      48.696 -39.454  50.783  0.00  0.00    +0.000 A 
ENDROOT
BRANCH   3  11
ATOM     11  C   UNL     1      46.779 -45.139  50.310  0.00  0.00    +0.000 A 
ATOM     12  C   UNL     1      46.673 -45.227  51.712  0.00  0.00    +0.000 A 
ATOM     13  C   UNL     1      46.344 -46.222  49.523  0.00  0.00    +0.000 A 
ATOM     14  C   UNL     1      45.825 -47.359  50.133  0.00  0.00    +0.000 A 
ATOM     15  C   UNL     1      46.152 -46.376  52.311  0.00  0.00    +0.000 A 
ATOM     16  C   UNL     1      45.729 -47.439  51.521  0.00  0.00    +0.000 A 
BRANCH  14  17
ATOM     17  O   UNL     1      45.387 -48.431  49.402  0.00  0.00    +0.000 OA
ATOM     18  H   UNL     1      46.135 -49.040  49.275  0.00  0.00    +0.000 HD
ENDBRANCH  14  17
BRANCH  15  19
ATOM     19  O   UNL     1      46.051 -46.465  53.670  0.00  0.00    +0.000 OA
ATOM     20  H   UNL     1      46.862 -46.853  54.031  0.00  0.00    +0.000 HD
ENDBRANCH  15  19
BRANCH  16  21
ATOM     21  O   UNL     1      45.213 -48.572  52.087  0.00  0.00    +0.000 OA
ATOM     22  H   UNL     1      44.247 -48.487  51.974  0.00  0.00    +0.000 HD
ENDBRANCH  16  21
ENDBRANCH   3  11
BRANCH   7  23
ATOM     23  O   UNL     1      50.169 -40.344  47.562  0.00  0.00    +0.000 OA
ATOM     24  H   UNL     1      51.092 -40.611  47.710  0.00  0.00    +0.000 HD
ENDBRANCH   7  23
BRANCH  10  25
ATOM     25  O   UNL     1      48.630 -38.358  51.590  0.00  0.00    +0.000 OA
ATOM     26  H   UNL     1      49.490 -37.903  51.573  0.00  0.00    +0.000 HD
ENDBRANCH  10  25
BRANCH   2  27
ATOM     27  O   UNL     1      49.665 -44.552  49.749  0.00  0.00    +0.000 OA
BRANCH  27  29
ATOM     28  O   UNL     1      51.513 -45.385  48.672  0.00  0.00    +0.000 OA
ATOM     29  C   UNL     1      50.479 -45.533  49.302  0.00  0.00    +0.000 C 
BRANCH  29  30
ATOM     30  C   UNL     1      49.912 -46.858  49.659  0.00  0.00    +0.000 A 
ATOM     31  C   UNL     1      49.686 -47.133  51.017  0.00  0.00    +0.000 A 
ATOM     32  C   UNL     1      49.595 -47.815  48.680  0.00  0.00    +0.000 A 
ATOM     33  C   UNL     1      49.069 -49.048  49.063  0.00  0.00    +0.000 A 
ATOM     34  C   UNL     1      49.164 -48.368  51.381  0.00  0.00    +0.000 A 
ATOM     35  C   UNL     1      48.860 -49.324  50.411  0.00  0.00    +0.000 A 
BRANCH  33  36
ATOM     36  O   UNL     1      48.758 -49.990  48.125  0.00  0.00    +0.000 OA
ATOM     37  H   UNL     1      49.091 -50.855  48.409  0.00  0.00    +0.000 HD
ENDBRANCH  33  36
BRANCH  34  38
ATOM     38  O   UNL     1      48.929 -48.692  52.689  0.00  0.00    +0.000 OA
ATOM     39  H   UNL     1      48.179 -49.312  52.727  0.00  0.00    +0.000 HD
ENDBRANCH  34  38
BRANCH  35  40
ATOM     40  O   UNL     1      48.347 -50.529  50.806  0.00  0.00    +0.000 OA
ATOM     41  H   UNL     1      48.659 -51.169  50.137  0.00  0.00    +0.000 HD
ENDBRANCH  35  40
ENDBRANCH  29  30
ENDBRANCH  27  29
ENDBRANCH   2  27
TORSDOF 12
ENDMDL
MODEL 9
REMARK VINA RESULT:      -7.3      4.223      7.739
REMARK  Name = 
REMARK  12 active torsions:
REMARK  status: ('A' for Active; 'I' for Inactive)
REMARK    1  A    between atoms: O_2  and  C_12
REMARK    2  A    between atoms: O_2  and  C_24
REMARK    3  A    between atoms: O_3  and  C_18
REMARK    4  A    between atoms: O_4  and  C_23
REMARK    5  A    between atoms: O_5  and  C_25
REMARK    6  A    between atoms: O_6  and  C_26
REMARK    7  A    between atoms: O_8  and  C_27
REMARK    8  A    between atoms: O_9  and  C_31
REMARK    9  A    between atoms: O_10  and  C_32
REMARK   10  A    between atoms: O_11  and  C_33
REMARK   11  A    between atoms: C_13  and  C_16
REMARK   12  A    between atoms: C_24  and  C_28
REMARK                            x       y       z     vdW  Elec       q    Type
REMARK                         _______ _______ _______ _____ _____    ______ ____
ROOT
ATOM      1  O   UNL     1      46.916 -48.259  52.555  0.00  0.00    +0.000 OA
ATOM      2  C   UNL     1      45.575 -48.207  50.480  0.00  0.00    +0.000 C 
ATOM      3  C   UNL     1      46.930 -47.932  51.155  0.00  0.00    +0.000 C 
ATOM      4  C   UNL     1      45.280 -49.703  50.582  0.00  0.00    +0.000 C 
ATOM      5  C   UNL     1      45.609 -50.234  51.955  0.00  0.00    +0.000 A 
ATOM      6  C   UNL     1      46.399 -49.494  52.843  0.00  0.00    +0.000 A 
ATOM      7  C   UNL     1      45.148 -51.492  52.360  0.00  0.00    +0.000 A 
ATOM      8  C   UNL     1      46.682 -49.980  54.122  0.00  0.00    +0.000 A 
ATOM      9  C   UNL     1      45.434 -51.992  53.629  0.00  0.00    +0.000 A 
ATOM     10  C   UNL     1      46.198 -51.227  54.502  0.00  0.00    +0.000 A 
ENDROOT
BRANCH   3  11
ATOM     11  C   UNL     1      47.354 -46.478  50.992  0.00  0.00    +0.000 A 
ATOM     12  C   UNL     1      47.527 -45.668  52.131  0.00  0.00    +0.000 A 
ATOM     13  C   UNL     1      47.611 -45.932  49.720  0.00  0.00    +0.000 A 
ATOM     14  C   UNL     1      48.026 -44.610  49.604  0.00  0.00    +0.000 A 
ATOM     15  C   UNL     1      47.941 -44.341  51.999  0.00  0.00    +0.000 A 
ATOM     16  C   UNL     1      48.190 -43.814  50.736  0.00  0.00    +0.000 A 
BRANCH  14  17
ATOM     17  O   UNL     1      48.292 -44.044  48.385  0.00  0.00    +0.000 OA
ATOM     18  H   UNL     1      49.255 -44.037  48.255  0.00  0.00    +0.000 HD
ENDBRANCH  14  17
BRANCH  15  19
ATOM     19  O   UNL     1      48.108 -43.553  53.101  0.00  0.00    +0.000 OA
ATOM     20  H   UNL     1      47.435 -43.772  53.763  0.00  0.00    +0.000 HD
ENDBRANCH  15  19
BRANCH  16  21
ATOM     21  O   UNL     1      48.600 -42.518  50.584  0.00  0.00    +0.000 OA
ATOM     22  H   UNL     1      49.553 -42.533  50.796  0.00  0.00    +0.000 HD
ENDBRANCH  16  21
ENDBRANCH   3  11
BRANCH   7  23
ATOM     23  O   UNL     1      44.403 -52.230  51.484  0.00  0.00    +0.000 OA
ATOM     24  H   UNL     1      44.333 -51.744  50.645  0.00  0.00    +0.000 HD
ENDBRANCH   7  23
BRANCH  10  25
ATOM     25  O   UNL     1      46.456 -51.744  55.737  0.00  0.00    +0.000 OA
ATOM     26  H   UNL     1      45.711 -52.308  56.004  0.00  0.00    +0.000 HD
ENDBRANCH  10  25
BRANCH   2  27
ATOM     27  O   UNL     1      44.531 -47.473  51.167  0.00  0.00    +0.000 OA
BRANCH  27  29
ATOM     28  O   UNL     1      44.101 -45.818  49.636  0.00  0.00    +0.000 OA
ATOM     29  C   UNL     1      43.735 -46.696  50.400  0.00  0.00    +0.000 C 
BRANCH  29  30
ATOM     30  C   UNL     1      42.311 -47.038  50.645  0.00  0.00    +0.000 A 
ATOM     31  C   UNL     1      41.332 -46.127  50.218  0.00  0.00    +0.000 A 
ATOM     32  C   UNL     1      41.936 -48.238  51.275  0.00  0.00    +0.000 A 
ATOM     33  C   UNL     1      40.587 -48.513  51.489  0.00  0.00    +0.000 A 
ATOM     34  C   UNL     1      39.992 -46.417  50.442  0.00  0.00    +0.000 A 
ATOM     35  C   UNL     1      39.619 -47.601  51.078  0.00  0.00    +0.000 A 
BRANCH  33  36
ATOM     36  O   UNL     1      40.205 -49.672  52.101  0.00  0.00    +0.000 OA
ATOM     37  H   UNL     1      39.530 -49.481  52.769  0.00  0.00    +0.000 HD
ENDBRANCH  33  36
BRANCH  34  38
ATOM     38  O   UNL     1      38.997 -45.563  50.053  0.00  0.00    +0.000 OA
ATOM     39  H   UNL     1      38.408 -46.031  49.435  0.00  0.00    +0.000 HD
ENDBRANCH  34  38
BRANCH  35  40
ATOM     40  O   UNL     1      38.290 -47.854  51.282  0.00  0.00    +0.000 OA
ATOM     41  H   UNL     1      38.175 -47.837  52.252  0.00  0.00    +0.000 HD
ENDBRANCH  35  40
ENDBRANCH  29  30
ENDBRANCH  27  29
ENDBRANCH   2  27
TORSDOF 12
ENDMDL
