MODEL 1
REMARK VINA RESULT:      -6.7      0.000      0.000
REMARK  Name = Estradiol.pdbqt.pdb
REMARK  2 active torsions:
REMARK  status: ('A' for Active; 'I' for Inactive)
REMARK    1  A    between atoms: C_5  and  O_19
REMARK    2  A    between atoms: C_18  and  O_21
REMARK                            x       y       z     vdW  Elec       q    Type
REMARK                         _______ _______ _______ _____ _____    ______ ____
ROOT
ATOM      1  C   UNL     1      47.890 -47.367  51.058  0.00  0.00    +0.000 C 
ATOM      2  C   UNL     1      48.954 -46.738  50.033  0.00  0.00    +0.000 C 
ATOM      3  C   UNL     1      48.994 -45.294  49.756  0.00  0.00    +0.000 A 
ATOM      4  C   UNL     1      48.270 -44.212  50.529  0.00  0.00    +0.000 A 
ATOM      5  C   UNL     1      48.748 -48.359  51.872  0.00  0.00    +0.000 C 
ATOM      6  C   UNL     1      47.374 -46.244  51.843  0.00  0.00    +0.000 C 
ATOM      7  C   UNL     1      50.173 -47.471  50.197  0.00  0.00    +0.000 C 
ATOM      8  C   UNL     1      47.516 -44.762  51.596  0.00  0.00    +0.000 C 
ATOM      9  C   UNL     1      50.064 -48.444  51.343  0.00  0.00    +0.000 C 
ATOM     10  C   UNL     1      49.790 -44.745  48.718  0.00  0.00    +0.000 A 
ATOM     11  C   UNL     1      46.803 -48.121  50.249  0.00  0.00    +0.000 C 
ATOM     12  C   UNL     1      48.346 -42.748  50.207  0.00  0.00    +0.000 A 
ATOM     13  C   UNL     1      49.874 -43.271  48.406  0.00  0.00    +0.000 A 
ATOM     14  C   UNL     1      49.158 -42.275  49.132  0.00  0.00    +0.000 A 
ATOM     15  C   UNL     1      47.621 -41.814  50.948  0.00  0.00    +0.000 A 
ATOM     16  C   UNL     1      49.235 -40.926  48.813  0.00  0.00    +0.000 A 
ATOM     17  C   UNL     1      47.693 -40.457  50.633  0.00  0.00    +0.000 A 
ATOM     18  C   UNL     1      48.495 -40.028  49.573  0.00  0.00    +0.000 A 
ENDROOT
BRANCH   5  19
ATOM     19  O   UNL     1      48.447 -48.720  53.167  0.00  0.00    +0.000 OA
ATOM     20  H   UNL     1      47.954 -49.560  53.202  0.00  0.00    +0.000 HD
ENDBRANCH   5  19
BRANCH  18  21
ATOM     21  O   UNL     1      48.567 -38.702  49.255  0.00  0.00    +0.000 OA
ATOM     22  H   UNL     1      49.390 -38.341  49.631  0.00  0.00    +0.000 HD
ENDBRANCH  18  21
TORSDOF 2
ENDMDL
MODEL 2
REMARK VINA RESULT:      -6.7      1.519      2.209
REMARK  Name = Estradiol.pdbqt.pdb
REMARK  2 active torsions:
REMARK  status: ('A' for Active; 'I' for Inactive)
REMARK    1  A    between atoms: C_5  and  O_19
REMARK    2  A    between atoms: C_18  and  O_21
REMARK                            x       y       z     vdW  Elec       q    Type
REMARK                         _______ _______ _______ _____ _____    ______ ____
ROOT
ATOM      1  C   UNL     1      46.303 -48.421  52.331  0.00  0.00    +0.000 C 
ATOM      2  C   UNL     1      47.548 -48.233  51.334  0.00  0.00    +0.000 C 
ATOM      3  C   UNL     1      48.000 -46.899  50.911  0.00  0.00    +0.000 A 
ATOM      4  C   UNL     1      47.567 -45.575  51.504  0.00  0.00    +0.000 A 
ATOM      5  C   UNL     1      46.812 -49.499  53.310  0.00  0.00    +0.000 C 
ATOM      6  C   UNL     1      46.081 -47.113  52.949  0.00  0.00    +0.000 C 
ATOM      7  C   UNL     1      48.507 -49.242  51.671  0.00  0.00    +0.000 C 
ATOM      8  C   UNL     1      46.639 -45.765  52.559  0.00  0.00    +0.000 C 
ATOM      9  C   UNL     1      48.077 -50.000  52.902  0.00  0.00    +0.000 C 
ATOM     10  C   UNL     1      48.966 -46.717  49.888  0.00  0.00    +0.000 A 
ATOM     11  C   UNL     1      45.090 -48.948  51.520  0.00  0.00    +0.000 C 
ATOM     12  C   UNL     1      48.061 -44.237  51.038  0.00  0.00    +0.000 A 
ATOM     13  C   UNL     1      49.470 -45.371  49.430  0.00  0.00    +0.000 A 
ATOM     14  C   UNL     1      49.024 -44.137  49.987  0.00  0.00    +0.000 A 
ATOM     15  C   UNL     1      47.589 -43.059  51.615  0.00  0.00    +0.000 A 
ATOM     16  C   UNL     1      49.487 -42.909  49.535  0.00  0.00    +0.000 A 
ATOM     17  C   UNL     1      48.049 -41.821  51.166  0.00  0.00    +0.000 A 
ATOM     18  C   UNL     1      48.989 -41.758  50.135  0.00  0.00    +0.000 A 
ENDROOT
BRANCH   5  19
ATOM     19  O   UNL     1      46.360 -49.603  54.608  0.00  0.00    +0.000 OA
ATOM     20  H   UNL     1      45.615 -50.226  54.681  0.00  0.00    +0.000 HD
ENDBRANCH   5  19
BRANCH  18  21
ATOM     21  O   UNL     1      49.441 -40.550  49.686  0.00  0.00    +0.000 OA
ATOM     22  H   UNL     1      49.358 -39.903  50.408  0.00  0.00    +0.000 HD
ENDBRANCH  18  21
TORSDOF 2
ENDMDL
MODEL 3
REMARK VINA RESULT:      -6.7      1.253      2.667
REMARK  Name = Estradiol.pdbqt.pdb
REMARK  2 active torsions:
REMARK  status: ('A' for Active; 'I' for Inactive)
REMARK    1  A    between atoms: C_5  and  O_19
REMARK    2  A    between atoms: C_18  and  O_21
REMARK                            x       y       z     vdW  Elec       q    Type
REMARK                         _______ _______ _______ _____ _____    ______ ____
ROOT
ATOM      1  C   UNL     1      49.585 -47.543  50.667  0.00  0.00    +0.000 C 
ATOM      2  C   UNL     1      48.661 -46.590  51.571  0.00  0.00    +0.000 C 
ATOM      3  C   UNL     1      48.541 -45.150  51.294  0.00  0.00    +0.000 A 
ATOM      4  C   UNL     1      49.023 -44.432  50.052  0.00  0.00    +0.000 A 
ATOM      5  C   UNL     1      48.692 -48.785  50.461  0.00  0.00    +0.000 C 
ATOM      6  C   UNL     1      49.857 -46.796  49.439  0.00  0.00    +0.000 C 
ATOM      7  C   UNL     1      47.502 -47.351  51.929  0.00  0.00    +0.000 C 
ATOM      8  C   UNL     1      49.628 -45.334  49.141  0.00  0.00    +0.000 C 
ATOM      9  C   UNL     1      47.499 -48.685  51.226  0.00  0.00    +0.000 C 
ATOM     10  C   UNL     1      47.889 -44.261  52.187  0.00  0.00    +0.000 A 
ATOM     11  C   UNL     1      50.858 -47.914  51.473  0.00  0.00    +0.000 C 
ATOM     12  C   UNL     1      48.873 -42.957  49.815  0.00  0.00    +0.000 A 
ATOM     13  C   UNL     1      47.729 -42.781  51.940  0.00  0.00    +0.000 A 
ATOM     14  C   UNL     1      48.219 -42.124  50.773  0.00  0.00    +0.000 A 
ATOM     15  C   UNL     1      49.374 -42.364  48.657  0.00  0.00    +0.000 A 
ATOM     16  C   UNL     1      48.078 -40.757  50.578  0.00  0.00    +0.000 A 
ATOM     17  C   UNL     1      49.236 -40.990  48.454  0.00  0.00    +0.000 A 
ATOM     18  C   UNL     1      48.593 -40.204  49.412  0.00  0.00    +0.000 A 
ENDROOT
BRANCH   5  19
ATOM     19  O   UNL     1      48.797 -49.608  49.361  0.00  0.00    +0.000 OA
ATOM     20  H   UNL     1      47.931 -49.760  48.940  0.00  0.00    +0.000 HD
ENDBRANCH   5  19
BRANCH  18  21
ATOM     21  O   UNL     1      48.459 -38.858  49.223  0.00  0.00    +0.000 OA
ATOM     22  H   UNL     1      47.555 -38.681  48.906  0.00  0.00    +0.000 HD
ENDBRANCH  18  21
TORSDOF 2
ENDMDL
MODEL 4
REMARK VINA RESULT:      -6.6      1.153      6.750
REMARK  Name = Estradiol.pdbqt.pdb
REMARK  2 active torsions:
REMARK  status: ('A' for Active; 'I' for Inactive)
REMARK    1  A    between atoms: C_5  and  O_19
REMARK    2  A    between atoms: C_18  and  O_21
REMARK                            x       y       z     vdW  Elec       q    Type
REMARK                         _______ _______ _______ _____ _____    ______ ____
ROOT
ATOM      1  C   UNL     1      48.611 -41.183  48.835  0.00  0.00    +0.000 C 
ATOM      2  C   UNL     1      47.978 -41.783  50.183  0.00  0.00    +0.000 C 
ATOM      3  C   UNL     1      48.154 -43.196  50.553  0.00  0.00    +0.000 A 
ATOM      4  C   UNL     1      49.107 -44.180  49.909  0.00  0.00    +0.000 A 
ATOM      5  C   UNL     1      49.202 -39.838  49.307  0.00  0.00    +0.000 C 
ATOM      6  C   UNL     1      49.617 -42.152  48.396  0.00  0.00    +0.000 C 
ATOM      7  C   UNL     1      48.082 -40.762  51.183  0.00  0.00    +0.000 C 
ATOM      8  C   UNL     1      49.846 -43.569  48.865  0.00  0.00    +0.000 C 
ATOM      9  C   UNL     1      48.859 -39.580  50.661  0.00  0.00    +0.000 C 
ATOM     10  C   UNL     1      47.448 -43.789  51.631  0.00  0.00    +0.000 A 
ATOM     11  C   UNL     1      47.472 -40.951  47.809  0.00  0.00    +0.000 C 
ATOM     12  C   UNL     1      49.252 -45.615  50.326  0.00  0.00    +0.000 A 
ATOM     13  C   UNL     1      47.605 -45.228  52.056  0.00  0.00    +0.000 A 
ATOM     14  C   UNL     1      48.490 -46.142  51.412  0.00  0.00    +0.000 A 
ATOM     15  C   UNL     1      50.130 -46.469  49.659  0.00  0.00    +0.000 A 
ATOM     16  C   UNL     1      48.602 -47.468  51.808  0.00  0.00    +0.000 A 
ATOM     17  C   UNL     1      50.248 -47.802  50.051  0.00  0.00    +0.000 A 
ATOM     18  C   UNL     1      49.486 -48.287  51.116  0.00  0.00    +0.000 A 
ENDROOT
BRANCH   5  19
ATOM     19  O   UNL     1      50.275 -39.234  48.688  0.00  0.00    +0.000 OA
ATOM     20  H   UNL     1      51.123 -39.591  49.009  0.00  0.00    +0.000 HD
ENDBRANCH   5  19
BRANCH  18  21
ATOM     21  O   UNL     1      49.593 -49.593  51.502  0.00  0.00    +0.000 OA
ATOM     22  H   UNL     1      50.428 -49.701  51.991  0.00  0.00    +0.000 HD
ENDBRANCH  18  21
TORSDOF 2
ENDMDL
MODEL 5
REMARK VINA RESULT:      -6.4     14.113     16.663
REMARK  Name = Estradiol.pdbqt.pdb
REMARK  2 active torsions:
REMARK  status: ('A' for Active; 'I' for Inactive)
REMARK    1  A    between atoms: C_5  and  O_19
REMARK    2  A    between atoms: C_18  and  O_21
REMARK                            x       y       z     vdW  Elec       q    Type
REMARK                         _______ _______ _______ _____ _____    ______ ____
ROOT
ATOM      1  C   UNL     1      61.268 -46.797  59.789  0.00  0.00    +0.000 C 
ATOM      2  C   UNL     1      60.303 -47.759  58.940  0.00  0.00    +0.000 C 
ATOM      3  C   UNL     1      59.545 -48.846  59.578  0.00  0.00    +0.000 A 
ATOM      4  C   UNL     1      59.361 -49.058  61.066  0.00  0.00    +0.000 A 
ATOM      5  C   UNL     1      60.931 -45.398  59.230  0.00  0.00    +0.000 C 
ATOM      6  C   UNL     1      60.891 -46.983  61.191  0.00  0.00    +0.000 C 
ATOM      7  C   UNL     1      59.682 -46.945  57.937  0.00  0.00    +0.000 C 
ATOM      8  C   UNL     1      60.024 -48.052  61.813  0.00  0.00    +0.000 C 
ATOM      9  C   UNL     1      60.038 -45.493  58.130  0.00  0.00    +0.000 C 
ATOM     10  C   UNL     1      58.843 -49.822  58.825  0.00  0.00    +0.000 A 
ATOM     11  C   UNL     1      62.741 -47.169  59.479  0.00  0.00    +0.000 C 
ATOM     12  C   UNL     1      58.575 -50.186  61.669  0.00  0.00    +0.000 A 
ATOM     13  C   UNL     1      58.042 -50.946  59.434  0.00  0.00    +0.000 A 
ATOM     14  C   UNL     1      57.909 -51.140  60.840  0.00  0.00    +0.000 A 
ATOM     15  C   UNL     1      58.479 -50.331  63.053  0.00  0.00    +0.000 A 
ATOM     16  C   UNL     1      57.184 -52.194  61.378  0.00  0.00    +0.000 A 
ATOM     17  C   UNL     1      57.752 -51.389  63.600  0.00  0.00    +0.000 A 
ATOM     18  C   UNL     1      57.116 -52.306  62.762  0.00  0.00    +0.000 A 
ENDROOT
BRANCH   5  19
ATOM     19  O   UNL     1      61.073 -44.243  59.969  0.00  0.00    +0.000 OA
ATOM     20  H   UNL     1      60.802 -44.372  60.896  0.00  0.00    +0.000 HD
ENDBRANCH   5  19
BRANCH  18  21
ATOM     21  O   UNL     1      56.406 -53.347  63.290  0.00  0.00    +0.000 OA
ATOM     22  H   UNL     1      55.464 -53.101  63.303  0.00  0.00    +0.000 HD
ENDBRANCH  18  21
TORSDOF 2
ENDMDL
MODEL 6
REMARK VINA RESULT:      -6.2      3.441      4.914
REMARK  Name = Estradiol.pdbqt.pdb
REMARK  2 active torsions:
REMARK  status: ('A' for Active; 'I' for Inactive)
REMARK    1  A    between atoms: C_5  and  O_19
REMARK    2  A    between atoms: C_18  and  O_21
REMARK                            x       y       z     vdW  Elec       q    Type
REMARK                         _______ _______ _______ _____ _____    ______ ____
ROOT
ATOM      1  C   UNL     1      52.481 -46.593  46.966  0.00  0.00    +0.000 C 
ATOM      2  C   UNL     1      51.336 -47.248  47.882  0.00  0.00    +0.000 C 
ATOM      3  C   UNL     1      50.455 -46.420  48.720  0.00  0.00    +0.000 A 
ATOM      4  C   UNL     1      50.320 -44.913  48.665  0.00  0.00    +0.000 A 
ATOM      5  C   UNL     1      52.334 -47.362  45.636  0.00  0.00    +0.000 C 
ATOM      6  C   UNL     1      52.155 -45.169  46.868  0.00  0.00    +0.000 C 
ATOM      7  C   UNL     1      50.796 -48.352  47.146  0.00  0.00    +0.000 C 
ATOM      8  C   UNL     1      51.168 -44.359  47.674  0.00  0.00    +0.000 C 
ATOM      9  C   UNL     1      51.380 -48.408  45.758  0.00  0.00    +0.000 C 
ATOM     10  C   UNL     1      49.572 -46.985  49.676  0.00  0.00    +0.000 A 
ATOM     11  C   UNL     1      53.861 -46.879  47.613  0.00  0.00    +0.000 C 
ATOM     12  C   UNL     1      49.403 -44.113  49.543  0.00  0.00    +0.000 A 
ATOM     13  C   UNL     1      48.642 -46.179  50.548  0.00  0.00    +0.000 A 
ATOM     14  C   UNL     1      48.555 -44.757  50.496  0.00  0.00    +0.000 A 
ATOM     15  C   UNL     1      49.359 -42.722  49.454  0.00  0.00    +0.000 A 
ATOM     16  C   UNL     1      47.706 -44.035  51.324  0.00  0.00    +0.000 A 
ATOM     17  C   UNL     1      48.509 -41.990  50.283  0.00  0.00    +0.000 A 
ATOM     18  C   UNL     1      47.695 -42.650  51.205  0.00  0.00    +0.000 A 
ENDROOT
BRANCH   5  19
ATOM     19  O   UNL     1      52.692 -46.826  44.418  0.00  0.00    +0.000 OA
ATOM     20  H   UNL     1      53.650 -46.657  44.366  0.00  0.00    +0.000 HD
ENDBRANCH   5  19
BRANCH  18  21
ATOM     21  O   UNL     1      46.863 -41.940  52.024  0.00  0.00    +0.000 OA
ATOM     22  H   UNL     1      46.121 -41.604  51.490  0.00  0.00    +0.000 HD
ENDBRANCH  18  21
TORSDOF 2
ENDMDL
MODEL 7
REMARK VINA RESULT:      -6.2      4.847      7.558
REMARK  Name = Estradiol.pdbqt.pdb
REMARK  2 active torsions:
REMARK  status: ('A' for Active; 'I' for Inactive)
REMARK    1  A    between atoms: C_5  and  O_19
REMARK    2  A    between atoms: C_18  and  O_21
REMARK                            x       y       z     vdW  Elec       q    Type
REMARK                         _______ _______ _______ _____ _____    ______ ____
ROOT
ATOM      1  C   UNL     1      40.662 -47.710  50.432  0.00  0.00    +0.000 C 
ATOM      2  C   UNL     1      41.703 -48.928  50.533  0.00  0.00    +0.000 C 
ATOM      3  C   UNL     1      43.126 -48.701  50.827  0.00  0.00    +0.000 A 
ATOM      4  C   UNL     1      43.748 -47.406  51.303  0.00  0.00    +0.000 A 
ATOM      5  C   UNL     1      39.444 -48.237  51.219  0.00  0.00    +0.000 C 
ATOM      6  C   UNL     1      41.322 -46.562  51.056  0.00  0.00    +0.000 C 
ATOM      7  C   UNL     1      41.008 -50.019  51.151  0.00  0.00    +0.000 C 
ATOM      8  C   UNL     1      42.771 -46.390  51.445  0.00  0.00    +0.000 C 
ATOM      9  C   UNL     1      39.635 -49.591  51.602  0.00  0.00    +0.000 C 
ATOM     10  C   UNL     1      44.092 -49.736  50.731  0.00  0.00    +0.000 A 
ATOM     11  C   UNL     1      40.296 -47.490  48.941  0.00  0.00    +0.000 C 
ATOM     12  C   UNL     1      45.211 -47.226  51.592  0.00  0.00    +0.000 A 
ATOM     13  C   UNL     1      45.559 -49.555  51.035  0.00  0.00    +0.000 A 
ATOM     14  C   UNL     1      46.124 -48.315  51.454  0.00  0.00    +0.000 A 
ATOM     15  C   UNL     1      45.713 -45.989  51.997  0.00  0.00    +0.000 A 
ATOM     16  C   UNL     1      47.481 -48.167  51.708  0.00  0.00    +0.000 A 
ATOM     17  C   UNL     1      47.075 -45.834  52.253  0.00  0.00    +0.000 A 
ATOM     18  C   UNL     1      47.942 -46.918  52.106  0.00  0.00    +0.000 A 
ENDROOT
BRANCH   5  19
ATOM     19  O   UNL     1      38.552 -47.406  51.862  0.00  0.00    +0.000 OA
ATOM     20  H   UNL     1      38.808 -46.470  51.780  0.00  0.00    +0.000 HD
ENDBRANCH   5  19
BRANCH  18  21
ATOM     21  O   UNL     1      49.278 -46.772  52.350  0.00  0.00    +0.000 OA
ATOM     22  H   UNL     1      49.735 -46.654  51.499  0.00  0.00    +0.000 HD
ENDBRANCH  18  21
TORSDOF 2
ENDMDL
MODEL 8
REMARK VINA RESULT:      -6.2      3.978      6.314
REMARK  Name = Estradiol.pdbqt.pdb
REMARK  2 active torsions:
REMARK  status: ('A' for Active; 'I' for Inactive)
REMARK    1  A    between atoms: C_5  and  O_19
REMARK    2  A    between atoms: C_18  and  O_21
REMARK                            x       y       z     vdW  Elec       q    Type
REMARK                         _______ _______ _______ _____ _____    ______ ____
ROOT
ATOM      1  C   UNL     1      46.995 -53.090  53.473  0.00  0.00    +0.000 C 
ATOM      2  C   UNL     1      48.198 -52.320  52.739  0.00  0.00    +0.000 C 
ATOM      3  C   UNL     1      48.131 -50.878  52.459  0.00  0.00    +0.000 A 
ATOM      4  C   UNL     1      47.110 -49.904  53.007  0.00  0.00    +0.000 A 
ATOM      5  C   UNL     1      47.735 -53.982  54.492  0.00  0.00    +0.000 C 
ATOM      6  C   UNL     1      46.166 -52.050  54.085  0.00  0.00    +0.000 C 
ATOM      7  C   UNL     1      49.417 -52.902  53.216  0.00  0.00    +0.000 C 
ATOM      8  C   UNL     1      46.184 -50.558  53.858  0.00  0.00    +0.000 C 
ATOM      9  C   UNL     1      49.141 -53.898  54.314  0.00  0.00    +0.000 C 
ATOM     10  C   UNL     1      49.090 -50.220  51.646  0.00  0.00    +0.000 A 
ATOM     11  C   UNL     1      46.247 -53.958  52.429  0.00  0.00    +0.000 C 
ATOM     12  C   UNL     1      47.086 -48.437  52.692  0.00  0.00    +0.000 A 
ATOM     13  C   UNL     1      49.070 -48.743  51.341  0.00  0.00    +0.000 A 
ATOM     14  C   UNL     1      48.079 -47.852  51.848  0.00  0.00    +0.000 A 
ATOM     15  C   UNL     1      46.090 -47.610  53.211  0.00  0.00    +0.000 A 
ATOM     16  C   UNL     1      48.069 -46.499  51.537  0.00  0.00    +0.000 A 
ATOM     17  C   UNL     1      46.074 -46.249  52.903  0.00  0.00    +0.000 A 
ATOM     18  C   UNL     1      47.058 -45.710  52.072  0.00  0.00    +0.000 A 
ENDROOT
BRANCH   5  19
ATOM     19  O   UNL     1      47.164 -54.397  55.676  0.00  0.00    +0.000 OA
ATOM     20  H   UNL     1      47.824 -54.785  56.278  0.00  0.00    +0.000 HD
ENDBRANCH   5  19
BRANCH  18  21
ATOM     21  O   UNL     1      47.047 -44.380  51.762  0.00  0.00    +0.000 OA
ATOM     22  H   UNL     1      46.573 -44.265  50.919  0.00  0.00    +0.000 HD
ENDBRANCH  18  21
TORSDOF 2
ENDMDL
MODEL 9
REMARK VINA RESULT:      -6.1      3.146      5.838
REMARK  Name = Estradiol.pdbqt.pdb
REMARK  2 active torsions:
REMARK  status: ('A' for Active; 'I' for Inactive)
REMARK    1  A    between atoms: C_5  and  O_19
REMARK    2  A    between atoms: C_18  and  O_21
REMARK                            x       y       z     vdW  Elec       q    Type
REMARK                         _______ _______ _______ _____ _____    ______ ____
ROOT
ATOM      1  C   UNL     1      52.314 -46.054  47.687  0.00  0.00    +0.000 C 
ATOM      2  C   UNL     1      51.303 -47.296  47.810  0.00  0.00    +0.000 C 
ATOM      3  C   UNL     1      50.230 -47.316  48.816  0.00  0.00    +0.000 A 
ATOM      4  C   UNL     1      49.772 -46.148  49.663  0.00  0.00    +0.000 A 
ATOM      5  C   UNL     1      52.393 -45.831  46.162  0.00  0.00    +0.000 C 
ATOM      6  C   UNL     1      51.690 -44.951  48.419  0.00  0.00    +0.000 C 
ATOM      7  C   UNL     1      51.047 -47.758  46.479  0.00  0.00    +0.000 C 
ATOM      8  C   UNL     1      50.519 -44.979  49.371  0.00  0.00    +0.000 C 
ATOM      9  C   UNL     1      51.686 -46.845  45.463  0.00  0.00    +0.000 C 
ATOM     10  C   UNL     1      49.453 -48.475  49.070  0.00  0.00    +0.000 A 
ATOM     11  C   UNL     1      53.696 -46.479  48.249  0.00  0.00    +0.000 C 
ATOM     12  C   UNL     1      48.667 -46.219  50.677  0.00  0.00    +0.000 A 
ATOM     13  C   UNL     1      48.335 -48.540  50.080  0.00  0.00    +0.000 A 
ATOM     14  C   UNL     1      47.942 -47.432  50.886  0.00  0.00    +0.000 A 
ATOM     15  C   UNL     1      48.325 -45.104  51.443  0.00  0.00    +0.000 A 
ATOM     16  C   UNL     1      46.923 -47.521  51.825  0.00  0.00    +0.000 A 
ATOM     17  C   UNL     1      47.303 -45.188  52.388  0.00  0.00    +0.000 A 
ATOM     18  C   UNL     1      46.615 -46.389  52.569  0.00  0.00    +0.000 A 
ENDROOT
BRANCH   5  19
ATOM     19  O   UNL     1      52.674 -44.604  45.599  0.00  0.00    +0.000 OA
ATOM     20  H   UNL     1      52.031 -44.370  44.907  0.00  0.00    +0.000 HD
ENDBRANCH   5  19
BRANCH  18  21
ATOM     21  O   UNL     1      45.616 -46.479  53.496  0.00  0.00    +0.000 OA
ATOM     22  H   UNL     1      44.762 -46.422  53.033  0.00  0.00    +0.000 HD
ENDBRANCH  18  21
TORSDOF 2
ENDMDL
