MODEL 1
REMARK VINA RESULT:      -9.2      0.000      0.000
REMARK  Name = 
REMARK  11 active torsions:
REMARK  status: ('A' for Active; 'I' for Inactive)
REMARK    1  A    between atoms: O_1  and  C_16
REMARK    2  A    between atoms: O_1  and  C_22
REMARK    3  A    between atoms: O_6  and  C_24
REMARK    4  A    between atoms: O_8  and  C_26
REMARK    5  A    between atoms: O_11  and  C_36
REMARK    6  A    between atoms: O_11  and  C_41
REMARK    7  A    between atoms: O_12  and  C_37
REMARK    8  A    between atoms: O_12  and  C_42
REMARK    9  A    between atoms: O_13  and  C_39
REMARK   10  A    between atoms: C_17  and  C_23
REMARK   11  A    between atoms: C_35  and  C_40
REMARK                            x       y       z     vdW  Elec       q    Type
REMARK                         _______ _______ _______ _____ _____    ______ ____
ROOT
ATOM      1  O   UNL     1      48.799 -39.843  44.348  0.00  0.00    +0.000 OA
ATOM      2  O   UNL     1      47.503 -37.980  44.021  0.00  0.00    +0.000 OA
ATOM      3  O   UNL     1      49.777 -37.438  52.349  0.00  0.00    +0.000 OA
ATOM      4  O   UNL     1      48.821 -35.402  51.479  0.00  0.00    +0.000 OA
ATOM      5  C   UNL     1      49.536 -39.414  46.502  0.00  0.00    +0.000 C 
ATOM      6  C   UNL     1      48.316 -38.553  46.240  0.00  0.00    +0.000 C 
ATOM      7  C   UNL     1      49.625 -39.772  47.980  0.00  0.00    +0.000 C 
ATOM      8  C   UNL     1      48.491 -37.161  46.847  0.00  0.00    +0.000 C 
ATOM      9  C   UNL     1      49.406 -38.537  48.853  0.00  0.00    +0.000 A 
ATOM     10  C   UNL     1      48.839 -37.325  48.337  0.00  0.00    +0.000 A 
ATOM     11  C   UNL     1      49.319 -40.522  45.503  0.00  0.00    +0.000 C 
ATOM     12  C   UNL     1      48.162 -38.697  44.755  0.00  0.00    +0.000 C 
ATOM     13  C   UNL     1      49.739 -38.616  50.218  0.00  0.00    +0.000 A 
ATOM     14  C   UNL     1      48.622 -36.229  49.196  0.00  0.00    +0.000 A 
ATOM     15  C   UNL     1      49.508 -37.518  51.019  0.00  0.00    +0.000 A 
ATOM     16  C   UNL     1      48.965 -36.360  50.523  0.00  0.00    +0.000 A 
ATOM     17  C   UNL     1      49.340 -36.093  52.634  0.00  0.00    +0.000 C 
ENDROOT
BRANCH   8  18
ATOM     18  C   UNL     1      49.466 -36.249  46.099  0.00  0.00    +0.000 A 
ATOM     19  C   UNL     1      49.864 -36.483  44.771  0.00  0.00    +0.000 A 
ATOM     20  C   UNL     1      49.984 -35.118  46.752  0.00  0.00    +0.000 A 
ATOM     21  C   UNL     1      50.847 -34.242  46.092  0.00  0.00    +0.000 A 
ATOM     22  C   UNL     1      50.746 -35.629  44.093  0.00  0.00    +0.000 A 
ATOM     23  C   UNL     1      51.231 -34.508  44.766  0.00  0.00    +0.000 A 
BRANCH  21  24
ATOM     24  O   UNL     1      51.390 -33.099  46.631  0.00  0.00    +0.000 OA
ATOM     25  C   UNL     1      50.550 -31.948  46.647  0.00  0.00    +0.000 C 
ENDBRANCH  21  24
BRANCH  22  26
ATOM     26  O   UNL     1      51.001 -36.035  42.811  0.00  0.00    +0.000 OA
ATOM     27  C   UNL     1      50.812 -37.407  42.496  0.00  0.00    +0.000 C 
ENDBRANCH  22  26
BRANCH  23  28
ATOM     28  O   UNL     1      52.087 -33.615  44.170  0.00  0.00    +0.000 OA
ATOM     29  H   UNL     1      51.775 -32.736  44.460  0.00  0.00    +0.000 HD
ENDBRANCH  23  28
ENDBRANCH   8  18
BRANCH   7  30
ATOM     30  O   UNL     1      48.585 -40.694  48.310  0.00  0.00    +0.000 OA
BRANCH  30  34
ATOM     31  O   UNL     1      49.503 -42.834  48.524  0.00  0.00    +0.000 OA
ATOM     32  O   UNL     1      49.052 -45.481  51.038  0.00  0.00    +0.000 OA
ATOM     33  O   UNL     1      50.806 -46.105  49.581  0.00  0.00    +0.000 OA
ATOM     34  C   UNL     1      49.002 -41.702  49.239  0.00  0.00    +0.000 C 
ATOM     35  C   UNL     1      47.768 -42.056  50.101  0.00  0.00    +0.000 C 
ATOM     36  C   UNL     1      48.668 -44.406  50.174  0.00  0.00    +0.000 C 
ATOM     37  C   UNL     1      48.047 -43.274  50.993  0.00  0.00    +0.000 C 
ATOM     38  C   UNL     1      49.883 -43.876  49.418  0.00  0.00    +0.000 C 
ATOM     39  C   UNL     1      50.505 -45.050  48.669  0.00  0.00    +0.000 C 
ATOM     40  C   UNL     1      49.639 -46.542  50.278  0.00  0.00    +0.000 C 
ATOM     41  C   UNL     1      50.051 -47.636  51.246  0.00  0.00    +0.000 C 
BRANCH  35  42
ATOM     42  O   UNL     1      47.420 -40.921  50.912  0.00  0.00    +0.000 OA
ATOM     43  H   UNL     1      47.864 -40.152  50.505  0.00  0.00    +0.000 HD
ENDBRANCH  35  42
BRANCH  37  44
ATOM     44  O   UNL     1      46.823 -43.752  51.575  0.00  0.00    +0.000 OA
ATOM     45  H   UNL     1      46.519 -43.047  52.177  0.00  0.00    +0.000 HD
ENDBRANCH  37  44
ENDBRANCH  30  34
ENDBRANCH   7  30
TORSDOF 8
ENDMDL
MODEL 2
REMARK VINA RESULT:      -8.9      3.911      8.740
REMARK  Name = 
REMARK  11 active torsions:
REMARK  status: ('A' for Active; 'I' for Inactive)
REMARK    1  A    between atoms: O_1  and  C_16
REMARK    2  A    between atoms: O_1  and  C_22
REMARK    3  A    between atoms: O_6  and  C_24
REMARK    4  A    between atoms: O_8  and  C_26
REMARK    5  A    between atoms: O_11  and  C_36
REMARK    6  A    between atoms: O_11  and  C_41
REMARK    7  A    between atoms: O_12  and  C_37
REMARK    8  A    between atoms: O_12  and  C_42
REMARK    9  A    between atoms: O_13  and  C_39
REMARK   10  A    between atoms: C_17  and  C_23
REMARK   11  A    between atoms: C_35  and  C_40
REMARK                            x       y       z     vdW  Elec       q    Type
REMARK                         _______ _______ _______ _____ _____    ______ ____
ROOT
ATOM      1  O   UNL     1      46.401 -44.757  51.944  0.00  0.00    +0.000 OA
ATOM      2  O   UNL     1      47.787 -42.953  52.231  0.00  0.00    +0.000 OA
ATOM      3  O   UNL     1      52.103 -47.974  46.663  0.00  0.00    +0.000 OA
ATOM      4  O   UNL     1      52.996 -45.740  46.836  0.00  0.00    +0.000 OA
ATOM      5  C   UNL     1      47.550 -45.850  50.255  0.00  0.00    +0.000 C 
ATOM      6  C   UNL     1      48.501 -44.872  50.918  0.00  0.00    +0.000 C 
ATOM      7  C   UNL     1      48.314 -47.054  49.721  0.00  0.00    +0.000 C 
ATOM      8  C   UNL     1      49.392 -44.191  49.879  0.00  0.00    +0.000 C 
ATOM      9  C   UNL     1      49.556 -46.612  48.949  0.00  0.00    +0.000 A 
ATOM     10  C   UNL     1      50.088 -45.284  49.050  0.00  0.00    +0.000 A 
ATOM     11  C   UNL     1      46.547 -46.063  51.361  0.00  0.00    +0.000 C 
ATOM     12  C   UNL     1      47.556 -44.044  51.736  0.00  0.00    +0.000 C 
ATOM     13  C   UNL     1      50.215 -47.560  48.144  0.00  0.00    +0.000 A 
ATOM     14  C   UNL     1      51.260 -44.941  48.345  0.00  0.00    +0.000 A 
ATOM     15  C   UNL     1      51.358 -47.178  47.475  0.00  0.00    +0.000 A 
ATOM     16  C   UNL     1      51.866 -45.907  47.574  0.00  0.00    +0.000 A 
ATOM     17  C   UNL     1      53.140 -47.054  46.259  0.00  0.00    +0.000 C 
ENDROOT
BRANCH   8  18
ATOM     18  C   UNL     1      48.691 -43.138  49.018  0.00  0.00    +0.000 A 
ATOM     19  C   UNL     1      47.687 -43.458  48.087  0.00  0.00    +0.000 A 
ATOM     20  C   UNL     1      49.047 -41.787  49.164  0.00  0.00    +0.000 A 
ATOM     21  C   UNL     1      48.406 -40.793  48.424  0.00  0.00    +0.000 A 
ATOM     22  C   UNL     1      47.043 -42.480  47.316  0.00  0.00    +0.000 A 
ATOM     23  C   UNL     1      47.412 -41.146  47.495  0.00  0.00    +0.000 A 
BRANCH  21  24
ATOM     24  O   UNL     1      48.663 -39.444  48.508  0.00  0.00    +0.000 OA
ATOM     25  C   UNL     1      50.035 -39.068  48.598  0.00  0.00    +0.000 C 
ENDBRANCH  21  24
BRANCH  22  26
ATOM     26  O   UNL     1      46.098 -43.001  46.475  0.00  0.00    +0.000 OA
ATOM     27  C   UNL     1      45.521 -44.253  46.814  0.00  0.00    +0.000 C 
ENDBRANCH  22  26
BRANCH  23  28
ATOM     28  O   UNL     1      46.820 -40.127  46.792  0.00  0.00    +0.000 OA
ATOM     29  H   UNL     1      45.917 -40.058  47.159  0.00  0.00    +0.000 HD
ENDBRANCH  23  28
ENDBRANCH   8  18
BRANCH   7  30
ATOM     30  O   UNL     1      48.775 -47.848  50.816  0.00  0.00    +0.000 OA
BRANCH  30  34
ATOM     31  O   UNL     1      47.744 -48.909  52.626  0.00  0.00    +0.000 OA
ATOM     32  O   UNL     1      46.543 -52.350  53.122  0.00  0.00    +0.000 OA
ATOM     33  O   UNL     1      45.847 -51.030  54.954  0.00  0.00    +0.000 OA
ATOM     34  C   UNL     1      47.844 -48.867  51.201  0.00  0.00    +0.000 C 
ATOM     35  C   UNL     1      48.368 -50.198  50.613  0.00  0.00    +0.000 C 
ATOM     36  C   UNL     1      47.415 -51.314  52.659  0.00  0.00    +0.000 C 
ATOM     37  C   UNL     1      47.558 -51.392  51.138  0.00  0.00    +0.000 C 
ATOM     38  C   UNL     1      46.860 -49.946  53.046  0.00  0.00    +0.000 C 
ATOM     39  C   UNL     1      46.675 -49.937  54.559  0.00  0.00    +0.000 C 
ATOM     40  C   UNL     1      46.401 -52.280  54.544  0.00  0.00    +0.000 C 
ATOM     41  C   UNL     1      45.447 -53.380  54.973  0.00  0.00    +0.000 C 
BRANCH  35  42
ATOM     42  O   UNL     1      48.289 -50.143  49.179  0.00  0.00    +0.000 OA
ATOM     43  H   UNL     1      47.883 -50.986  48.899  0.00  0.00    +0.000 HD
ENDBRANCH  35  42
BRANCH  37  44
ATOM     44  O   UNL     1      48.219 -52.624  50.807  0.00  0.00    +0.000 OA
ATOM     45  H   UNL     1      49.026 -52.650  51.355  0.00  0.00    +0.000 HD
ENDBRANCH  37  44
ENDBRANCH  30  34
ENDBRANCH   7  30
TORSDOF 8
ENDMDL
MODEL 3
REMARK VINA RESULT:      -8.9      3.744      8.761
REMARK  Name = 
REMARK  11 active torsions:
REMARK  status: ('A' for Active; 'I' for Inactive)
REMARK    1  A    between atoms: O_1  and  C_16
REMARK    2  A    between atoms: O_1  and  C_22
REMARK    3  A    between atoms: O_6  and  C_24
REMARK    4  A    between atoms: O_8  and  C_26
REMARK    5  A    between atoms: O_11  and  C_36
REMARK    6  A    between atoms: O_11  and  C_41
REMARK    7  A    between atoms: O_12  and  C_37
REMARK    8  A    between atoms: O_12  and  C_42
REMARK    9  A    between atoms: O_13  and  C_39
REMARK   10  A    between atoms: C_17  and  C_23
REMARK   11  A    between atoms: C_35  and  C_40
REMARK                            x       y       z     vdW  Elec       q    Type
REMARK                         _______ _______ _______ _____ _____    ______ ____
ROOT
ATOM      1  O   UNL     1      46.415 -44.617  51.962  0.00  0.00    +0.000 OA
ATOM      2  O   UNL     1      47.814 -42.833  52.302  0.00  0.00    +0.000 OA
ATOM      3  O   UNL     1      52.154 -47.779  46.687  0.00  0.00    +0.000 OA
ATOM      4  O   UNL     1      53.065 -45.558  46.917  0.00  0.00    +0.000 OA
ATOM      5  C   UNL     1      47.575 -45.686  50.265  0.00  0.00    +0.000 C 
ATOM      6  C   UNL     1      48.526 -44.731  50.959  0.00  0.00    +0.000 C 
ATOM      7  C   UNL     1      48.335 -46.887  49.717  0.00  0.00    +0.000 C 
ATOM      8  C   UNL     1      49.437 -44.038  49.946  0.00  0.00    +0.000 C 
ATOM      9  C   UNL     1      49.590 -46.440  48.969  0.00  0.00    +0.000 A 
ATOM     10  C   UNL     1      50.133 -45.120  49.103  0.00  0.00    +0.000 A 
ATOM     11  C   UNL     1      46.557 -45.912  51.354  0.00  0.00    +0.000 C 
ATOM     12  C   UNL     1      47.579 -43.911  51.783  0.00  0.00    +0.000 C 
ATOM     13  C   UNL     1      50.251 -47.378  48.153  0.00  0.00    +0.000 A 
ATOM     14  C   UNL     1      51.317 -44.774  48.421  0.00  0.00    +0.000 A 
ATOM     15  C   UNL     1      51.406 -46.993  47.506  0.00  0.00    +0.000 A 
ATOM     16  C   UNL     1      51.924 -45.730  47.637  0.00  0.00    +0.000 A 
ATOM     17  C   UNL     1      53.204 -46.862  46.315  0.00  0.00    +0.000 C 
ENDROOT
BRANCH   8  18
ATOM     18  C   UNL     1      48.756 -42.961  49.098  0.00  0.00    +0.000 A 
ATOM     19  C   UNL     1      48.995 -41.586  49.275  0.00  0.00    +0.000 A 
ATOM     20  C   UNL     1      47.861 -43.349  48.087  0.00  0.00    +0.000 A 
ATOM     21  C   UNL     1      47.249 -42.398  47.269  0.00  0.00    +0.000 A 
ATOM     22  C   UNL     1      48.376 -40.612  48.479  0.00  0.00    +0.000 A 
ATOM     23  C   UNL     1      47.503 -41.032  47.476  0.00  0.00    +0.000 A 
BRANCH  21  24
ATOM     24  O   UNL     1      46.378 -42.674  46.240  0.00  0.00    +0.000 OA
ATOM     25  C   UNL     1      45.299 -43.553  46.545  0.00  0.00    +0.000 C 
ENDBRANCH  21  24
BRANCH  22  26
ATOM     26  O   UNL     1      48.746 -39.337  48.814  0.00  0.00    +0.000 OA
ATOM     27  C   UNL     1      49.865 -38.771  48.147  0.00  0.00    +0.000 C 
ENDBRANCH  22  26
BRANCH  23  28
ATOM     28  O   UNL     1      46.868 -40.143  46.645  0.00  0.00    +0.000 OA
ATOM     29  H   UNL     1      45.918 -40.233  46.858  0.00  0.00    +0.000 HD
ENDBRANCH  23  28
ENDBRANCH   8  18
BRANCH   7  30
ATOM     30  O   UNL     1      48.774 -47.707  50.800  0.00  0.00    +0.000 OA
BRANCH  30  34
ATOM     31  O   UNL     1      47.747 -48.822  52.580  0.00  0.00    +0.000 OA
ATOM     32  O   UNL     1      46.479 -52.254  52.950  0.00  0.00    +0.000 OA
ATOM     33  O   UNL     1      45.838 -50.998  54.846  0.00  0.00    +0.000 OA
ATOM     34  C   UNL     1      47.828 -48.722  51.157  0.00  0.00    +0.000 C 
ATOM     35  C   UNL     1      48.314 -50.037  50.506  0.00  0.00    +0.000 C 
ATOM     36  C   UNL     1      47.367 -51.218  52.517  0.00  0.00    +0.000 C 
ATOM     37  C   UNL     1      47.486 -51.235  50.993  0.00  0.00    +0.000 C 
ATOM     38  C   UNL     1      46.848 -49.856  52.970  0.00  0.00    +0.000 C 
ATOM     39  C   UNL     1      46.684 -49.908  54.485  0.00  0.00    +0.000 C 
ATOM     40  C   UNL     1      46.359 -52.241  54.375  0.00  0.00    +0.000 C 
ATOM     41  C   UNL     1      45.388 -53.338  54.772  0.00  0.00    +0.000 C 
BRANCH  35  42
ATOM     42  O   UNL     1      48.216 -49.920  49.076  0.00  0.00    +0.000 OA
ATOM     43  H   UNL     1      48.576 -50.752  48.713  0.00  0.00    +0.000 HD
ENDBRANCH  35  42
BRANCH  37  44
ATOM     44  O   UNL     1      48.115 -52.465  50.600  0.00  0.00    +0.000 OA
ATOM     45  H   UNL     1      49.042 -52.399  50.899  0.00  0.00    +0.000 HD
ENDBRANCH  37  44
ENDBRANCH  30  34
ENDBRANCH   7  30
TORSDOF 8
ENDMDL
MODEL 4
REMARK VINA RESULT:      -8.7      5.958     10.433
REMARK  Name = 
REMARK  11 active torsions:
REMARK  status: ('A' for Active; 'I' for Inactive)
REMARK    1  A    between atoms: O_1  and  C_16
REMARK    2  A    between atoms: O_1  and  C_22
REMARK    3  A    between atoms: O_6  and  C_24
REMARK    4  A    between atoms: O_8  and  C_26
REMARK    5  A    between atoms: O_11  and  C_36
REMARK    6  A    between atoms: O_11  and  C_41
REMARK    7  A    between atoms: O_12  and  C_37
REMARK    8  A    between atoms: O_12  and  C_42
REMARK    9  A    between atoms: O_13  and  C_39
REMARK   10  A    between atoms: C_17  and  C_23
REMARK   11  A    between atoms: C_35  and  C_40
REMARK                            x       y       z     vdW  Elec       q    Type
REMARK                         _______ _______ _______ _____ _____    ______ ____
ROOT
ATOM      1  O   UNL     1      47.681 -50.016  48.955  0.00  0.00    +0.000 OA
ATOM      2  O   UNL     1      46.563 -50.084  50.956  0.00  0.00    +0.000 OA
ATOM      3  O   UNL     1      48.776 -41.761  50.143  0.00  0.00    +0.000 OA
ATOM      4  O   UNL     1      47.147 -42.158  51.876  0.00  0.00    +0.000 OA
ATOM      5  C   UNL     1      47.960 -47.725  48.758  0.00  0.00    +0.000 C 
ATOM      6  C   UNL     1      47.647 -48.040  50.208  0.00  0.00    +0.000 C 
ATOM      7  C   UNL     1      48.847 -46.490  48.662  0.00  0.00    +0.000 C 
ATOM      8  C   UNL     1      46.714 -46.987  50.804  0.00  0.00    +0.000 C 
ATOM      9  C   UNL     1      48.313 -45.368  49.552  0.00  0.00    +0.000 A 
ATOM     10  C   UNL     1      47.344 -45.601  50.582  0.00  0.00    +0.000 A 
ATOM     11  C   UNL     1      48.514 -49.048  48.294  0.00  0.00    +0.000 C 
ATOM     12  C   UNL     1      47.189 -49.464  50.112  0.00  0.00    +0.000 C 
ATOM     13  C   UNL     1      48.827 -44.070  49.369  0.00  0.00    +0.000 A 
ATOM     14  C   UNL     1      46.916 -44.536  51.399  0.00  0.00    +0.000 A 
ATOM     15  C   UNL     1      48.378 -43.060  50.194  0.00  0.00    +0.000 A 
ATOM     16  C   UNL     1      47.452 -43.286  51.180  0.00  0.00    +0.000 A 
ATOM     17  C   UNL     1      47.989 -41.194  51.211  0.00  0.00    +0.000 C 
ENDROOT
BRANCH   8  18
ATOM     18  C   UNL     1      45.261 -47.070  50.330  0.00  0.00    +0.000 A 
ATOM     19  C   UNL     1      44.298 -47.877  50.961  0.00  0.00    +0.000 A 
ATOM     20  C   UNL     1      44.856 -46.302  49.225  0.00  0.00    +0.000 A 
ATOM     21  C   UNL     1      43.532 -46.323  48.786  0.00  0.00    +0.000 A 
ATOM     22  C   UNL     1      42.966 -47.931  50.525  0.00  0.00    +0.000 A 
ATOM     23  C   UNL     1      42.594 -47.146  49.433  0.00  0.00    +0.000 A 
BRANCH  21  24
ATOM     24  O   UNL     1      43.030 -45.594  47.733  0.00  0.00    +0.000 OA
ATOM     25  C   UNL     1      43.921 -45.360  46.645  0.00  0.00    +0.000 C 
ENDBRANCH  21  24
BRANCH  22  26
ATOM     26  O   UNL     1      42.193 -48.774  51.276  0.00  0.00    +0.000 OA
ATOM     27  C   UNL     1      42.132 -50.141  50.894  0.00  0.00    +0.000 C 
ENDBRANCH  22  26
BRANCH  23  28
ATOM     28  O   UNL     1      41.309 -47.129  48.952  0.00  0.00    +0.000 OA
ATOM     29  H   UNL     1      41.284 -47.833  48.275  0.00  0.00    +0.000 HD
ENDBRANCH  23  28
ENDBRANCH   8  18
BRANCH   7  30
ATOM     30  O   UNL     1      50.154 -46.805  49.143  0.00  0.00    +0.000 OA
BRANCH  30  34
ATOM     31  O   UNL     1      51.423 -47.843  47.476  0.00  0.00    +0.000 OA
ATOM     32  O   UNL     1      54.842 -47.268  46.248  0.00  0.00    +0.000 OA
ATOM     33  O   UNL     1      53.776 -48.827  44.828  0.00  0.00    +0.000 OA
ATOM     34  C   UNL     1      51.177 -46.611  48.158  0.00  0.00    +0.000 C 
ATOM     35  C   UNL     1      52.429 -46.098  48.905  0.00  0.00    +0.000 C 
ATOM     36  C   UNL     1      53.789 -47.370  47.213  0.00  0.00    +0.000 C 
ATOM     37  C   UNL     1      53.650 -46.052  47.975  0.00  0.00    +0.000 C 
ATOM     38  C   UNL     1      52.470 -47.697  46.519  0.00  0.00    +0.000 C 
ATOM     39  C   UNL     1      52.675 -48.981  45.722  0.00  0.00    +0.000 C 
ATOM     40  C   UNL     1      54.975 -48.497  45.527  0.00  0.00    +0.000 C 
ATOM     41  C   UNL     1      56.083 -48.320  44.505  0.00  0.00    +0.000 C 
BRANCH  35  42
ATOM     42  O   UNL     1      52.160 -44.786  49.428  0.00  0.00    +0.000 OA
ATOM     43  H   UNL     1      52.823 -44.634  50.129  0.00  0.00    +0.000 HD
ENDBRANCH  35  42
BRANCH  37  44
ATOM     44  O   UNL     1      54.848 -45.841  48.740  0.00  0.00    +0.000 OA
ATOM     45  H   UNL     1      54.571 -45.361  49.544  0.00  0.00    +0.000 HD
ENDBRANCH  37  44
ENDBRANCH  30  34
ENDBRANCH   7  30
TORSDOF 8
ENDMDL
MODEL 5
REMARK VINA RESULT:      -8.7      5.427     10.613
REMARK  Name = 
REMARK  11 active torsions:
REMARK  status: ('A' for Active; 'I' for Inactive)
REMARK    1  A    between atoms: O_1  and  C_16
REMARK    2  A    between atoms: O_1  and  C_22
REMARK    3  A    between atoms: O_6  and  C_24
REMARK    4  A    between atoms: O_8  and  C_26
REMARK    5  A    between atoms: O_11  and  C_36
REMARK    6  A    between atoms: O_11  and  C_41
REMARK    7  A    between atoms: O_12  and  C_37
REMARK    8  A    between atoms: O_12  and  C_42
REMARK    9  A    between atoms: O_13  and  C_39
REMARK   10  A    between atoms: C_17  and  C_23
REMARK   11  A    between atoms: C_35  and  C_40
REMARK                            x       y       z     vdW  Elec       q    Type
REMARK                         _______ _______ _______ _____ _____    ______ ____
ROOT
ATOM      1  O   UNL     1      50.138 -48.644  51.022  0.00  0.00    +0.000 OA
ATOM      2  O   UNL     1      50.302 -48.002  48.828  0.00  0.00    +0.000 OA
ATOM      3  O   UNL     1      41.927 -46.853  50.663  0.00  0.00    +0.000 OA
ATOM      4  O   UNL     1      42.610 -45.816  48.595  0.00  0.00    +0.000 OA
ATOM      5  C   UNL     1      47.942 -48.030  51.431  0.00  0.00    +0.000 C 
ATOM      6  C   UNL     1      48.137 -48.117  49.929  0.00  0.00    +0.000 C 
ATOM      7  C   UNL     1      46.504 -48.375  51.799  0.00  0.00    +0.000 C 
ATOM      8  C   UNL     1      47.395 -46.986  49.218  0.00  0.00    +0.000 C 
ATOM      9  C   UNL     1      45.519 -47.637  50.894  0.00  0.00    +0.000 A 
ATOM     10  C   UNL     1      45.923 -47.019  49.665  0.00  0.00    +0.000 A 
ATOM     11  C   UNL     1      49.047 -48.935  51.912  0.00  0.00    +0.000 C 
ATOM     12  C   UNL     1      49.631 -48.199  49.827  0.00  0.00    +0.000 C 
ATOM     13  C   UNL     1      44.163 -47.602  51.270  0.00  0.00    +0.000 A 
ATOM     14  C   UNL     1      44.964 -46.385  48.848  0.00  0.00    +0.000 A 
ATOM     15  C   UNL     1      43.263 -46.971  50.439  0.00  0.00    +0.000 A 
ATOM     16  C   UNL     1      43.651 -46.381  49.263  0.00  0.00    +0.000 A 
ATOM     17  C   UNL     1      41.519 -46.118  49.490  0.00  0.00    +0.000 C 
ENDROOT
BRANCH   8  18
ATOM     18  C   UNL     1      48.036 -45.604  49.360  0.00  0.00    +0.000 A 
ATOM     19  C   UNL     1      47.951 -44.841  50.538  0.00  0.00    +0.000 A 
ATOM     20  C   UNL     1      48.754 -45.068  48.278  0.00  0.00    +0.000 A 
ATOM     21  C   UNL     1      49.383 -43.826  48.381  0.00  0.00    +0.000 A 
ATOM     22  C   UNL     1      48.557 -43.582  50.658  0.00  0.00    +0.000 A 
ATOM     23  C   UNL     1      49.274 -43.084  49.569  0.00  0.00    +0.000 A 
BRANCH  21  24
ATOM     24  O   UNL     1      50.127 -43.225  47.392  0.00  0.00    +0.000 OA
ATOM     25  C   UNL     1      49.393 -42.592  46.347  0.00  0.00    +0.000 C 
ENDBRANCH  21  24
BRANCH  22  26
ATOM     26  O   UNL     1      48.356 -43.008  51.884  0.00  0.00    +0.000 OA
ATOM     27  C   UNL     1      47.647 -41.779  51.937  0.00  0.00    +0.000 C 
ENDBRANCH  22  26
BRANCH  23  28
ATOM     28  O   UNL     1      49.908 -41.868  49.610  0.00  0.00    +0.000 OA
ATOM     29  H   UNL     1      49.209 -41.213  49.422  0.00  0.00    +0.000 HD
ENDBRANCH  23  28
ENDBRANCH   8  18
BRANCH   7  30
ATOM     30  O   UNL     1      46.282 -49.770  51.593  0.00  0.00    +0.000 OA
BRANCH  30  34
ATOM     31  O   UNL     1      46.724 -50.932  53.573  0.00  0.00    +0.000 OA
ATOM     32  O   UNL     1      44.890 -53.575  55.356  0.00  0.00    +0.000 OA
ATOM     33  O   UNL     1      46.686 -52.849  56.710  0.00  0.00    +0.000 OA
ATOM     34  C   UNL     1      45.693 -50.419  52.727  0.00  0.00    +0.000 C 
ATOM     35  C   UNL     1      44.778 -51.538  52.178  0.00  0.00    +0.000 C 
ATOM     36  C   UNL     1      45.404 -52.861  54.226  0.00  0.00    +0.000 C 
ATOM     37  C   UNL     1      44.256 -52.432  53.312  0.00  0.00    +0.000 C 
ATOM     38  C   UNL     1      46.172 -51.626  54.688  0.00  0.00    +0.000 C 
ATOM     39  C   UNL     1      47.263 -52.095  55.645  0.00  0.00    +0.000 C 
ATOM     40  C   UNL     1      45.959 -53.975  56.218  0.00  0.00    +0.000 C 
ATOM     41  C   UNL     1      45.354 -54.699  57.407  0.00  0.00    +0.000 C 
BRANCH  35  42
ATOM     42  O   UNL     1      43.675 -50.942  51.474  0.00  0.00    +0.000 OA
ATOM     43  H   UNL     1      44.047 -50.183  50.984  0.00  0.00    +0.000 HD
ENDBRANCH  35  42
BRANCH  37  44
ATOM     44  O   UNL     1      43.642 -53.613  52.770  0.00  0.00    +0.000 OA
ATOM     45  H   UNL     1      42.691 -53.537  52.974  0.00  0.00    +0.000 HD
ENDBRANCH  37  44
ENDBRANCH  30  34
ENDBRANCH   7  30
TORSDOF 8
ENDMDL
MODEL 6
REMARK VINA RESULT:      -8.6      2.590      9.082
REMARK  Name = 
REMARK  11 active torsions:
REMARK  status: ('A' for Active; 'I' for Inactive)
REMARK    1  A    between atoms: O_1  and  C_16
REMARK    2  A    between atoms: O_1  and  C_22
REMARK    3  A    between atoms: O_6  and  C_24
REMARK    4  A    between atoms: O_8  and  C_26
REMARK    5  A    between atoms: O_11  and  C_36
REMARK    6  A    between atoms: O_11  and  C_41
REMARK    7  A    between atoms: O_12  and  C_37
REMARK    8  A    between atoms: O_12  and  C_42
REMARK    9  A    between atoms: O_13  and  C_39
REMARK   10  A    between atoms: C_17  and  C_23
REMARK   11  A    between atoms: C_35  and  C_40
REMARK                            x       y       z     vdW  Elec       q    Type
REMARK                         _______ _______ _______ _____ _____    ______ ____
ROOT
ATOM      1  O   UNL     1      49.240 -39.324  43.649  0.00  0.00    +0.000 OA
ATOM      2  O   UNL     1      50.695 -40.864  44.523  0.00  0.00    +0.000 OA
ATOM      3  O   UNL     1      48.797 -35.799  51.273  0.00  0.00    +0.000 OA
ATOM      4  O   UNL     1      49.911 -37.847  51.891  0.00  0.00    +0.000 OA
ATOM      5  C   UNL     1      48.628 -38.235  45.600  0.00  0.00    +0.000 C 
ATOM      6  C   UNL     1      49.915 -38.993  45.865  0.00  0.00    +0.000 C 
ATOM      7  C   UNL     1      48.561 -36.984  46.468  0.00  0.00    +0.000 C 
ATOM      8  C   UNL     1      49.897 -39.626  47.255  0.00  0.00    +0.000 C 
ATOM      9  C   UNL     1      48.930 -37.306  47.915  0.00  0.00    +0.000 A 
ATOM     10  C   UNL     1      49.591 -38.524  48.284  0.00  0.00    +0.000 A 
ATOM     11  C   UNL     1      48.700 -38.071  44.103  0.00  0.00    +0.000 C 
ATOM     12  C   UNL     1      49.999 -39.872  44.653  0.00  0.00    +0.000 C 
ATOM     13  C   UNL     1      48.641 -36.350  48.907  0.00  0.00    +0.000 A 
ATOM     14  C   UNL     1      49.944 -38.752  49.630  0.00  0.00    +0.000 A 
ATOM     15  C   UNL     1      49.007 -36.617  50.208  0.00  0.00    +0.000 A 
ATOM     16  C   UNL     1      49.640 -37.783  50.559  0.00  0.00    +0.000 A 
ATOM     17  C   UNL     1      49.372 -36.586  52.338  0.00  0.00    +0.000 C 
ENDROOT
BRANCH   8  18
ATOM     18  C   UNL     1      48.987 -40.848  47.395  0.00  0.00    +0.000 A 
ATOM     19  C   UNL     1      47.681 -40.892  46.874  0.00  0.00    +0.000 A 
ATOM     20  C   UNL     1      49.469 -41.989  48.060  0.00  0.00    +0.000 A 
ATOM     21  C   UNL     1      48.683 -43.136  48.176  0.00  0.00    +0.000 A 
ATOM     22  C   UNL     1      46.865 -42.025  46.997  0.00  0.00    +0.000 A 
ATOM     23  C   UNL     1      47.380 -43.145  47.652  0.00  0.00    +0.000 A 
BRANCH  21  24
ATOM     24  O   UNL     1      49.068 -44.308  48.785  0.00  0.00    +0.000 OA
ATOM     25  C   UNL     1      50.470 -44.505  48.945  0.00  0.00    +0.000 C 
ENDBRANCH  21  24
BRANCH  22  26
ATOM     26  O   UNL     1      45.635 -41.861  46.421  0.00  0.00    +0.000 OA
ATOM     27  C   UNL     1      45.582 -41.380  45.086  0.00  0.00    +0.000 C 
ENDBRANCH  22  26
BRANCH  23  28
ATOM     28  O   UNL     1      46.651 -44.299  47.801  0.00  0.00    +0.000 OA
ATOM     29  H   UNL     1      46.390 -44.311  48.742  0.00  0.00    +0.000 HD
ENDBRANCH  23  28
ENDBRANCH   8  18
BRANCH   7  30
ATOM     30  O   UNL     1      49.518 -36.031  46.004  0.00  0.00    +0.000 OA
BRANCH  30  34
ATOM     31  O   UNL     1      48.200 -34.676  44.628  0.00  0.00    +0.000 OA
ATOM     32  O   UNL     1      48.269 -31.070  43.907  0.00  0.00    +0.000 OA
ATOM     33  O   UNL     1      46.332 -32.005  42.928  0.00  0.00    +0.000 OA
ATOM     34  C   UNL     1      48.968 -34.720  45.833  0.00  0.00    +0.000 C 
ATOM     35  C   UNL     1      50.159 -33.734  45.802  0.00  0.00    +0.000 C 
ATOM     36  C   UNL     1      48.806 -32.370  44.175  0.00  0.00    +0.000 C 
ATOM     37  C   UNL     1      49.698 -32.321  45.416  0.00  0.00    +0.000 C 
ATOM     38  C   UNL     1      47.676 -33.370  44.402  0.00  0.00    +0.000 C 
ATOM     39  C   UNL     1      46.779 -33.338  43.169  0.00  0.00    +0.000 C 
ATOM     40  C   UNL     1      47.430 -31.110  42.749  0.00  0.00    +0.000 C 
ATOM     41  C   UNL     1      46.869 -29.716  42.531  0.00  0.00    +0.000 C 
BRANCH  35  42
ATOM     42  O   UNL     1      50.784 -33.711  47.096  0.00  0.00    +0.000 OA
ATOM     43  H   UNL     1      51.747 -33.710  46.930  0.00  0.00    +0.000 HD
ENDBRANCH  35  42
BRANCH  37  44
ATOM     44  O   UNL     1      50.835 -31.491  45.126  0.00  0.00    +0.000 OA
ATOM     45  H   UNL     1      51.323 -31.945  44.413  0.00  0.00    +0.000 HD
ENDBRANCH  37  44
ENDBRANCH  30  34
ENDBRANCH   7  30
TORSDOF 8
ENDMDL
MODEL 7
REMARK VINA RESULT:      -8.5      4.268      9.262
REMARK  Name = 
REMARK  11 active torsions:
REMARK  status: ('A' for Active; 'I' for Inactive)
REMARK    1  A    between atoms: O_1  and  C_16
REMARK    2  A    between atoms: O_1  and  C_22
REMARK    3  A    between atoms: O_6  and  C_24
REMARK    4  A    between atoms: O_8  and  C_26
REMARK    5  A    between atoms: O_11  and  C_36
REMARK    6  A    between atoms: O_11  and  C_41
REMARK    7  A    between atoms: O_12  and  C_37
REMARK    8  A    between atoms: O_12  and  C_42
REMARK    9  A    between atoms: O_13  and  C_39
REMARK   10  A    between atoms: C_17  and  C_23
REMARK   11  A    between atoms: C_35  and  C_40
REMARK                            x       y       z     vdW  Elec       q    Type
REMARK                         _______ _______ _______ _____ _____    ______ ____
ROOT
ATOM      1  O   UNL     1      51.191 -46.968  49.701  0.00  0.00    +0.000 OA
ATOM      2  O   UNL     1      51.332 -45.856  47.701  0.00  0.00    +0.000 OA
ATOM      3  O   UNL     1      42.817 -46.768  48.925  0.00  0.00    +0.000 OA
ATOM      4  O   UNL     1      43.375 -45.205  47.176  0.00  0.00    +0.000 OA
ATOM      5  C   UNL     1      48.896 -46.892  50.012  0.00  0.00    +0.000 C 
ATOM      6  C   UNL     1      49.184 -46.619  48.549  0.00  0.00    +0.000 C 
ATOM      7  C   UNL     1      47.545 -47.579  50.168  0.00  0.00    +0.000 C 
ATOM      8  C   UNL     1      48.260 -45.530  48.006  0.00  0.00    +0.000 C 
ATOM      9  C   UNL     1      46.477 -46.872  49.337  0.00  0.00    +0.000 A 
ATOM     10  C   UNL     1      46.806 -45.941  48.297  0.00  0.00    +0.000 A 
ATOM     11  C   UNL     1      50.140 -47.647  50.409  0.00  0.00    +0.000 C 
ATOM     12  C   UNL     1      50.665 -46.387  48.574  0.00  0.00    +0.000 C 
ATOM     13  C   UNL     1      45.125 -47.181  49.583  0.00  0.00    +0.000 A 
ATOM     14  C   UNL     1      45.780 -45.347  47.534  0.00  0.00    +0.000 A 
ATOM     15  C   UNL     1      44.158 -46.575  48.810  0.00  0.00    +0.000 A 
ATOM     16  C   UNL     1      44.476 -45.686  47.815  0.00  0.00    +0.000 A 
ATOM     17  C   UNL     1      42.327 -45.895  47.887  0.00  0.00    +0.000 C 
ENDROOT
BRANCH   8  18
ATOM     18  C   UNL     1      48.589 -44.111  48.477  0.00  0.00    +0.000 A 
ATOM     19  C   UNL     1      48.375 -43.677  49.797  0.00  0.00    +0.000 A 
ATOM     20  C   UNL     1      49.141 -43.198  47.563  0.00  0.00    +0.000 A 
ATOM     21  C   UNL     1      49.489 -41.907  47.964  0.00  0.00    +0.000 A 
ATOM     22  C   UNL     1      48.696 -42.378  50.217  0.00  0.00    +0.000 A 
ATOM     23  C   UNL     1      49.256 -41.500  49.288  0.00  0.00    +0.000 A 
BRANCH  21  24
ATOM     24  O   UNL     1      50.054 -40.947  47.157  0.00  0.00    +0.000 OA
ATOM     25  C   UNL     1      49.402 -40.704  45.913  0.00  0.00    +0.000 C 
ENDBRANCH  21  24
BRANCH  22  26
ATOM     26  O   UNL     1      48.412 -42.159  51.538  0.00  0.00    +0.000 OA
ATOM     27  C   UNL     1      48.088 -43.282  52.345  0.00  0.00    +0.000 C 
ENDBRANCH  22  26
BRANCH  23  28
ATOM     28  O   UNL     1      49.612 -40.217  49.622  0.00  0.00    +0.000 OA
ATOM     29  H   UNL     1      49.312 -40.105  50.545  0.00  0.00    +0.000 HD
ENDBRANCH  23  28
ENDBRANCH   8  18
BRANCH   7  30
ATOM     30  O   UNL     1      47.631 -48.915  49.672  0.00  0.00    +0.000 OA
BRANCH  30  34
ATOM     31  O   UNL     1      47.191 -49.412  51.913  0.00  0.00    +0.000 OA
ATOM     32  O   UNL     1      47.056 -52.588  53.765  0.00  0.00    +0.000 OA
ATOM     33  O   UNL     1      46.288 -50.852  55.173  0.00  0.00    +0.000 OA
ATOM     34  C   UNL     1      47.077 -49.885  50.569  0.00  0.00    +0.000 C 
ATOM     35  C   UNL     1      47.857 -51.201  50.346  0.00  0.00    +0.000 C 
ATOM     36  C   UNL     1      47.539 -51.644  52.803  0.00  0.00    +0.000 C 
ATOM     37  C   UNL     1      47.485 -52.252  51.401  0.00  0.00    +0.000 C 
ATOM     38  C   UNL     1      46.691 -50.375  52.838  0.00  0.00    +0.000 C 
ATOM     39  C   UNL     1      46.723 -49.841  54.266  0.00  0.00    +0.000 C 
ATOM     40  C   UNL     1      47.099 -52.023  55.078  0.00  0.00    +0.000 C 
ATOM     41  C   UNL     1      46.551 -53.055  56.048  0.00  0.00    +0.000 C 
BRANCH  35  42
ATOM     42  O   UNL     1      47.568 -51.702  49.030  0.00  0.00    +0.000 OA
ATOM     43  H   UNL     1      47.746 -52.662  49.062  0.00  0.00    +0.000 HD
ENDBRANCH  35  42
BRANCH  37  44
ATOM     44  O   UNL     1      48.404 -53.355  51.349  0.00  0.00    +0.000 OA
ATOM     45  H   UNL     1      47.981 -54.081  51.845  0.00  0.00    +0.000 HD
ENDBRANCH  37  44
ENDBRANCH  30  34
ENDBRANCH   7  30
TORSDOF 8
ENDMDL
MODEL 8
REMARK VINA RESULT:      -8.4      3.470     11.156
REMARK  Name = 
REMARK  11 active torsions:
REMARK  status: ('A' for Active; 'I' for Inactive)
REMARK    1  A    between atoms: O_1  and  C_16
REMARK    2  A    between atoms: O_1  and  C_22
REMARK    3  A    between atoms: O_6  and  C_24
REMARK    4  A    between atoms: O_8  and  C_26
REMARK    5  A    between atoms: O_11  and  C_36
REMARK    6  A    between atoms: O_11  and  C_41
REMARK    7  A    between atoms: O_12  and  C_37
REMARK    8  A    between atoms: O_12  and  C_42
REMARK    9  A    between atoms: O_13  and  C_39
REMARK   10  A    between atoms: C_17  and  C_23
REMARK   11  A    between atoms: C_35  and  C_40
REMARK                            x       y       z     vdW  Elec       q    Type
REMARK                         _______ _______ _______ _____ _____    ______ ____
ROOT
ATOM      1  O   UNL     1      45.324 -46.430  48.222  0.00  0.00    +0.000 OA
ATOM      2  O   UNL     1      45.797 -48.126  46.753  0.00  0.00    +0.000 OA
ATOM      3  O   UNL     1      53.590 -44.989  48.819  0.00  0.00    +0.000 OA
ATOM      4  O   UNL     1      53.679 -47.114  47.681  0.00  0.00    +0.000 OA
ATOM      5  C   UNL     1      47.479 -45.887  48.876  0.00  0.00    +0.000 C 
ATOM      6  C   UNL     1      47.561 -46.671  47.581  0.00  0.00    +0.000 C 
ATOM      7  C   UNL     1      48.637 -44.902  48.975  0.00  0.00    +0.000 C 
ATOM      8  C   UNL     1      48.742 -47.641  47.607  0.00  0.00    +0.000 C 
ATOM      9  C   UNL     1      49.959 -45.581  48.619  0.00  0.00    +0.000 A 
ATOM     10  C   UNL     1      50.014 -46.845  47.944  0.00  0.00    +0.000 A 
ATOM     11  C   UNL     1      46.075 -45.343  48.788  0.00  0.00    +0.000 C 
ATOM     12  C   UNL     1      46.166 -47.209  47.467  0.00  0.00    +0.000 C 
ATOM     13  C   UNL     1      51.158 -44.915  48.936  0.00  0.00    +0.000 A 
ATOM     14  C   UNL     1      51.262 -47.406  47.604  0.00  0.00    +0.000 A 
ATOM     15  C   UNL     1      52.354 -45.504  48.583  0.00  0.00    +0.000 A 
ATOM     16  C   UNL     1      52.404 -46.713  47.936  0.00  0.00    +0.000 A 
ATOM     17  C   UNL     1      54.426 -46.016  48.246  0.00  0.00    +0.000 C 
ENDROOT
BRANCH   8  18
ATOM     18  C   UNL     1      48.548 -48.870  48.499  0.00  0.00    +0.000 A 
ATOM     19  C   UNL     1      48.478 -48.791  49.901  0.00  0.00    +0.000 A 
ATOM     20  C   UNL     1      48.421 -50.136  47.903  0.00  0.00    +0.000 A 
ATOM     21  C   UNL     1      48.207 -51.275  48.680  0.00  0.00    +0.000 A 
ATOM     22  C   UNL     1      48.284 -49.924  50.704  0.00  0.00    +0.000 A 
ATOM     23  C   UNL     1      48.149 -51.164  50.079  0.00  0.00    +0.000 A 
BRANCH  21  24
ATOM     24  O   UNL     1      48.047 -52.552  48.195  0.00  0.00    +0.000 OA
ATOM     25  C   UNL     1      48.929 -52.945  47.146  0.00  0.00    +0.000 C 
ENDBRANCH  21  24
BRANCH  22  26
ATOM     26  O   UNL     1      48.244 -49.630  52.040  0.00  0.00    +0.000 OA
ATOM     27  C   UNL     1      47.269 -48.700  52.489  0.00  0.00    +0.000 C 
ENDBRANCH  22  26
BRANCH  23  28
ATOM     28  O   UNL     1      47.942 -52.319  50.791  0.00  0.00    +0.000 OA
ATOM     29  H   UNL     1      46.972 -52.429  50.817  0.00  0.00    +0.000 HD
ENDBRANCH  23  28
ENDBRANCH   8  18
BRANCH   7  30
ATOM     30  O   UNL     1      48.450 -43.851  48.027  0.00  0.00    +0.000 OA
BRANCH  30  34
ATOM     31  O   UNL     1      48.155 -41.991  49.413  0.00  0.00    +0.000 OA
ATOM     32  O   UNL     1      49.162 -38.469  49.077  0.00  0.00    +0.000 OA
ATOM     33  O   UNL     1      48.296 -38.809  51.250  0.00  0.00    +0.000 OA
ATOM     34  C   UNL     1      49.016 -42.605  48.451  0.00  0.00    +0.000 C 
ATOM     35  C   UNL     1      49.188 -41.736  47.184  0.00  0.00    +0.000 C 
ATOM     36  C   UNL     1      48.688 -39.750  48.647  0.00  0.00    +0.000 C 
ATOM     37  C   UNL     1      49.596 -40.301  47.547  0.00  0.00    +0.000 C 
ATOM     38  C   UNL     1      48.666 -40.725  49.821  0.00  0.00    +0.000 C 
ATOM     39  C   UNL     1      47.803 -40.106  50.916  0.00  0.00    +0.000 C 
ATOM     40  C   UNL     1      48.319 -37.950  50.110  0.00  0.00    +0.000 C 
ATOM     41  C   UNL     1      48.884 -36.610  50.544  0.00  0.00    +0.000 C 
BRANCH  35  42
ATOM     42  O   UNL     1      50.186 -42.331  46.337  0.00  0.00    +0.000 OA
ATOM     43  H   UNL     1      50.206 -41.790  45.523  0.00  0.00    +0.000 HD
ENDBRANCH  35  42
BRANCH  37  44
ATOM     44  O   UNL     1      49.485 -39.447  46.397  0.00  0.00    +0.000 OA
ATOM     45  H   UNL     1      48.573 -39.560  46.067  0.00  0.00    +0.000 HD
ENDBRANCH  37  44
ENDBRANCH  30  34
ENDBRANCH   7  30
TORSDOF 8
ENDMDL
MODEL 9
REMARK VINA RESULT:      -8.1      4.079      7.598
REMARK  Name = 
REMARK  11 active torsions:
REMARK  status: ('A' for Active; 'I' for Inactive)
REMARK    1  A    between atoms: O_1  and  C_16
REMARK    2  A    between atoms: O_1  and  C_22
REMARK    3  A    between atoms: O_6  and  C_24
REMARK    4  A    between atoms: O_8  and  C_26
REMARK    5  A    between atoms: O_11  and  C_36
REMARK    6  A    between atoms: O_11  and  C_41
REMARK    7  A    between atoms: O_12  and  C_37
REMARK    8  A    between atoms: O_12  and  C_42
REMARK    9  A    between atoms: O_13  and  C_39
REMARK   10  A    between atoms: C_17  and  C_23
REMARK   11  A    between atoms: C_35  and  C_40
REMARK                            x       y       z     vdW  Elec       q    Type
REMARK                         _______ _______ _______ _____ _____    ______ ____
ROOT
ATOM      1  O   UNL     1      50.067 -48.408  46.945  0.00  0.00    +0.000 OA
ATOM      2  O   UNL     1      49.734 -47.569  44.838  0.00  0.00    +0.000 OA
ATOM      3  O   UNL     1      49.025 -40.613  49.930  0.00  0.00    +0.000 OA
ATOM      4  O   UNL     1      49.237 -40.073  47.589  0.00  0.00    +0.000 OA
ATOM      5  C   UNL     1      50.118 -46.421  48.137  0.00  0.00    +0.000 C 
ATOM      6  C   UNL     1      49.464 -46.152  46.795  0.00  0.00    +0.000 C 
ATOM      7  C   UNL     1      49.555 -45.485  49.199  0.00  0.00    +0.000 C 
ATOM      8  C   UNL     1      49.911 -44.802  46.234  0.00  0.00    +0.000 C 
ATOM      9  C   UNL     1      49.512 -44.046  48.687  0.00  0.00    +0.000 A 
ATOM     10  C   UNL     1      49.639 -43.723  47.296  0.00  0.00    +0.000 A 
ATOM     11  C   UNL     1      49.873 -47.903  48.277  0.00  0.00    +0.000 C 
ATOM     12  C   UNL     1      49.791 -47.408  46.045  0.00  0.00    +0.000 C 
ATOM     13  C   UNL     1      49.301 -43.012  49.619  0.00  0.00    +0.000 A 
ATOM     14  C   UNL     1      49.552 -42.381  46.875  0.00  0.00    +0.000 A 
ATOM     15  C   UNL     1      49.223 -41.715  49.159  0.00  0.00    +0.000 A 
ATOM     16  C   UNL     1      49.343 -41.408  47.827  0.00  0.00    +0.000 A 
ATOM     17  C   UNL     1      49.036 -39.575  48.928  0.00  0.00    +0.000 C 
ENDROOT
BRANCH   8  18
ATOM     18  C   UNL     1      51.344 -44.769  45.697  0.00  0.00    +0.000 A 
ATOM     19  C   UNL     1      52.468 -45.005  46.508  0.00  0.00    +0.000 A 
ATOM     20  C   UNL     1      51.558 -44.506  44.333  0.00  0.00    +0.000 A 
ATOM     21  C   UNL     1      52.847 -44.504  43.799  0.00  0.00    +0.000 A 
ATOM     22  C   UNL     1      53.774 -44.987  45.998  0.00  0.00    +0.000 A 
ATOM     23  C   UNL     1      53.951 -44.735  44.637  0.00  0.00    +0.000 A 
BRANCH  21  24
ATOM     24  O   UNL     1      53.163 -44.280  42.478  0.00  0.00    +0.000 OA
ATOM     25  C   UNL     1      52.885 -42.976  41.975  0.00  0.00    +0.000 C 
ENDBRANCH  21  24
BRANCH  22  26
ATOM     26  O   UNL     1      54.722 -45.242  46.951  0.00  0.00    +0.000 OA
ATOM     27  C   UNL     1      54.285 -45.724  48.214  0.00  0.00    +0.000 C 
ENDBRANCH  22  26
BRANCH  23  28
ATOM     28  O   UNL     1      55.195 -44.714  44.056  0.00  0.00    +0.000 OA
ATOM     29  H   UNL     1      55.213 -43.891  43.530  0.00  0.00    +0.000 HD
ENDBRANCH  23  28
ENDBRANCH   8  18
BRANCH   7  30
ATOM     30  O   UNL     1      48.207 -45.855  49.492  0.00  0.00    +0.000 OA
BRANCH  30  34
ATOM     31  O   UNL     1      48.107 -47.885  50.648  0.00  0.00    +0.000 OA
ATOM     32  O   UNL     1      46.321 -48.914  53.694  0.00  0.00    +0.000 OA
ATOM     33  O   UNL     1      47.788 -50.651  53.049  0.00  0.00    +0.000 OA
ATOM     34  C   UNL     1      48.059 -46.463  50.781  0.00  0.00    +0.000 C 
ATOM     35  C   UNL     1      46.709 -45.975  51.355  0.00  0.00    +0.000 C 
ATOM     36  C   UNL     1      46.519 -48.234  52.450  0.00  0.00    +0.000 C 
ATOM     37  C   UNL     1      46.352 -46.727  52.646  0.00  0.00    +0.000 C 
ATOM     38  C   UNL     1      47.916 -48.523  51.908  0.00  0.00    +0.000 C 
ATOM     39  C   UNL     1      48.059 -50.037  51.790  0.00  0.00    +0.000 C 
ATOM     40  C   UNL     1      46.480 -50.325  53.519  0.00  0.00    +0.000 C 
ATOM     41  C   UNL     1      46.287 -50.988  54.871  0.00  0.00    +0.000 C 
BRANCH  35  42
ATOM     42  O   UNL     1      46.789 -44.564  51.615  0.00  0.00    +0.000 OA
ATOM     43  H   UNL     1      47.740 -44.339  51.587  0.00  0.00    +0.000 HD
ENDBRANCH  35  42
BRANCH  37  44
ATOM     44  O   UNL     1      44.987 -46.464  53.011  0.00  0.00    +0.000 OA
ATOM     45  H   UNL     1      44.735 -47.173  53.632  0.00  0.00    +0.000 HD
ENDBRANCH  37  44
ENDBRANCH  30  34
ENDBRANCH   7  30
TORSDOF 8
ENDMDL
