MODEL 1
REMARK VINA RESULT:      -9.1      0.000      0.000
REMARK  Name = Foretinib.pdbqt.pdb
REMARK  11 active torsions:
REMARK  status: ('A' for Active; 'I' for Inactive)
REMARK    1  A    between atoms: C_2  and  N_31
REMARK    2  A    between atoms: C_7  and  O_8
REMARK    3  A    between atoms: O_8  and  C_9
REMARK    4  A    between atoms: C_17  and  O_19
REMARK    5  A    between atoms: C_18  and  O_29
REMARK    6  A    between atoms: O_19  and  C_20
REMARK    7  A    between atoms: C_21  and  C_22
REMARK    8  A    between atoms: C_22  and  N_23
REMARK    9  A    between atoms: C_32  and  C_35
REMARK   10  A    between atoms: C_35  and  C_38
REMARK   11  A    between atoms: N_40  and  C_42
REMARK                            x       y       z     vdW  Elec       q    Type
REMARK                         _______ _______ _______ _____ _____    ______ ____
ROOT
ATOM      1  F   UNL     1      47.303 -44.613  51.916  0.00  0.00    +0.000 F 
ATOM      2  C   UNL     1      48.828 -41.905  50.043  0.00  0.00    +0.000 A 
ATOM      3  C   UNL     1      48.204 -42.606  51.075  0.00  0.00    +0.000 A 
ATOM      4  C   UNL     1      49.173 -42.574  48.866  0.00  0.00    +0.000 A 
ATOM      5  C   UNL     1      47.934 -43.963  50.927  0.00  0.00    +0.000 A 
ATOM      6  C   UNL     1      48.901 -43.932  48.718  0.00  0.00    +0.000 A 
ATOM      7  C   UNL     1      48.302 -44.635  49.761  0.00  0.00    +0.000 A 
ENDROOT
BRANCH   2   8
ATOM      8  N   UNL     1      49.129 -40.533  50.125  0.00  0.00    +0.000 N 
ATOM      9  C   UNL     1      48.224 -39.528  50.427  0.00  0.00    +0.000 C 
ATOM     10  O   UNL     1      47.027 -39.673  50.642  0.00  0.00    +0.000 OA
ATOM     11  H   UNL     1      50.082 -40.260  49.905  0.00  0.00    +0.000 HD
BRANCH   9  12
ATOM     12  C   UNL     1      48.805 -38.145  50.426  0.00  0.00    +0.000 C 
ATOM     13  C   UNL     1      49.488 -37.694  51.633  0.00  0.00    +0.000 C 
ATOM     14  C   UNL     1      48.158 -37.143  51.265  0.00  0.00    +0.000 C 
BRANCH  12  15
ATOM     15  C   UNL     1      49.374 -37.705  49.110  0.00  0.00    +0.000 C 
ATOM     16  O   UNL     1      50.467 -38.139  48.765  0.00  0.00    +0.000 OA
ATOM     17  N   UNL     1      48.555 -36.866  48.374  0.00  0.00    +0.000 N 
ATOM     18  H   UNL     1      47.645 -36.631  48.760  0.00  0.00    +0.000 HD
BRANCH  17  19
ATOM     19  C   UNL     1      48.859 -36.333  47.108  0.00  0.00    +0.000 A 
ATOM     20  C   UNL     1      48.308 -36.962  45.989  0.00  0.00    +0.000 A 
ATOM     21  C   UNL     1      48.572 -36.481  44.709  0.00  0.00    +0.000 A 
ATOM     22  C   UNL     1      49.389 -35.366  44.556  0.00  0.00    +0.000 A 
ATOM     23  F   UNL     1      49.642 -34.900  43.326  0.00  0.00    +0.000 F 
ATOM     24  C   UNL     1      49.943 -34.726  45.658  0.00  0.00    +0.000 A 
ATOM     25  C   UNL     1      49.675 -35.214  46.934  0.00  0.00    +0.000 A 
ENDBRANCH  17  19
ENDBRANCH  12  15
ENDBRANCH   9  12
ENDBRANCH   2   8
BRANCH   7  26
ATOM     26  O   UNL     1      48.000 -45.955  49.535  0.00  0.00    +0.000 OA
BRANCH  26  27
ATOM     27  C   UNL     1      48.645 -46.893  50.317  0.00  0.00    +0.000 A 
ATOM     28  C   UNL     1      47.866 -47.871  50.955  0.00  0.00    +0.000 A 
ATOM     29  C   UNL     1      48.534 -48.856  51.703  0.00  0.00    +0.000 A 
ATOM     30  C   UNL     1      46.465 -47.888  50.876  0.00  0.00    +0.000 A 
ATOM     31  N   UNL     1      49.872 -48.892  51.810  0.00  0.00    +0.000 NA
ATOM     32  C   UNL     1      47.769 -49.820  52.343  0.00  0.00    +0.000 A 
ATOM     33  C   UNL     1      50.587 -47.941  51.169  0.00  0.00    +0.000 A 
ATOM     34  C   UNL     1      50.032 -46.933  50.407  0.00  0.00    +0.000 A 
ATOM     35  C   UNL     1      46.371 -49.843  52.266  0.00  0.00    +0.000 A 
ATOM     36  C   UNL     1      45.708 -48.864  51.525  0.00  0.00    +0.000 A 
BRANCH  36  37
ATOM     37  O   UNL     1      44.335 -48.927  51.487  0.00  0.00    +0.000 OA
ATOM     38  C   UNL     1      43.779 -49.322  50.263  0.00  0.00    +0.000 C 
ENDBRANCH  36  37
BRANCH  35  39
ATOM     39  O   UNL     1      45.597 -50.789  52.898  0.00  0.00    +0.000 OA
BRANCH  39  40
ATOM     40  C   UNL     1      46.176 -51.386  53.937  0.00  0.00    +0.000 C 
ATOM     41  C   UNL     1      46.854 -52.061  55.135  0.00  0.00    +0.000 C 
BRANCH  41  42
ATOM     42  C   UNL     1      47.534 -52.730  56.334  0.00  0.00    +0.000 C 
BRANCH  42  43
ATOM     43  N   UNL     1      48.180 -53.365  57.474  0.00  0.00    +0.000 N 
ATOM     44  C   UNL     1      47.821 -54.815  57.420  0.00  0.00    +0.000 C 
ATOM     45  C   UNL     1      48.734 -56.040  57.090  0.00  0.00    +0.000 C 
ATOM     46  O   UNL     1      50.036 -56.194  56.764  0.00  0.00    +0.000 OA
ATOM     47  C   UNL     1      50.360 -54.886  56.806  0.00  0.00    +0.000 C 
ATOM     48  C   UNL     1      49.617 -53.548  57.107  0.00  0.00    +0.000 C 
ENDBRANCH  42  43
ENDBRANCH  41  42
ENDBRANCH  39  40
ENDBRANCH  35  39
ENDBRANCH  26  27
ENDBRANCH   7  26
TORSDOF 11
ENDMDL
MODEL 2
REMARK VINA RESULT:      -8.5      3.316     14.443
REMARK  Name = Foretinib.pdbqt.pdb
REMARK  11 active torsions:
REMARK  status: ('A' for Active; 'I' for Inactive)
REMARK    1  A    between atoms: C_2  and  N_31
REMARK    2  A    between atoms: C_7  and  O_8
REMARK    3  A    between atoms: O_8  and  C_9
REMARK    4  A    between atoms: C_17  and  O_19
REMARK    5  A    between atoms: C_18  and  O_29
REMARK    6  A    between atoms: O_19  and  C_20
REMARK    7  A    between atoms: C_21  and  C_22
REMARK    8  A    between atoms: C_22  and  N_23
REMARK    9  A    between atoms: C_32  and  C_35
REMARK   10  A    between atoms: C_35  and  C_38
REMARK   11  A    between atoms: N_40  and  C_42
REMARK                            x       y       z     vdW  Elec       q    Type
REMARK                         _______ _______ _______ _____ _____    ______ ____
ROOT
ATOM      1  F   UNL     1      46.483 -47.798  49.589  0.00  0.00    +0.000 F 
ATOM      2  C   UNL     1      47.017 -50.454  52.003  0.00  0.00    +0.000 A 
ATOM      3  C   UNL     1      46.394 -49.634  51.061  0.00  0.00    +0.000 A 
ATOM      4  C   UNL     1      48.351 -50.221  52.345  0.00  0.00    +0.000 A 
ATOM      5  C   UNL     1      47.107 -48.597  50.467  0.00  0.00    +0.000 A 
ATOM      6  C   UNL     1      49.063 -49.181  51.750  0.00  0.00    +0.000 A 
ATOM      7  C   UNL     1      48.446 -48.381  50.791  0.00  0.00    +0.000 A 
ENDROOT
BRANCH   2   8
ATOM      8  N   UNL     1      46.356 -51.519  52.643  0.00  0.00    +0.000 N 
ATOM      9  C   UNL     1      45.939 -51.529  53.964  0.00  0.00    +0.000 C 
ATOM     10  O   UNL     1      46.102 -50.631  54.781  0.00  0.00    +0.000 OA
ATOM     11  H   UNL     1      46.212 -52.362  52.094  0.00  0.00    +0.000 HD
BRANCH   9  12
ATOM     12  C   UNL     1      45.279 -52.804  54.399  0.00  0.00    +0.000 C 
ATOM     13  C   UNL     1      44.385 -53.464  53.452  0.00  0.00    +0.000 C 
ATOM     14  C   UNL     1      43.842 -52.766  54.647  0.00  0.00    +0.000 C 
BRANCH  12  15
ATOM     15  C   UNL     1      46.125 -53.683  55.270  0.00  0.00    +0.000 C 
ATOM     16  O   UNL     1      45.692 -54.782  55.599  0.00  0.00    +0.000 OA
ATOM     17  N   UNL     1      47.370 -53.165  55.582  0.00  0.00    +0.000 N 
ATOM     18  H   UNL     1      47.620 -52.261  55.194  0.00  0.00    +0.000 HD
BRANCH  17  19
ATOM     19  C   UNL     1      48.346 -53.804  56.370  0.00  0.00    +0.000 A 
ATOM     20  C   UNL     1      49.567 -54.111  55.768  0.00  0.00    +0.000 A 
ATOM     21  C   UNL     1      50.573 -54.743  56.495  0.00  0.00    +0.000 A 
ATOM     22  C   UNL     1      50.349 -55.064  57.829  0.00  0.00    +0.000 A 
ATOM     23  F   UNL     1      51.315 -55.670  58.532  0.00  0.00    +0.000 F 
ATOM     24  C   UNL     1      49.140 -54.763  58.446  0.00  0.00    +0.000 A 
ATOM     25  C   UNL     1      48.140 -54.132  57.711  0.00  0.00    +0.000 A 
ENDBRANCH  17  19
ENDBRANCH  12  15
ENDBRANCH   9  12
ENDBRANCH   2   8
BRANCH   7  26
ATOM     26  O   UNL     1      49.176 -47.332  50.287  0.00  0.00    +0.000 OA
BRANCH  26  27
ATOM     27  C   UNL     1      48.878 -46.070  50.762  0.00  0.00    +0.000 A 
ATOM     28  C   UNL     1      49.157 -44.970  49.937  0.00  0.00    +0.000 A 
ATOM     29  C   UNL     1      48.800 -43.693  50.403  0.00  0.00    +0.000 A 
ATOM     30  C   UNL     1      49.779 -45.105  48.685  0.00  0.00    +0.000 A 
ATOM     31  N   UNL     1      48.199 -43.504  51.588  0.00  0.00    +0.000 NA
ATOM     32  C   UNL     1      49.080 -42.602  49.595  0.00  0.00    +0.000 A 
ATOM     33  C   UNL     1      47.934 -44.591  52.348  0.00  0.00    +0.000 A 
ATOM     34  C   UNL     1      48.240 -45.886  51.984  0.00  0.00    +0.000 A 
ATOM     35  C   UNL     1      49.699 -42.730  48.345  0.00  0.00    +0.000 A 
ATOM     36  C   UNL     1      50.055 -43.997  47.883  0.00  0.00    +0.000 A 
BRANCH  36  37
ATOM     37  O   UNL     1      50.666 -44.069  46.653  0.00  0.00    +0.000 OA
ATOM     38  C   UNL     1      51.669 -45.040  46.530  0.00  0.00    +0.000 C 
ENDBRANCH  36  37
BRANCH  35  39
ATOM     39  O   UNL     1      49.988 -41.657  47.534  0.00  0.00    +0.000 OA
BRANCH  39  40
ATOM     40  C   UNL     1      49.825 -40.464  48.100  0.00  0.00    +0.000 C 
ATOM     41  C   UNL     1      49.625 -39.096  48.762  0.00  0.00    +0.000 C 
BRANCH  41  42
ATOM     42  C   UNL     1      49.425 -37.732  49.430  0.00  0.00    +0.000 C 
BRANCH  42  43
ATOM     43  N   UNL     1      49.236 -36.435  50.064  0.00  0.00    +0.000 N 
ATOM     44  C   UNL     1      47.767 -36.155  50.042  0.00  0.00    +0.000 C 
ATOM     45  C   UNL     1      46.758 -36.120  51.235  0.00  0.00    +0.000 C 
ATOM     46  O   UNL     1      46.855 -36.319  52.568  0.00  0.00    +0.000 OA
ATOM     47  C   UNL     1      48.178 -36.578  52.588  0.00  0.00    +0.000 C 
ATOM     48  C   UNL     1      49.328 -36.658  51.538  0.00  0.00    +0.000 C 
ENDBRANCH  42  43
ENDBRANCH  41  42
ENDBRANCH  39  40
ENDBRANCH  35  39
ENDBRANCH  26  27
ENDBRANCH   7  26
TORSDOF 11
ENDMDL
MODEL 3
REMARK VINA RESULT:      -8.2      8.842     18.046
REMARK  Name = Foretinib.pdbqt.pdb
REMARK  11 active torsions:
REMARK  status: ('A' for Active; 'I' for Inactive)
REMARK    1  A    between atoms: C_2  and  N_31
REMARK    2  A    between atoms: C_7  and  O_8
REMARK    3  A    between atoms: O_8  and  C_9
REMARK    4  A    between atoms: C_17  and  O_19
REMARK    5  A    between atoms: C_18  and  O_29
REMARK    6  A    between atoms: O_19  and  C_20
REMARK    7  A    between atoms: C_21  and  C_22
REMARK    8  A    between atoms: C_22  and  N_23
REMARK    9  A    between atoms: C_32  and  C_35
REMARK   10  A    between atoms: C_35  and  C_38
REMARK   11  A    between atoms: N_40  and  C_42
REMARK                            x       y       z     vdW  Elec       q    Type
REMARK                         _______ _______ _______ _____ _____    ______ ____
ROOT
ATOM      1  F   UNL     1      51.418 -33.411  46.593  0.00  0.00    +0.000 F 
ATOM      2  C   UNL     1      49.160 -36.247  46.434  0.00  0.00    +0.000 A 
ATOM      3  C   UNL     1      50.106 -35.340  46.913  0.00  0.00    +0.000 A 
ATOM      4  C   UNL     1      48.604 -36.057  45.167  0.00  0.00    +0.000 A 
ATOM      5  C   UNL     1      50.483 -34.254  46.130  0.00  0.00    +0.000 A 
ATOM      6  C   UNL     1      48.983 -34.969  44.383  0.00  0.00    +0.000 A 
ATOM      7  C   UNL     1      49.907 -34.051  44.876  0.00  0.00    +0.000 A 
ENDROOT
BRANCH   2   8
ATOM      8  N   UNL     1      48.735 -37.367  47.172  0.00  0.00    +0.000 N 
ATOM      9  C   UNL     1      49.249 -38.648  47.056  0.00  0.00    +0.000 C 
ATOM     10  O   UNL     1      50.127 -39.008  46.283  0.00  0.00    +0.000 OA
ATOM     11  H   UNL     1      47.959 -37.224  47.812  0.00  0.00    +0.000 HD
BRANCH   9  12
ATOM     12  C   UNL     1      48.596 -39.664  47.947  0.00  0.00    +0.000 C 
ATOM     13  C   UNL     1      49.070 -41.042  47.868  0.00  0.00    +0.000 C 
ATOM     14  C   UNL     1      47.744 -40.664  47.314  0.00  0.00    +0.000 C 
BRANCH  12  15
ATOM     15  C   UNL     1      48.201 -39.151  49.300  0.00  0.00    +0.000 C 
ATOM     16  O   UNL     1      47.684 -39.925  50.097  0.00  0.00    +0.000 OA
ATOM     17  N   UNL     1      48.518 -37.824  49.533  0.00  0.00    +0.000 N 
ATOM     18  H   UNL     1      48.999 -37.314  48.798  0.00  0.00    +0.000 HD
BRANCH  17  19
ATOM     19  C   UNL     1      48.263 -37.121  50.724  0.00  0.00    +0.000 A 
ATOM     20  C   UNL     1      49.278 -37.076  51.682  0.00  0.00    +0.000 A 
ATOM     21  C   UNL     1      49.087 -36.396  52.883  0.00  0.00    +0.000 A 
ATOM     22  C   UNL     1      47.873 -35.760  53.117  0.00  0.00    +0.000 A 
ATOM     23  F   UNL     1      47.687 -35.103  54.269  0.00  0.00    +0.000 F 
ATOM     24  C   UNL     1      46.852 -35.791  52.174  0.00  0.00    +0.000 A 
ATOM     25  C   UNL     1      47.052 -36.475  50.978  0.00  0.00    +0.000 A 
ENDBRANCH  17  19
ENDBRANCH  12  15
ENDBRANCH   9  12
ENDBRANCH   2   8
BRANCH   7  26
ATOM     26  O   UNL     1      50.291 -33.035  44.035  0.00  0.00    +0.000 OA
BRANCH  26  27
ATOM     27  C   UNL     1      49.720 -31.795  44.241  0.00  0.00    +0.000 A 
ATOM     28  C   UNL     1      50.507 -30.794  44.830  0.00  0.00    +0.000 A 
ATOM     29  C   UNL     1      49.937 -29.518  44.985  0.00  0.00    +0.000 A 
ATOM     30  C   UNL     1      51.820 -31.028  45.269  0.00  0.00    +0.000 A 
ATOM     31  N   UNL     1      48.689 -29.235  44.580  0.00  0.00    +0.000 NA
ATOM     32  C   UNL     1      50.708 -28.527  45.574  0.00  0.00    +0.000 A 
ATOM     33  C   UNL     1      47.968 -30.224  44.005  0.00  0.00    +0.000 A 
ATOM     34  C   UNL     1      48.432 -31.507  43.803  0.00  0.00    +0.000 A 
ATOM     35  C   UNL     1      52.019 -28.753  46.012  0.00  0.00    +0.000 A 
ATOM     36  C   UNL     1      52.584 -30.020  45.859  0.00  0.00    +0.000 A 
BRANCH  36  37
ATOM     37  O   UNL     1      53.871 -30.193  46.311  0.00  0.00    +0.000 OA
ATOM     38  C   UNL     1      54.408 -31.476  46.137  0.00  0.00    +0.000 C 
ENDBRANCH  36  37
BRANCH  35  39
ATOM     39  O   UNL     1      52.795 -27.783  46.602  0.00  0.00    +0.000 OA
BRANCH  39  40
ATOM     40  C   UNL     1      52.243 -27.184  47.654  0.00  0.00    +0.000 C 
ATOM     41  C   UNL     1      51.597 -26.485  48.855  0.00  0.00    +0.000 C 
BRANCH  41  42
ATOM     42  C   UNL     1      50.945 -25.787  50.054  0.00  0.00    +0.000 C 
BRANCH  42  43
ATOM     43  N   UNL     1      50.327 -25.122  51.192  0.00  0.00    +0.000 N 
ATOM     44  C   UNL     1      51.272 -25.268  52.341  0.00  0.00    +0.000 C 
ATOM     45  C   UNL     1      52.138 -24.173  53.044  0.00  0.00    +0.000 C 
ATOM     46  O   UNL     1      52.318 -22.846  52.866  0.00  0.00    +0.000 OA
ATOM     47  C   UNL     1      51.470 -22.714  51.826  0.00  0.00    +0.000 C 
ATOM     48  C   UNL     1      50.539 -23.656  51.003  0.00  0.00    +0.000 C 
ENDBRANCH  42  43
ENDBRANCH  41  42
ENDBRANCH  39  40
ENDBRANCH  35  39
ENDBRANCH  26  27
ENDBRANCH   7  26
TORSDOF 11
ENDMDL
MODEL 4
REMARK VINA RESULT:      -8.1      6.383     17.724
REMARK  Name = Foretinib.pdbqt.pdb
REMARK  11 active torsions:
REMARK  status: ('A' for Active; 'I' for Inactive)
REMARK    1  A    between atoms: C_2  and  N_31
REMARK    2  A    between atoms: C_7  and  O_8
REMARK    3  A    between atoms: O_8  and  C_9
REMARK    4  A    between atoms: C_17  and  O_19
REMARK    5  A    between atoms: C_18  and  O_29
REMARK    6  A    between atoms: O_19  and  C_20
REMARK    7  A    between atoms: C_21  and  C_22
REMARK    8  A    between atoms: C_22  and  N_23
REMARK    9  A    between atoms: C_32  and  C_35
REMARK   10  A    between atoms: C_35  and  C_38
REMARK   11  A    between atoms: N_40  and  C_42
REMARK                            x       y       z     vdW  Elec       q    Type
REMARK                         _______ _______ _______ _____ _____    ______ ____
ROOT
ATOM      1  F   UNL     1      48.569 -36.634  43.815  0.00  0.00    +0.000 F 
ATOM      2  C   UNL     1      48.835 -36.364  47.423  0.00  0.00    +0.000 A 
ATOM      3  C   UNL     1      48.433 -36.799  46.160  0.00  0.00    +0.000 A 
ATOM      4  C   UNL     1      49.793 -35.354  47.532  0.00  0.00    +0.000 A 
ATOM      5  C   UNL     1      48.992 -36.228  45.021  0.00  0.00    +0.000 A 
ATOM      6  C   UNL     1      50.351 -34.782  46.390  0.00  0.00    +0.000 A 
ATOM      7  C   UNL     1      49.968 -35.237  45.131  0.00  0.00    +0.000 A 
ENDROOT
BRANCH   2   8
ATOM      8  N   UNL     1      48.310 -36.897  48.615  0.00  0.00    +0.000 N 
ATOM      9  C   UNL     1      48.961 -37.787  49.453  0.00  0.00    +0.000 C 
ATOM     10  O   UNL     1      50.074 -38.266  49.275  0.00  0.00    +0.000 OA
ATOM     11  H   UNL     1      47.358 -36.632  48.854  0.00  0.00    +0.000 HD
BRANCH   9  12
ATOM     12  C   UNL     1      48.163 -38.215  50.649  0.00  0.00    +0.000 C 
ATOM     13  C   UNL     1      47.224 -37.254  51.219  0.00  0.00    +0.000 C 
ATOM     14  C   UNL     1      48.484 -37.595  51.929  0.00  0.00    +0.000 C 
BRANCH  12  15
ATOM     15  C   UNL     1      47.750 -39.657  50.644  0.00  0.00    +0.000 C 
ATOM     16  O   UNL     1      46.573 -39.934  50.444  0.00  0.00    +0.000 OA
ATOM     17  N   UNL     1      48.786 -40.558  50.822  0.00  0.00    +0.000 N 
ATOM     18  H   UNL     1      49.726 -40.188  50.922  0.00  0.00    +0.000 HD
BRANCH  17  19
ATOM     19  C   UNL     1      48.655 -41.959  50.842  0.00  0.00    +0.000 A 
ATOM     20  C   UNL     1      49.116 -42.670  49.733  0.00  0.00    +0.000 A 
ATOM     21  C   UNL     1      49.014 -44.059  49.692  0.00  0.00    +0.000 A 
ATOM     22  C   UNL     1      48.449 -44.730  50.771  0.00  0.00    +0.000 A 
ATOM     23  F   UNL     1      48.353 -46.066  50.736  0.00  0.00    +0.000 F 
ATOM     24  C   UNL     1      47.987 -44.039  51.885  0.00  0.00    +0.000 A 
ATOM     25  C   UNL     1      48.092 -42.651  51.916  0.00  0.00    +0.000 A 
ENDBRANCH  17  19
ENDBRANCH  12  15
ENDBRANCH   9  12
ENDBRANCH   2   8
BRANCH   7  26
ATOM     26  O   UNL     1      50.502 -34.593  44.042  0.00  0.00    +0.000 OA
BRANCH  26  27
ATOM     27  C   UNL     1      49.958 -33.370  43.702  0.00  0.00    +0.000 A 
ATOM     28  C   UNL     1      50.603 -32.210  44.157  0.00  0.00    +0.000 A 
ATOM     29  C   UNL     1      50.076 -30.969  43.760  0.00  0.00    +0.000 A 
ATOM     30  C   UNL     1      51.733 -32.252  44.988  0.00  0.00    +0.000 A 
ATOM     31  N   UNL     1      49.001 -30.867  42.962  0.00  0.00    +0.000 NA
ATOM     32  C   UNL     1      50.704 -29.818  44.213  0.00  0.00    +0.000 A 
ATOM     33  C   UNL     1      48.416 -32.008  42.535  0.00  0.00    +0.000 A 
ATOM     34  C   UNL     1      48.854 -33.275  42.861  0.00  0.00    +0.000 A 
ATOM     35  C   UNL     1      51.834 -29.854  45.040  0.00  0.00    +0.000 A 
ATOM     36  C   UNL     1      52.356 -31.086  45.435  0.00  0.00    +0.000 A 
BRANCH  36  37
ATOM     37  O   UNL     1      53.460 -31.068  46.254  0.00  0.00    +0.000 OA
ATOM     38  C   UNL     1      54.677 -31.390  45.638  0.00  0.00    +0.000 C 
ENDBRANCH  36  37
BRANCH  35  39
ATOM     39  O   UNL     1      52.466 -28.723  45.502  0.00  0.00    +0.000 OA
BRANCH  39  40
ATOM     40  C   UNL     1      51.807 -28.056  46.447  0.00  0.00    +0.000 C 
ATOM     41  C   UNL     1      51.034 -27.289  47.525  0.00  0.00    +0.000 C 
BRANCH  41  42
ATOM     42  C   UNL     1      50.256 -26.526  48.603  0.00  0.00    +0.000 C 
BRANCH  42  43
ATOM     43  N   UNL     1      49.518 -25.802  49.627  0.00  0.00    +0.000 N 
ATOM     44  C   UNL     1      50.371 -25.803  50.855  0.00  0.00    +0.000 C 
ATOM     45  C   UNL     1      51.127 -24.610  51.525  0.00  0.00    +0.000 C 
ATOM     46  O   UNL     1      51.262 -23.295  51.247  0.00  0.00    +0.000 OA
ATOM     47  C   UNL     1      50.497 -23.293  50.136  0.00  0.00    +0.000 C 
ATOM     48  C   UNL     1      49.680 -24.347  49.328  0.00  0.00    +0.000 C 
ENDBRANCH  42  43
ENDBRANCH  41  42
ENDBRANCH  39  40
ENDBRANCH  35  39
ENDBRANCH  26  27
ENDBRANCH   7  26
TORSDOF 11
ENDMDL
MODEL 5
REMARK VINA RESULT:      -8.0      4.765      8.595
REMARK  Name = Foretinib.pdbqt.pdb
REMARK  11 active torsions:
REMARK  status: ('A' for Active; 'I' for Inactive)
REMARK    1  A    between atoms: C_2  and  N_31
REMARK    2  A    between atoms: C_7  and  O_8
REMARK    3  A    between atoms: O_8  and  C_9
REMARK    4  A    between atoms: C_17  and  O_19
REMARK    5  A    between atoms: C_18  and  O_29
REMARK    6  A    between atoms: O_19  and  C_20
REMARK    7  A    between atoms: C_21  and  C_22
REMARK    8  A    between atoms: C_22  and  N_23
REMARK    9  A    between atoms: C_32  and  C_35
REMARK   10  A    between atoms: C_35  and  C_38
REMARK   11  A    between atoms: N_40  and  C_42
REMARK                            x       y       z     vdW  Elec       q    Type
REMARK                         _______ _______ _______ _____ _____    ______ ____
ROOT
ATOM      1  F   UNL     1      47.932 -44.263  53.099  0.00  0.00    +0.000 F 
ATOM      2  C   UNL     1      48.648 -41.621  50.718  0.00  0.00    +0.000 A 
ATOM      3  C   UNL     1      48.445 -42.286  51.927  0.00  0.00    +0.000 A 
ATOM      4  C   UNL     1      48.555 -42.329  49.518  0.00  0.00    +0.000 A 
ATOM      5  C   UNL     1      48.157 -43.647  51.929  0.00  0.00    +0.000 A 
ATOM      6  C   UNL     1      48.266 -43.692  49.521  0.00  0.00    +0.000 A 
ATOM      7  C   UNL     1      48.090 -44.359  50.731  0.00  0.00    +0.000 A 
ENDROOT
BRANCH   2   8
ATOM      8  N   UNL     1      48.941 -40.246  50.643  0.00  0.00    +0.000 N 
ATOM      9  C   UNL     1      48.009 -39.222  50.688  0.00  0.00    +0.000 C 
ATOM     10  O   UNL     1      46.795 -39.352  50.773  0.00  0.00    +0.000 OA
ATOM     11  H   UNL     1      49.915 -39.994  50.504  0.00  0.00    +0.000 HD
BRANCH   9  12
ATOM     12  C   UNL     1      48.591 -37.845  50.563  0.00  0.00    +0.000 C 
ATOM     13  C   UNL     1      49.206 -37.257  51.748  0.00  0.00    +0.000 C 
ATOM     14  C   UNL     1      47.899 -36.758  51.248  0.00  0.00    +0.000 C 
BRANCH  12  15
ATOM     15  C   UNL     1      49.233 -37.552  49.240  0.00  0.00    +0.000 C 
ATOM     16  O   UNL     1      50.317 -38.064  48.984  0.00  0.00    +0.000 OA
ATOM     17  N   UNL     1      48.486 -36.748  48.397  0.00  0.00    +0.000 N 
ATOM     18  H   UNL     1      47.574 -36.438  48.720  0.00  0.00    +0.000 HD
BRANCH  17  19
ATOM     19  C   UNL     1      48.865 -36.346  47.103  0.00  0.00    +0.000 A 
ATOM     20  C   UNL     1      49.727 -35.254  46.990  0.00  0.00    +0.000 A 
ATOM     21  C   UNL     1      50.140 -34.807  45.736  0.00  0.00    +0.000 A 
ATOM     22  C   UNL     1      49.685 -35.463  44.598  0.00  0.00    +0.000 A 
ATOM     23  F   UNL     1      50.081 -35.038  43.391  0.00  0.00    +0.000 F 
ATOM     24  C   UNL     1      48.828 -36.554  44.692  0.00  0.00    +0.000 A 
ATOM     25  C   UNL     1      48.420 -36.993  45.949  0.00  0.00    +0.000 A 
ENDBRANCH  17  19
ENDBRANCH  12  15
ENDBRANCH   9  12
ENDBRANCH   2   8
BRANCH   7  26
ATOM     26  O   UNL     1      47.744 -45.686  50.671  0.00  0.00    +0.000 OA
BRANCH  26  27
ATOM     27  C   UNL     1      46.429 -46.008  50.944  0.00  0.00    +0.000 A 
ATOM     28  C   UNL     1      45.535 -46.106  49.866  0.00  0.00    +0.000 A 
ATOM     29  C   UNL     1      44.212 -46.490  50.145  0.00  0.00    +0.000 A 
ATOM     30  C   UNL     1      45.916 -45.830  48.543  0.00  0.00    +0.000 A 
ATOM     31  N   UNL     1      43.792 -46.770  51.388  0.00  0.00    +0.000 NA
ATOM     32  C   UNL     1      43.322 -46.581  49.084  0.00  0.00    +0.000 A 
ATOM     33  C   UNL     1      44.687 -46.677  52.397  0.00  0.00    +0.000 A 
ATOM     34  C   UNL     1      46.008 -46.314  52.233  0.00  0.00    +0.000 A 
ATOM     35  C   UNL     1      43.697 -46.309  47.762  0.00  0.00    +0.000 A 
ATOM     36  C   UNL     1      45.010 -45.927  47.486  0.00  0.00    +0.000 A 
BRANCH  36  37
ATOM     37  O   UNL     1      45.326 -45.664  46.174  0.00  0.00    +0.000 OA
ATOM     38  C   UNL     1      46.487 -46.285  45.693  0.00  0.00    +0.000 C 
ENDBRANCH  36  37
BRANCH  35  39
ATOM     39  O   UNL     1      42.826 -46.390  46.701  0.00  0.00    +0.000 OA
BRANCH  39  40
ATOM     40  C   UNL     1      41.649 -45.799  46.891  0.00  0.00    +0.000 C 
ATOM     41  C   UNL     1      40.294 -45.123  47.128  0.00  0.00    +0.000 C 
BRANCH  41  42
ATOM     42  C   UNL     1      38.941 -44.445  47.371  0.00  0.00    +0.000 C 
BRANCH  42  43
ATOM     43  N   UNL     1      37.656 -43.801  47.600  0.00  0.00    +0.000 N 
ATOM     44  C   UNL     1      37.815 -42.368  47.205  0.00  0.00    +0.000 C 
ATOM     45  C   UNL     1      37.203 -41.614  45.980  0.00  0.00    +0.000 C 
ATOM     46  O   UNL     1      36.401 -41.967  44.952  0.00  0.00    +0.000 OA
ATOM     47  C   UNL     1      36.261 -43.261  45.303  0.00  0.00    +0.000 C 
ATOM     48  C   UNL     1      36.775 -44.179  46.454  0.00  0.00    +0.000 C 
ENDBRANCH  42  43
ENDBRANCH  41  42
ENDBRANCH  39  40
ENDBRANCH  35  39
ENDBRANCH  26  27
ENDBRANCH   7  26
TORSDOF 11
ENDMDL
MODEL 6
REMARK VINA RESULT:      -7.8      5.554     10.068
REMARK  Name = Foretinib.pdbqt.pdb
REMARK  11 active torsions:
REMARK  status: ('A' for Active; 'I' for Inactive)
REMARK    1  A    between atoms: C_2  and  N_31
REMARK    2  A    between atoms: C_7  and  O_8
REMARK    3  A    between atoms: O_8  and  C_9
REMARK    4  A    between atoms: C_17  and  O_19
REMARK    5  A    between atoms: C_18  and  O_29
REMARK    6  A    between atoms: O_19  and  C_20
REMARK    7  A    between atoms: C_21  and  C_22
REMARK    8  A    between atoms: C_22  and  N_23
REMARK    9  A    between atoms: C_32  and  C_35
REMARK   10  A    between atoms: C_35  and  C_38
REMARK   11  A    between atoms: N_40  and  C_42
REMARK                            x       y       z     vdW  Elec       q    Type
REMARK                         _______ _______ _______ _____ _____    ______ ____
ROOT
ATOM      1  F   UNL     1      46.569 -53.450  51.947  0.00  0.00    +0.000 F 
ATOM      2  C   UNL     1      47.044 -50.017  53.023  0.00  0.00    +0.000 A 
ATOM      3  C   UNL     1      46.927 -51.136  52.197  0.00  0.00    +0.000 A 
ATOM      4  C   UNL     1      46.880 -50.159  54.403  0.00  0.00    +0.000 A 
ATOM      5  C   UNL     1      46.644 -52.380  52.752  0.00  0.00    +0.000 A 
ATOM      6  C   UNL     1      46.597 -51.406  54.958  0.00  0.00    +0.000 A 
ATOM      7  C   UNL     1      46.455 -52.515  54.128  0.00  0.00    +0.000 A 
ENDROOT
BRANCH   2   8
ATOM      8  N   UNL     1      47.330 -48.731  52.529  0.00  0.00    +0.000 N 
ATOM      9  C   UNL     1      46.397 -47.835  52.033  0.00  0.00    +0.000 C 
ATOM     10  O   UNL     1      45.194 -48.029  51.924  0.00  0.00    +0.000 OA
ATOM     11  H   UNL     1      48.309 -48.460  52.500  0.00  0.00    +0.000 HD
BRANCH   9  12
ATOM     12  C   UNL     1      46.976 -46.538  51.548  0.00  0.00    +0.000 C 
ATOM     13  C   UNL     1      47.194 -45.481  52.530  0.00  0.00    +0.000 C 
ATOM     14  C   UNL     1      46.098 -45.374  51.532  0.00  0.00    +0.000 C 
BRANCH  12  15
ATOM     15  C   UNL     1      47.990 -46.675  50.451  0.00  0.00    +0.000 C 
ATOM     16  O   UNL     1      47.837 -47.556  49.612  0.00  0.00    +0.000 OA
ATOM     17  N   UNL     1      49.000 -45.729  50.472  0.00  0.00    +0.000 N 
ATOM     18  H   UNL     1      48.972 -45.019  51.198  0.00  0.00    +0.000 HD
BRANCH  17  19
ATOM     19  C   UNL     1      50.055 -45.641  49.546  0.00  0.00    +0.000 A 
ATOM     20  C   UNL     1      51.106 -46.551  49.670  0.00  0.00    +0.000 A 
ATOM     21  C   UNL     1      52.180 -46.515  48.783  0.00  0.00    +0.000 A 
ATOM     22  C   UNL     1      52.194 -45.562  47.771  0.00  0.00    +0.000 A 
ATOM     23  F   UNL     1      53.224 -45.525  46.915  0.00  0.00    +0.000 F 
ATOM     24  C   UNL     1      51.155 -44.649  47.630  0.00  0.00    +0.000 A 
ATOM     25  C   UNL     1      50.086 -44.692  48.522  0.00  0.00    +0.000 A 
ENDBRANCH  17  19
ENDBRANCH  12  15
ENDBRANCH   9  12
ENDBRANCH   2   8
BRANCH   7  26
ATOM     26  O   UNL     1      46.241 -53.729  54.734  0.00  0.00    +0.000 OA
BRANCH  26  27
ATOM     27  C   UNL     1      44.998 -53.942  55.298  0.00  0.00    +0.000 A 
ATOM     28  C   UNL     1      44.941 -54.562  56.556  0.00  0.00    +0.000 A 
ATOM     29  C   UNL     1      43.677 -54.725  57.149  0.00  0.00    +0.000 A 
ATOM     30  C   UNL     1      46.087 -55.022  57.223  0.00  0.00    +0.000 A 
ATOM     31  N   UNL     1      42.547 -54.301  56.560  0.00  0.00    +0.000 NA
ATOM     32  C   UNL     1      43.613 -55.343  58.389  0.00  0.00    +0.000 A 
ATOM     33  C   UNL     1      42.647 -53.697  55.355  0.00  0.00    +0.000 A 
ATOM     34  C   UNL     1      43.836 -53.484  54.688  0.00  0.00    +0.000 A 
ATOM     35  C   UNL     1      44.753 -55.803  59.060  0.00  0.00    +0.000 A 
ATOM     36  C   UNL     1      46.008 -55.642  58.471  0.00  0.00    +0.000 A 
BRANCH  36  37
ATOM     37  O   UNL     1      47.094 -56.116  59.167  0.00  0.00    +0.000 OA
ATOM     38  C   UNL     1      48.295 -55.422  58.963  0.00  0.00    +0.000 C 
ENDBRANCH  36  37
BRANCH  35  39
ATOM     39  O   UNL     1      44.706 -56.422  60.287  0.00  0.00    +0.000 OA
BRANCH  39  40
ATOM     40  C   UNL     1      43.482 -56.680  60.741  0.00  0.00    +0.000 C 
ATOM     41  C   UNL     1      42.076 -56.969  61.279  0.00  0.00    +0.000 C 
BRANCH  41  42
ATOM     42  C   UNL     1      40.670 -57.252  61.818  0.00  0.00    +0.000 C 
BRANCH  42  43
ATOM     43  N   UNL     1      39.334 -57.521  62.330  0.00  0.00    +0.000 N 
ATOM     44  C   UNL     1      39.475 -57.757  63.800  0.00  0.00    +0.000 C 
ATOM     45  C   UNL     1      39.005 -56.855  64.987  0.00  0.00    +0.000 C 
ATOM     46  O   UNL     1      38.376 -55.663  65.083  0.00  0.00    +0.000 OA
ATOM     47  C   UNL     1      38.254 -55.446  63.758  0.00  0.00    +0.000 C 
ATOM     48  C   UNL     1      38.645 -56.201  62.451  0.00  0.00    +0.000 C 
ENDBRANCH  42  43
ENDBRANCH  41  42
ENDBRANCH  39  40
ENDBRANCH  35  39
ENDBRANCH  26  27
ENDBRANCH   7  26
TORSDOF 11
ENDMDL
MODEL 7
REMARK VINA RESULT:      -7.8      6.405     17.495
REMARK  Name = Foretinib.pdbqt.pdb
REMARK  11 active torsions:
REMARK  status: ('A' for Active; 'I' for Inactive)
REMARK    1  A    between atoms: C_2  and  N_31
REMARK    2  A    between atoms: C_7  and  O_8
REMARK    3  A    between atoms: O_8  and  C_9
REMARK    4  A    between atoms: C_17  and  O_19
REMARK    5  A    between atoms: C_18  and  O_29
REMARK    6  A    between atoms: O_19  and  C_20
REMARK    7  A    between atoms: C_21  and  C_22
REMARK    8  A    between atoms: C_22  and  N_23
REMARK    9  A    between atoms: C_32  and  C_35
REMARK   10  A    between atoms: C_35  and  C_38
REMARK   11  A    between atoms: N_40  and  C_42
REMARK                            x       y       z     vdW  Elec       q    Type
REMARK                         _______ _______ _______ _____ _____    ______ ____
ROOT
ATOM      1  F   UNL     1      49.242 -37.147  43.854  0.00  0.00    +0.000 F 
ATOM      2  C   UNL     1      48.932 -36.443  47.400  0.00  0.00    +0.000 A 
ATOM      3  C   UNL     1      48.806 -37.085  46.167  0.00  0.00    +0.000 A 
ATOM      4  C   UNL     1      49.652 -35.250  47.486  0.00  0.00    +0.000 A 
ATOM      5  C   UNL     1      49.402 -36.534  45.037  0.00  0.00    +0.000 A 
ATOM      6  C   UNL     1      50.247 -34.699  46.352  0.00  0.00    +0.000 A 
ATOM      7  C   UNL     1      50.142 -35.356  45.128  0.00  0.00    +0.000 A 
ENDROOT
BRANCH   2   8
ATOM      8  N   UNL     1      48.355 -36.943  48.582  0.00  0.00    +0.000 N 
ATOM      9  C   UNL     1      48.991 -37.757  49.505  0.00  0.00    +0.000 C 
ATOM     10  O   UNL     1      50.135 -38.186  49.425  0.00  0.00    +0.000 OA
ATOM     11  H   UNL     1      47.378 -36.716  48.745  0.00  0.00    +0.000 HD
BRANCH   9  12
ATOM     12  C   UNL     1      48.135 -38.167  50.668  0.00  0.00    +0.000 C 
ATOM     13  C   UNL     1      47.171 -37.197  51.177  0.00  0.00    +0.000 C 
ATOM     14  C   UNL     1      48.395 -37.527  51.953  0.00  0.00    +0.000 C 
BRANCH  12  15
ATOM     15  C   UNL     1      47.723 -39.608  50.666  0.00  0.00    +0.000 C 
ATOM     16  O   UNL     1      46.547 -39.886  50.457  0.00  0.00    +0.000 OA
ATOM     17  N   UNL     1      48.757 -40.509  50.857  0.00  0.00    +0.000 N 
ATOM     18  H   UNL     1      49.696 -40.138  50.963  0.00  0.00    +0.000 HD
BRANCH  17  19
ATOM     19  C   UNL     1      48.626 -41.909  50.882  0.00  0.00    +0.000 A 
ATOM     20  C   UNL     1      49.100 -42.626  49.781  0.00  0.00    +0.000 A 
ATOM     21  C   UNL     1      48.999 -44.014  49.746  0.00  0.00    +0.000 A 
ATOM     22  C   UNL     1      48.421 -44.681  50.821  0.00  0.00    +0.000 A 
ATOM     23  F   UNL     1      48.325 -46.017  50.791  0.00  0.00    +0.000 F 
ATOM     24  C   UNL     1      47.946 -43.985  51.926  0.00  0.00    +0.000 A 
ATOM     25  C   UNL     1      48.050 -42.597  51.952  0.00  0.00    +0.000 A 
ENDBRANCH  17  19
ENDBRANCH  12  15
ENDBRANCH   9  12
ENDBRANCH   2   8
BRANCH   7  26
ATOM     26  O   UNL     1      50.693 -34.734  44.034  0.00  0.00    +0.000 OA
BRANCH  26  27
ATOM     27  C   UNL     1      51.293 -33.508  44.241  0.00  0.00    +0.000 A 
ATOM     28  C   UNL     1      50.503 -32.355  44.114  0.00  0.00    +0.000 A 
ATOM     29  C   UNL     1      51.106 -31.114  44.381  0.00  0.00    +0.000 A 
ATOM     30  C   UNL     1      49.154 -32.405  43.728  0.00  0.00    +0.000 A 
ATOM     31  N   UNL     1      52.390 -31.006  44.758  0.00  0.00    +0.000 NA
ATOM     32  C   UNL     1      50.332 -29.971  44.250  0.00  0.00    +0.000 A 
ATOM     33  C   UNL     1      53.114 -32.141  44.882  0.00  0.00    +0.000 A 
ATOM     34  C   UNL     1      52.619 -33.407  44.648  0.00  0.00    +0.000 A 
ATOM     35  C   UNL     1      48.985 -30.014  43.867  0.00  0.00    +0.000 A 
ATOM     36  C   UNL     1      48.387 -31.246  43.601  0.00  0.00    +0.000 A 
BRANCH  36  37
ATOM     37  O   UNL     1      47.065 -31.234  43.222  0.00  0.00    +0.000 OA
ATOM     38  C   UNL     1      46.813 -31.590  41.890  0.00  0.00    +0.000 C 
ENDBRANCH  36  37
BRANCH  35  39
ATOM     39  O   UNL     1      48.205 -28.890  43.728  0.00  0.00    +0.000 OA
BRANCH  39  40
ATOM     40  C   UNL     1      48.131 -28.118  44.810  0.00  0.00    +0.000 C 
ATOM     41  C   UNL     1      48.043 -27.216  46.046  0.00  0.00    +0.000 C 
BRANCH  41  42
ATOM     42  C   UNL     1      47.950 -26.311  47.279  0.00  0.00    +0.000 C 
BRANCH  42  43
ATOM     43  N   UNL     1      47.861 -25.452  48.451  0.00  0.00    +0.000 N 
ATOM     44  C   UNL     1      48.636 -26.125  49.538  0.00  0.00    +0.000 C 
ATOM     45  C   UNL     1      49.998 -25.702  50.178  0.00  0.00    +0.000 C 
ATOM     46  O   UNL     1      50.864 -24.683  49.982  0.00  0.00    +0.000 OA
ATOM     47  C   UNL     1      50.169 -24.079  48.997  0.00  0.00    +0.000 C 
ATOM     48  C   UNL     1      48.830 -24.334  48.241  0.00  0.00    +0.000 C 
ENDBRANCH  42  43
ENDBRANCH  41  42
ENDBRANCH  39  40
ENDBRANCH  35  39
ENDBRANCH  26  27
ENDBRANCH   7  26
TORSDOF 11
ENDMDL
MODEL 8
REMARK VINA RESULT:      -7.7      5.478     11.473
REMARK  Name = Foretinib.pdbqt.pdb
REMARK  11 active torsions:
REMARK  status: ('A' for Active; 'I' for Inactive)
REMARK    1  A    between atoms: C_2  and  N_31
REMARK    2  A    between atoms: C_7  and  O_8
REMARK    3  A    between atoms: O_8  and  C_9
REMARK    4  A    between atoms: C_17  and  O_19
REMARK    5  A    between atoms: C_18  and  O_29
REMARK    6  A    between atoms: O_19  and  C_20
REMARK    7  A    between atoms: C_21  and  C_22
REMARK    8  A    between atoms: C_22  and  N_23
REMARK    9  A    between atoms: C_32  and  C_35
REMARK   10  A    between atoms: C_35  and  C_38
REMARK   11  A    between atoms: N_40  and  C_42
REMARK                            x       y       z     vdW  Elec       q    Type
REMARK                         _______ _______ _______ _____ _____    ______ ____
ROOT
ATOM      1  F   UNL     1      48.283 -33.541  43.985  0.00  0.00    +0.000 F 
ATOM      2  C   UNL     1      51.574 -32.472  45.076  0.00  0.00    +0.000 A 
ATOM      3  C   UNL     1      50.406 -32.580  44.320  0.00  0.00    +0.000 A 
ATOM      4  C   UNL     1      51.707 -33.218  46.249  0.00  0.00    +0.000 A 
ATOM      5  C   UNL     1      49.384 -33.424  44.742  0.00  0.00    +0.000 A 
ATOM      6  C   UNL     1      50.683 -34.064  46.670  0.00  0.00    +0.000 A 
ATOM      7  C   UNL     1      49.508 -34.149  45.927  0.00  0.00    +0.000 A 
ENDROOT
BRANCH   2   8
ATOM      8  N   UNL     1      52.647 -31.639  44.707  0.00  0.00    +0.000 N 
ATOM      9  C   UNL     1      53.713 -32.010  43.903  0.00  0.00    +0.000 C 
ATOM     10  O   UNL     1      53.900 -33.117  43.414  0.00  0.00    +0.000 OA
ATOM     11  H   UNL     1      52.654 -30.702  45.099  0.00  0.00    +0.000 HD
BRANCH   9  12
ATOM     12  C   UNL     1      54.734 -30.932  43.687  0.00  0.00    +0.000 C 
ATOM     13  C   UNL     1      55.027 -30.541  42.312  0.00  0.00    +0.000 C 
ATOM     14  C   UNL     1      56.012 -31.325  43.102  0.00  0.00    +0.000 C 
BRANCH  12  15
ATOM     15  C   UNL     1      54.733 -29.849  44.724  0.00  0.00    +0.000 C 
ATOM     16  O   UNL     1      55.231 -30.080  45.820  0.00  0.00    +0.000 OA
ATOM     17  N   UNL     1      54.197 -28.644  44.304  0.00  0.00    +0.000 N 
ATOM     18  H   UNL     1      53.869 -28.578  43.345  0.00  0.00    +0.000 HD
BRANCH  17  19
ATOM     19  C   UNL     1      54.096 -27.479  45.086  0.00  0.00    +0.000 A 
ATOM     20  C   UNL     1      55.160 -26.575  45.043  0.00  0.00    +0.000 A 
ATOM     21  C   UNL     1      55.120 -25.403  45.795  0.00  0.00    +0.000 A 
ATOM     22  C   UNL     1      54.008 -25.141  46.588  0.00  0.00    +0.000 A 
ATOM     23  F   UNL     1      53.966 -24.014  47.310  0.00  0.00    +0.000 F 
ATOM     24  C   UNL     1      52.939 -26.028  46.641  0.00  0.00    +0.000 A 
ATOM     25  C   UNL     1      52.988 -27.198  45.887  0.00  0.00    +0.000 A 
ENDBRANCH  17  19
ENDBRANCH  12  15
ENDBRANCH   9  12
ENDBRANCH   2   8
BRANCH   7  26
ATOM     26  O   UNL     1      48.560 -35.046  46.354  0.00  0.00    +0.000 OA
BRANCH  26  27
ATOM     27  C   UNL     1      48.917 -36.380  46.373  0.00  0.00    +0.000 A 
ATOM     28  C   UNL     1      48.903 -37.051  47.606  0.00  0.00    +0.000 A 
ATOM     29  C   UNL     1      49.212 -38.422  47.609  0.00  0.00    +0.000 A 
ATOM     30  C   UNL     1      48.603 -36.402  48.814  0.00  0.00    +0.000 A 
ATOM     31  N   UNL     1      49.502 -39.096  46.485  0.00  0.00    +0.000 NA
ATOM     32  C   UNL     1      49.208 -39.089  48.826  0.00  0.00    +0.000 A 
ATOM     33  C   UNL     1      49.491 -38.417  45.316  0.00  0.00    +0.000 A 
ATOM     34  C   UNL     1      49.198 -37.074  45.201  0.00  0.00    +0.000 A 
ATOM     35  C   UNL     1      48.907 -38.447  50.034  0.00  0.00    +0.000 A 
ATOM     36  C   UNL     1      48.601 -37.086  50.030  0.00  0.00    +0.000 A 
BRANCH  36  37
ATOM     37  O   UNL     1      48.321 -36.501  51.243  0.00  0.00    +0.000 OA
ATOM     38  C   UNL     1      47.008 -36.038  51.404  0.00  0.00    +0.000 C 
ENDBRANCH  36  37
BRANCH  35  39
ATOM     39  O   UNL     1      48.903 -39.092  51.249  0.00  0.00    +0.000 OA
BRANCH  39  40
ATOM     40  C   UNL     1      48.423 -40.333  51.226  0.00  0.00    +0.000 C 
ATOM     41  C   UNL     1      47.878 -41.766  51.214  0.00  0.00    +0.000 C 
BRANCH  41  42
ATOM     42  C   UNL     1      47.332 -43.197  51.209  0.00  0.00    +0.000 C 
BRANCH  42  43
ATOM     43  N   UNL     1      46.815 -44.558  51.205  0.00  0.00    +0.000 N 
ATOM     44  C   UNL     1      47.352 -45.220  49.977  0.00  0.00    +0.000 C 
ATOM     45  C   UNL     1      48.420 -46.355  49.862  0.00  0.00    +0.000 C 
ATOM     46  O   UNL     1      49.160 -47.057  50.749  0.00  0.00    +0.000 OA
ATOM     47  C   UNL     1      48.681 -46.456  51.857  0.00  0.00    +0.000 C 
ATOM     48  C   UNL     1      47.643 -45.337  52.174  0.00  0.00    +0.000 C 
ENDBRANCH  42  43
ENDBRANCH  41  42
ENDBRANCH  39  40
ENDBRANCH  35  39
ENDBRANCH  26  27
ENDBRANCH   7  26
TORSDOF 11
ENDMDL
MODEL 9
REMARK VINA RESULT:      -7.7      4.865      7.366
REMARK  Name = Foretinib.pdbqt.pdb
REMARK  11 active torsions:
REMARK  status: ('A' for Active; 'I' for Inactive)
REMARK    1  A    between atoms: C_2  and  N_31
REMARK    2  A    between atoms: C_7  and  O_8
REMARK    3  A    between atoms: O_8  and  C_9
REMARK    4  A    between atoms: C_17  and  O_19
REMARK    5  A    between atoms: C_18  and  O_29
REMARK    6  A    between atoms: O_19  and  C_20
REMARK    7  A    between atoms: C_21  and  C_22
REMARK    8  A    between atoms: C_22  and  N_23
REMARK    9  A    between atoms: C_32  and  C_35
REMARK   10  A    between atoms: C_35  and  C_38
REMARK   11  A    between atoms: N_40  and  C_42
REMARK                            x       y       z     vdW  Elec       q    Type
REMARK                         _______ _______ _______ _____ _____    ______ ____
ROOT
ATOM      1  F   UNL     1      48.912 -41.797  46.074  0.00  0.00    +0.000 F 
ATOM      2  C   UNL     1      49.674 -38.262  46.365  0.00  0.00    +0.000 A 
ATOM      3  C   UNL     1      49.265 -39.482  45.827  0.00  0.00    +0.000 A 
ATOM      4  C   UNL     1      50.097 -38.203  47.695  0.00  0.00    +0.000 A 
ATOM      5  C   UNL     1      49.277 -40.627  46.618  0.00  0.00    +0.000 A 
ATOM      6  C   UNL     1      50.109 -39.350  48.486  0.00  0.00    +0.000 A 
ATOM      7  C   UNL     1      49.675 -40.561  47.953  0.00  0.00    +0.000 A 
ENDROOT
BRANCH   2   8
ATOM      8  N   UNL     1      49.689 -37.067  45.622  0.00  0.00    +0.000 N 
ATOM      9  C   UNL     1      49.002 -35.909  45.948  0.00  0.00    +0.000 C 
ATOM     10  O   UNL     1      48.261 -35.754  46.911  0.00  0.00    +0.000 OA
ATOM     11  H   UNL     1      50.217 -37.075  44.754  0.00  0.00    +0.000 HD
BRANCH   9  12
ATOM     12  C   UNL     1      49.173 -34.786  44.968  0.00  0.00    +0.000 C 
ATOM     13  C   UNL     1      48.110 -33.791  44.883  0.00  0.00    +0.000 C 
ATOM     14  C   UNL     1      48.309 -34.781  43.793  0.00  0.00    +0.000 C 
BRANCH  12  15
ATOM     15  C   UNL     1      50.583 -34.299  44.812  0.00  0.00    +0.000 C 
ATOM     16  O   UNL     1      51.384 -34.996  44.199  0.00  0.00    +0.000 OA
ATOM     17  N   UNL     1      50.829 -33.048  45.350  0.00  0.00    +0.000 N 
ATOM     18  H   UNL     1      50.053 -32.556  45.784  0.00  0.00    +0.000 HD
BRANCH  17  19
ATOM     19  C   UNL     1      52.063 -32.373  45.319  0.00  0.00    +0.000 A 
ATOM     20  C   UNL     1      52.899 -32.497  46.430  0.00  0.00    +0.000 A 
ATOM     21  C   UNL     1      54.134 -31.853  46.460  0.00  0.00    +0.000 A 
ATOM     22  C   UNL     1      54.526 -31.086  45.368  0.00  0.00    +0.000 A 
ATOM     23  F   UNL     1      55.714 -30.467  45.392  0.00  0.00    +0.000 F 
ATOM     24  C   UNL     1      53.708 -30.953  44.252  0.00  0.00    +0.000 A 
ATOM     25  C   UNL     1      52.475 -31.600  44.232  0.00  0.00    +0.000 A 
ENDBRANCH  17  19
ENDBRANCH  12  15
ENDBRANCH   9  12
ENDBRANCH   2   8
BRANCH   7  26
ATOM     26  O   UNL     1      49.770 -41.670  48.758  0.00  0.00    +0.000 OA
BRANCH  26  27
ATOM     27  C   UNL     1      48.851 -41.787  49.782  0.00  0.00    +0.000 A 
ATOM     28  C   UNL     1      48.511 -43.076  50.222  0.00  0.00    +0.000 A 
ATOM     29  C   UNL     1      47.619 -43.186  51.302  0.00  0.00    +0.000 A 
ATOM     30  C   UNL     1      49.022 -44.236  49.620  0.00  0.00    +0.000 A 
ATOM     31  N   UNL     1      47.103 -42.112  51.920  0.00  0.00    +0.000 NA
ATOM     32  C   UNL     1      47.274 -44.457  51.736  0.00  0.00    +0.000 A 
ATOM     33  C   UNL     1      47.465 -40.888  51.475  0.00  0.00    +0.000 A 
ATOM     34  C   UNL     1      48.335 -40.668  50.427  0.00  0.00    +0.000 A 
ATOM     35  C   UNL     1      47.782 -45.619  51.141  0.00  0.00    +0.000 A 
ATOM     36  C   UNL     1      48.667 -45.509  50.068  0.00  0.00    +0.000 A 
BRANCH  36  37
ATOM     37  O   UNL     1      49.131 -46.679  49.514  0.00  0.00    +0.000 OA
ATOM     38  C   UNL     1      50.495 -46.939  49.700  0.00  0.00    +0.000 C 
ENDBRANCH  36  37
BRANCH  35  39
ATOM     39  O   UNL     1      47.446 -46.887  51.556  0.00  0.00    +0.000 OA
BRANCH  39  40
ATOM     40  C   UNL     1      46.226 -47.288  51.209  0.00  0.00    +0.000 C 
ATOM     41  C   UNL     1      44.818 -47.735  50.800  0.00  0.00    +0.000 C 
BRANCH  41  42
ATOM     42  C   UNL     1      43.411 -48.179  50.385  0.00  0.00    +0.000 C 
BRANCH  42  43
ATOM     43  N   UNL     1      42.074 -48.600  49.991  0.00  0.00    +0.000 N 
ATOM     44  C   UNL     1      41.211 -48.487  51.206  0.00  0.00    +0.000 C 
ATOM     45  C   UNL     1      40.061 -47.469  51.501  0.00  0.00    +0.000 C 
ATOM     46  O   UNL     1      39.510 -46.437  50.825  0.00  0.00    +0.000 OA
ATOM     47  C   UNL     1      40.292 -46.535  49.731  0.00  0.00    +0.000 C 
ATOM     48  C   UNL     1      41.460 -47.453  49.258  0.00  0.00    +0.000 C 
ENDBRANCH  42  43
ENDBRANCH  41  42
ENDBRANCH  39  40
ENDBRANCH  35  39
ENDBRANCH  26  27
ENDBRANCH   7  26
TORSDOF 11
ENDMDL
