MODEL 1
REMARK VINA RESULT:      -8.5      0.000      0.000
REMARK  Name = Fulvestrant.pdbqt.pdb
REMARK  12 active torsions:
REMARK  status: ('A' for Active; 'I' for Inactive)
REMARK    1  A    between atoms: C_6  and  O_40
REMARK    2  A    between atoms: C_8  and  C_19
REMARK    3  A    between atoms: C_18  and  O_42
REMARK    4  A    between atoms: C_20  and  C_21
REMARK    5  A    between atoms: C_22  and  C_23
REMARK    6  A    between atoms: C_23  and  C_24
REMARK    7  A    between atoms: C_25  and  C_26
REMARK    8  A    between atoms: C_27  and  S_28
REMARK    9  A    between atoms: S_28  and  C_30
REMARK   10  A    between atoms: C_30  and  C_31
REMARK   11  A    between atoms: C_32  and  C_33
REMARK   12  A    between atoms: C_33  and  C_36
REMARK                            x       y       z     vdW  Elec       q    Type
REMARK                         _______ _______ _______ _____ _____    ______ ____
ROOT
ATOM      1  C   UNL     1      48.109 -54.301  55.879  0.00  0.00    +0.000 C 
ATOM      2  C   UNL     1      49.174 -55.500  55.838  0.00  0.00    +0.000 C 
ATOM      3  C   UNL     1      46.630 -54.505  56.005  0.00  0.00    +0.000 A 
ATOM      4  C   UNL     1      46.043 -55.839  56.513  0.00  0.00    +0.000 A 
ATOM      5  C   UNL     1      48.498 -56.651  56.428  0.00  0.00    +0.000 C 
ATOM      6  C   UNL     1      50.335 -54.960  56.702  0.00  0.00    +0.000 C 
ATOM      7  C   UNL     1      48.736 -53.219  56.578  0.00  0.00    +0.000 C 
ATOM      8  C   UNL     1      45.655 -53.434  55.668  0.00  0.00    +0.000 A 
ATOM      9  C   UNL     1      47.037 -56.821  56.737  0.00  0.00    +0.000 C 
ATOM     10  C   UNL     1      50.089 -53.620  57.106  0.00  0.00    +0.000 C 
ATOM     11  C   UNL     1      49.631 -55.709  54.372  0.00  0.00    +0.000 C 
ATOM     12  C   UNL     1      44.584 -56.079  56.697  0.00  0.00    +0.000 A 
ATOM     13  C   UNL     1      44.327 -53.854  55.919  0.00  0.00    +0.000 A 
ATOM     14  C   UNL     1      43.686 -55.031  56.384  0.00  0.00    +0.000 A 
ATOM     15  C   UNL     1      44.067 -57.287  57.159  0.00  0.00    +0.000 A 
ATOM     16  C   UNL     1      42.314 -55.167  56.522  0.00  0.00    +0.000 A 
ATOM     17  C   UNL     1      42.687 -57.440  57.303  0.00  0.00    +0.000 A 
ATOM     18  C   UNL     1      41.828 -56.386  56.985  0.00  0.00    +0.000 A 
ENDROOT
BRANCH   8  19
ATOM     19  C   UNL     1      46.008 -52.232  55.008  0.00  0.00    +0.000 C 
ATOM     20  C   UNL     1      46.404 -50.943  54.281  0.00  0.00    +0.000 C 
BRANCH  20  21
ATOM     21  C   UNL     1      46.819 -49.669  53.540  0.00  0.00    +0.000 C 
ATOM     22  C   UNL     1      47.211 -48.379  52.813  0.00  0.00    +0.000 C 
BRANCH  22  23
ATOM     23  C   UNL     1      47.575 -47.074  52.099  0.00  0.00    +0.000 C 
BRANCH  23  24
ATOM     24  C   UNL     1      47.960 -45.786  51.362  0.00  0.00    +0.000 C 
ATOM     25  C   UNL     1      48.339 -44.516  50.595  0.00  0.00    +0.000 C 
BRANCH  25  26
ATOM     26  C   UNL     1      48.717 -43.264  49.796  0.00  0.00    +0.000 C 
ATOM     27  C   UNL     1      49.094 -42.033  48.967  0.00  0.00    +0.000 C 
BRANCH  27  28
ATOM     28  S   UNL     1      49.529 -40.638  47.986  0.00  0.00    +0.000 S 
ATOM     29  O   UNL     1      48.093 -40.342  47.667  0.00  0.00    +0.000 OA
BRANCH  28  30
ATOM     30  C   UNL     1      49.519 -39.529  49.354  0.00  0.00    +0.000 C 
BRANCH  30  31
ATOM     31  C   UNL     1      49.508 -38.583  50.560  0.00  0.00    +0.000 C 
ATOM     32  C   UNL     1      49.515 -37.641  51.769  0.00  0.00    +0.000 C 
BRANCH  32  33
ATOM     33  C   UNL     1      49.530 -36.745  52.929  0.00  0.00    +0.000 C 
ATOM     34  F   UNL     1      50.717 -36.916  53.576  0.00  0.00    +0.000 F 
ATOM     35  F   UNL     1      48.568 -37.169  53.795  0.00  0.00    +0.000 F 
BRANCH  33  36
ATOM     36  C   UNL     1      49.318 -35.273  52.559  0.00  0.00    +0.000 C 
ATOM     37  F   UNL     1      50.481 -34.572  52.575  0.00  0.00    +0.000 F 
ATOM     38  F   UNL     1      48.469 -34.648  53.413  0.00  0.00    +0.000 F 
ATOM     39  F   UNL     1      48.794 -35.136  51.314  0.00  0.00    +0.000 F 
ENDBRANCH  33  36
ENDBRANCH  32  33
ENDBRANCH  30  31
ENDBRANCH  28  30
ENDBRANCH  27  28
ENDBRANCH  25  26
ENDBRANCH  23  24
ENDBRANCH  22  23
ENDBRANCH  20  21
ENDBRANCH   8  19
BRANCH   6  40
ATOM     40  O   UNL     1      51.207 -55.785  57.380  0.00  0.00    +0.000 OA
ATOM     41  H   UNL     1      50.964 -56.723  57.286  0.00  0.00    +0.000 HD
ENDBRANCH   6  40
BRANCH  18  42
ATOM     42  O   UNL     1      40.485 -56.582  57.142  0.00  0.00    +0.000 OA
ATOM     43  H   UNL     1      40.264 -57.470  56.808  0.00  0.00    +0.000 HD
ENDBRANCH  18  42
TORSDOF 12
ENDMDL
MODEL 2
REMARK VINA RESULT:      -8.0      2.173      4.251
REMARK  Name = Fulvestrant.pdbqt.pdb
REMARK  12 active torsions:
REMARK  status: ('A' for Active; 'I' for Inactive)
REMARK    1  A    between atoms: C_6  and  O_40
REMARK    2  A    between atoms: C_8  and  C_19
REMARK    3  A    between atoms: C_18  and  O_42
REMARK    4  A    between atoms: C_20  and  C_21
REMARK    5  A    between atoms: C_22  and  C_23
REMARK    6  A    between atoms: C_23  and  C_24
REMARK    7  A    between atoms: C_25  and  C_26
REMARK    8  A    between atoms: C_27  and  S_28
REMARK    9  A    between atoms: S_28  and  C_30
REMARK   10  A    between atoms: C_30  and  C_31
REMARK   11  A    between atoms: C_32  and  C_33
REMARK   12  A    between atoms: C_33  and  C_36
REMARK                            x       y       z     vdW  Elec       q    Type
REMARK                         _______ _______ _______ _____ _____    ______ ____
ROOT
ATOM      1  C   UNL     1      45.310 -53.464  53.227  0.00  0.00    +0.000 C 
ATOM      2  C   UNL     1      43.862 -54.137  53.064  0.00  0.00    +0.000 C 
ATOM      3  C   UNL     1      46.181 -53.646  54.433  0.00  0.00    +0.000 A 
ATOM      4  C   UNL     1      45.948 -54.804  55.426  0.00  0.00    +0.000 A 
ATOM      5  C   UNL     1      43.838 -55.257  53.998  0.00  0.00    +0.000 C 
ATOM      6  C   UNL     1      43.851 -54.573  51.582  0.00  0.00    +0.000 C 
ATOM      7  C   UNL     1      45.903 -53.445  51.923  0.00  0.00    +0.000 C 
ATOM      8  C   UNL     1      47.320 -52.735  54.725  0.00  0.00    +0.000 A 
ATOM      9  C   UNL     1      44.800 -55.569  55.110  0.00  0.00    +0.000 C 
ATOM     10  C   UNL     1      45.028 -54.142  50.914  0.00  0.00    +0.000 C 
ATOM     11  C   UNL     1      42.780 -53.059  53.327  0.00  0.00    +0.000 C 
ATOM     12  C   UNL     1      46.808 -55.053  56.616  0.00  0.00    +0.000 A 
ATOM     13  C   UNL     1      48.015 -53.146  55.889  0.00  0.00    +0.000 A 
ATOM     14  C   UNL     1      47.896 -54.178  56.854  0.00  0.00    +0.000 A 
ATOM     15  C   UNL     1      46.589 -56.104  57.504  0.00  0.00    +0.000 A 
ATOM     16  C   UNL     1      48.746 -54.333  57.937  0.00  0.00    +0.000 A 
ATOM     17  C   UNL     1      47.437 -56.273  58.600  0.00  0.00    +0.000 A 
ATOM     18  C   UNL     1      48.500 -55.392  58.806  0.00  0.00    +0.000 A 
ENDROOT
BRANCH   8  19
ATOM     19  C   UNL     1      47.550 -51.521  54.036  0.00  0.00    +0.000 C 
ATOM     20  C   UNL     1      47.784 -50.197  53.302  0.00  0.00    +0.000 C 
BRANCH  20  21
ATOM     21  C   UNL     1      47.996 -48.862  52.583  0.00  0.00    +0.000 C 
ATOM     22  C   UNL     1      48.237 -47.536  51.854  0.00  0.00    +0.000 C 
BRANCH  22  23
ATOM     23  C   UNL     1      48.510 -46.220  51.120  0.00  0.00    +0.000 C 
BRANCH  23  24
ATOM     24  C   UNL     1      48.749 -44.904  50.373  0.00  0.00    +0.000 C 
ATOM     25  C   UNL     1      48.993 -43.606  49.596  0.00  0.00    +0.000 C 
BRANCH  25  26
ATOM     26  C   UNL     1      49.246 -42.328  48.790  0.00  0.00    +0.000 C 
ATOM     27  C   UNL     1      49.499 -41.030  48.016  0.00  0.00    +0.000 C 
BRANCH  27  28
ATOM     28  S   UNL     1      49.789 -39.522  47.157  0.00  0.00    +0.000 S 
ATOM     29  O   UNL     1      48.338 -39.379  46.802  0.00  0.00    +0.000 OA
BRANCH  28  30
ATOM     30  C   UNL     1      49.597 -38.530  48.600  0.00  0.00    +0.000 C 
BRANCH  30  31
ATOM     31  C   UNL     1      49.408 -37.663  49.849  0.00  0.00    +0.000 C 
ATOM     32  C   UNL     1      49.236 -36.802  51.105  0.00  0.00    +0.000 C 
BRANCH  32  33
ATOM     33  C   UNL     1      49.079 -35.981  52.309  0.00  0.00    +0.000 C 
ATOM     34  F   UNL     1      49.843 -34.863  52.157  0.00  0.00    +0.000 F 
ATOM     35  F   UNL     1      49.623 -36.667  53.353  0.00  0.00    +0.000 F 
BRANCH  33  36
ATOM     36  C   UNL     1      47.623 -35.609  52.603  0.00  0.00    +0.000 C 
ATOM     37  F   UNL     1      47.246 -34.476  51.957  0.00  0.00    +0.000 F 
ATOM     38  F   UNL     1      47.405 -35.399  53.925  0.00  0.00    +0.000 F 
ATOM     39  F   UNL     1      46.764 -36.586  52.214  0.00  0.00    +0.000 F 
ENDBRANCH  33  36
ENDBRANCH  32  33
ENDBRANCH  30  31
ENDBRANCH  28  30
ENDBRANCH  27  28
ENDBRANCH  25  26
ENDBRANCH  23  24
ENDBRANCH  22  23
ENDBRANCH  20  21
ENDBRANCH   8  19
BRANCH   6  40
ATOM     40  O   UNL     1      43.084 -55.622  51.118  0.00  0.00    +0.000 OA
ATOM     41  H   UNL     1      42.725 -55.443  50.231  0.00  0.00    +0.000 HD
ENDBRANCH   6  40
BRANCH  18  42
ATOM     42  O   UNL     1      49.303 -55.597  59.892  0.00  0.00    +0.000 OA
ATOM     43  H   UNL     1      49.557 -56.537  59.913  0.00  0.00    +0.000 HD
ENDBRANCH  18  42
TORSDOF 12
ENDMDL
MODEL 3
REMARK VINA RESULT:      -7.3      8.958     16.581
REMARK  Name = Fulvestrant.pdbqt.pdb
REMARK  12 active torsions:
REMARK  status: ('A' for Active; 'I' for Inactive)
REMARK    1  A    between atoms: C_6  and  O_40
REMARK    2  A    between atoms: C_8  and  C_19
REMARK    3  A    between atoms: C_18  and  O_42
REMARK    4  A    between atoms: C_20  and  C_21
REMARK    5  A    between atoms: C_22  and  C_23
REMARK    6  A    between atoms: C_23  and  C_24
REMARK    7  A    between atoms: C_25  and  C_26
REMARK    8  A    between atoms: C_27  and  S_28
REMARK    9  A    between atoms: S_28  and  C_30
REMARK   10  A    between atoms: C_30  and  C_31
REMARK   11  A    between atoms: C_32  and  C_33
REMARK   12  A    between atoms: C_33  and  C_36
REMARK                            x       y       z     vdW  Elec       q    Type
REMARK                         _______ _______ _______ _____ _____    ______ ____
ROOT
ATOM      1  C   UNL     1      49.770 -46.481  48.921  0.00  0.00    +0.000 C 
ATOM      2  C   UNL     1      51.085 -46.511  48.001  0.00  0.00    +0.000 C 
ATOM      3  C   UNL     1      49.214 -45.232  49.536  0.00  0.00    +0.000 A 
ATOM      4  C   UNL     1      49.607 -43.835  49.015  0.00  0.00    +0.000 A 
ATOM      5  C   UNL     1      51.265 -45.145  47.522  0.00  0.00    +0.000 C 
ATOM      6  C   UNL     1      50.702 -47.509  46.886  0.00  0.00    +0.000 C 
ATOM      7  C   UNL     1      48.876 -47.467  48.392  0.00  0.00    +0.000 C 
ATOM      8  C   UNL     1      48.245 -45.275  50.663  0.00  0.00    +0.000 A 
ATOM      9  C   UNL     1      50.588 -43.889  47.996  0.00  0.00    +0.000 C 
ATOM     10  C   UNL     1      49.427 -48.085  47.133  0.00  0.00    +0.000 C 
ATOM     11  C   UNL     1      52.267 -47.056  48.842  0.00  0.00    +0.000 C 
ATOM     12  C   UNL     1      49.052 -42.565  49.563  0.00  0.00    +0.000 A 
ATOM     13  C   UNL     1      47.833 -43.972  51.031  0.00  0.00    +0.000 A 
ATOM     14  C   UNL     1      48.118 -42.644  50.623  0.00  0.00    +0.000 A 
ATOM     15  C   UNL     1      49.414 -41.309  49.082  0.00  0.00    +0.000 A 
ATOM     16  C   UNL     1      47.553 -41.515  51.195  0.00  0.00    +0.000 A 
ATOM     17  C   UNL     1      48.853 -40.163  49.647  0.00  0.00    +0.000 A 
ATOM     18  C   UNL     1      47.934 -40.275  50.692  0.00  0.00    +0.000 A 
ENDROOT
BRANCH   8  19
ATOM     19  C   UNL     1      47.932 -46.452  51.385  0.00  0.00    +0.000 C 
ATOM     20  C   UNL     1      47.583 -47.714  52.181  0.00  0.00    +0.000 C 
BRANCH  20  21
ATOM     21  C   UNL     1      47.223 -48.958  52.998  0.00  0.00    +0.000 C 
ATOM     22  C   UNL     1      46.894 -50.207  53.822  0.00  0.00    +0.000 C 
BRANCH  22  23
ATOM     23  C   UNL     1      46.599 -51.461  54.650  0.00  0.00    +0.000 C 
BRANCH  23  24
ATOM     24  C   UNL     1      46.269 -52.713  55.469  0.00  0.00    +0.000 C 
ATOM     25  C   UNL     1      45.964 -53.982  56.271  0.00  0.00    +0.000 C 
BRANCH  25  26
ATOM     26  C   UNL     1      45.682 -55.269  57.053  0.00  0.00    +0.000 C 
ATOM     27  C   UNL     1      45.437 -56.563  57.835  0.00  0.00    +0.000 C 
BRANCH  27  28
ATOM     28  S   UNL     1      45.190 -58.058  58.730  0.00  0.00    +0.000 S 
ATOM     29  O   UNL     1      46.545 -57.968  59.368  0.00  0.00    +0.000 OA
BRANCH  28  30
ATOM     30  C   UNL     1      44.424 -57.248  60.094  0.00  0.00    +0.000 C 
BRANCH  30  31
ATOM     31  C   UNL     1      43.750 -56.565  61.289  0.00  0.00    +0.000 C 
ATOM     32  C   UNL     1      43.074 -55.899  62.492  0.00  0.00    +0.000 C 
BRANCH  32  33
ATOM     33  C   UNL     1      42.425 -55.271  63.646  0.00  0.00    +0.000 C 
ATOM     34  F   UNL     1      41.161 -55.771  63.741  0.00  0.00    +0.000 F 
ATOM     35  F   UNL     1      42.282 -53.944  63.372  0.00  0.00    +0.000 F 
BRANCH  33  36
ATOM     36  C   UNL     1      43.190 -55.475  64.957  0.00  0.00    +0.000 C 
ATOM     37  F   UNL     1      43.793 -54.333  65.379  0.00  0.00    +0.000 F 
ATOM     38  F   UNL     1      44.162 -56.414  64.842  0.00  0.00    +0.000 F 
ATOM     39  F   UNL     1      42.371 -55.880  65.962  0.00  0.00    +0.000 F 
ENDBRANCH  33  36
ENDBRANCH  32  33
ENDBRANCH  30  31
ENDBRANCH  28  30
ENDBRANCH  27  28
ENDBRANCH  25  26
ENDBRANCH  23  24
ENDBRANCH  22  23
ENDBRANCH  20  21
ENDBRANCH   8  19
BRANCH   6  40
ATOM     40  O   UNL     1      51.260 -47.469  45.625  0.00  0.00    +0.000 OA
ATOM     41  H   UNL     1      50.818 -46.814  45.055  0.00  0.00    +0.000 HD
ENDBRANCH   6  40
BRANCH  18  42
ATOM     42  O   UNL     1      47.413 -39.125  51.215  0.00  0.00    +0.000 OA
ATOM     43  H   UNL     1      48.014 -38.390  51.001  0.00  0.00    +0.000 HD
ENDBRANCH  18  42
TORSDOF 12
ENDMDL
MODEL 4
REMARK VINA RESULT:      -7.1      9.860     16.631
REMARK  Name = Fulvestrant.pdbqt.pdb
REMARK  12 active torsions:
REMARK  status: ('A' for Active; 'I' for Inactive)
REMARK    1  A    between atoms: C_6  and  O_40
REMARK    2  A    between atoms: C_8  and  C_19
REMARK    3  A    between atoms: C_18  and  O_42
REMARK    4  A    between atoms: C_20  and  C_21
REMARK    5  A    between atoms: C_22  and  C_23
REMARK    6  A    between atoms: C_23  and  C_24
REMARK    7  A    between atoms: C_25  and  C_26
REMARK    8  A    between atoms: C_27  and  S_28
REMARK    9  A    between atoms: S_28  and  C_30
REMARK   10  A    between atoms: C_30  and  C_31
REMARK   11  A    between atoms: C_32  and  C_33
REMARK   12  A    between atoms: C_33  and  C_36
REMARK                            x       y       z     vdW  Elec       q    Type
REMARK                         _______ _______ _______ _____ _____    ______ ____
ROOT
ATOM      1  C   UNL     1      45.836 -47.745  50.596  0.00  0.00    +0.000 C 
ATOM      2  C   UNL     1      44.771 -47.446  49.434  0.00  0.00    +0.000 C 
ATOM      3  C   UNL     1      47.318 -47.597  50.425  0.00  0.00    +0.000 A 
ATOM      4  C   UNL     1      47.915 -46.765  49.271  0.00  0.00    +0.000 A 
ATOM      5  C   UNL     1      45.458 -46.585  48.477  0.00  0.00    +0.000 C 
ATOM      6  C   UNL     1      43.627 -46.734  50.189  0.00  0.00    +0.000 C 
ATOM      7  C   UNL     1      45.223 -47.345  51.827  0.00  0.00    +0.000 C 
ATOM      8  C   UNL     1      48.284 -48.225  51.364  0.00  0.00    +0.000 A 
ATOM      9  C   UNL     1      46.926 -46.271  48.387  0.00  0.00    +0.000 C 
ATOM     10  C   UNL     1      43.881 -46.703  51.587  0.00  0.00    +0.000 C 
ATOM     11  C   UNL     1      44.284 -48.795  48.847  0.00  0.00    +0.000 C 
ATOM     12  C   UNL     1      49.377 -46.553  49.080  0.00  0.00    +0.000 A 
ATOM     13  C   UNL     1      49.618 -47.897  51.018  0.00  0.00    +0.000 A 
ATOM     14  C   UNL     1      50.268 -47.149  50.004  0.00  0.00    +0.000 A 
ATOM     15  C   UNL     1      49.903 -45.798  48.034  0.00  0.00    +0.000 A 
ATOM     16  C   UNL     1      51.643 -47.007  49.902  0.00  0.00    +0.000 A 
ATOM     17  C   UNL     1      51.286 -45.644  47.919  0.00  0.00    +0.000 A 
ATOM     18  C   UNL     1      52.138 -46.247  48.846  0.00  0.00    +0.000 A 
ENDROOT
BRANCH   8  19
ATOM     19  C   UNL     1      47.919 -49.173  52.350  0.00  0.00    +0.000 C 
ATOM     20  C   UNL     1      47.503 -50.200  53.407  0.00  0.00    +0.000 C 
BRANCH  20  21
ATOM     21  C   UNL     1      47.060 -51.227  54.453  0.00  0.00    +0.000 C 
ATOM     22  C   UNL     1      46.625 -52.278  55.479  0.00  0.00    +0.000 C 
BRANCH  22  23
ATOM     23  C   UNL     1      46.196 -53.353  56.482  0.00  0.00    +0.000 C 
BRANCH  23  24
ATOM     24  C   UNL     1      45.731 -54.421  57.477  0.00  0.00    +0.000 C 
ATOM     25  C   UNL     1      45.276 -55.467  58.499  0.00  0.00    +0.000 C 
BRANCH  25  26
ATOM     26  C   UNL     1      44.834 -56.493  59.548  0.00  0.00    +0.000 C 
ATOM     27  C   UNL     1      44.374 -57.539  60.569  0.00  0.00    +0.000 C 
BRANCH  27  28
ATOM     28  S   UNL     1      43.828 -58.756  61.718  0.00  0.00    +0.000 S 
ATOM     29  O   UNL     1      45.234 -59.168  62.037  0.00  0.00    +0.000 OA
BRANCH  28  30
ATOM     30  C   UNL     1      43.785 -57.626  63.068  0.00  0.00    +0.000 C 
BRANCH  30  31
ATOM     31  C   UNL     1      43.764 -56.657  64.255  0.00  0.00    +0.000 C 
ATOM     32  C   UNL     1      43.762 -55.688  65.443  0.00  0.00    +0.000 C 
BRANCH  32  33
ATOM     33  C   UNL     1      43.769 -54.763  66.579  0.00  0.00    +0.000 C 
ATOM     34  F   UNL     1      42.576 -54.884  67.226  0.00  0.00    +0.000 F 
ATOM     35  F   UNL     1      43.797 -53.494  66.082  0.00  0.00    +0.000 F 
BRANCH  33  36
ATOM     36  C   UNL     1      44.937 -54.995  67.542  0.00  0.00    +0.000 C 
ATOM     37  F   UNL     1      44.930 -56.251  68.057  0.00  0.00    +0.000 F 
ATOM     38  F   UNL     1      44.913 -54.138  68.593  0.00  0.00    +0.000 F 
ATOM     39  F   UNL     1      46.137 -54.830  66.929  0.00  0.00    +0.000 F 
ENDBRANCH  33  36
ENDBRANCH  32  33
ENDBRANCH  30  31
ENDBRANCH  28  30
ENDBRANCH  27  28
ENDBRANCH  25  26
ENDBRANCH  23  24
ENDBRANCH  22  23
ENDBRANCH  20  21
ENDBRANCH   8  19
BRANCH   6  40
ATOM     40  O   UNL     1      42.768 -45.845  49.578  0.00  0.00    +0.000 OA
ATOM     41  H   UNL     1      42.509 -46.147  48.689  0.00  0.00    +0.000 HD
ENDBRANCH   6  40
BRANCH  18  42
ATOM     42  O   UNL     1      53.484 -46.069  48.692  0.00  0.00    +0.000 OA
ATOM     43  H   UNL     1      53.759 -45.315  49.242  0.00  0.00    +0.000 HD
ENDBRANCH  18  42
TORSDOF 12
ENDMDL
MODEL 5
REMARK VINA RESULT:      -7.1      9.849     14.956
REMARK  Name = Fulvestrant.pdbqt.pdb
REMARK  12 active torsions:
REMARK  status: ('A' for Active; 'I' for Inactive)
REMARK    1  A    between atoms: C_6  and  O_40
REMARK    2  A    between atoms: C_8  and  C_19
REMARK    3  A    between atoms: C_18  and  O_42
REMARK    4  A    between atoms: C_20  and  C_21
REMARK    5  A    between atoms: C_22  and  C_23
REMARK    6  A    between atoms: C_23  and  C_24
REMARK    7  A    between atoms: C_25  and  C_26
REMARK    8  A    between atoms: C_27  and  S_28
REMARK    9  A    between atoms: S_28  and  C_30
REMARK   10  A    between atoms: C_30  and  C_31
REMARK   11  A    between atoms: C_32  and  C_33
REMARK   12  A    between atoms: C_33  and  C_36
REMARK                            x       y       z     vdW  Elec       q    Type
REMARK                         _______ _______ _______ _____ _____    ______ ____
ROOT
ATOM      1  C   UNL     1      47.943 -41.391  45.880  0.00  0.00    +0.000 C 
ATOM      2  C   UNL     1      46.988 -42.154  44.841  0.00  0.00    +0.000 C 
ATOM      3  C   UNL     1      48.026 -41.730  47.338  0.00  0.00    +0.000 A 
ATOM      4  C   UNL     1      47.522 -43.085  47.878  0.00  0.00    +0.000 A 
ATOM      5  C   UNL     1      46.677 -43.439  45.459  0.00  0.00    +0.000 C 
ATOM      6  C   UNL     1      47.876 -42.276  43.583  0.00  0.00    +0.000 C 
ATOM      7  C   UNL     1      49.135 -41.047  45.165  0.00  0.00    +0.000 C 
ATOM      8  C   UNL     1      48.613 -40.793  48.332  0.00  0.00    +0.000 A 
ATOM      9  C   UNL     1      46.912 -43.878  46.877  0.00  0.00    +0.000 C 
ATOM     10  C   UNL     1      49.114 -41.604  43.766  0.00  0.00    +0.000 C 
ATOM     11  C   UNL     1      45.751 -41.265  44.557  0.00  0.00    +0.000 C 
ATOM     12  C   UNL     1      47.619 -43.487  49.309  0.00  0.00    +0.000 A 
ATOM     13  C   UNL     1      48.623 -41.363  49.627  0.00  0.00    +0.000 A 
ATOM     14  C   UNL     1      48.201 -42.578  50.225  0.00  0.00    +0.000 A 
ATOM     15  C   UNL     1      47.162 -44.715  49.784  0.00  0.00    +0.000 A 
ATOM     16  C   UNL     1      48.330 -42.869  51.574  0.00  0.00    +0.000 A 
ATOM     17  C   UNL     1      47.285 -45.022  51.140  0.00  0.00    +0.000 A 
ATOM     18  C   UNL     1      47.863 -44.102  52.017  0.00  0.00    +0.000 A 
ENDROOT
BRANCH   8  19
ATOM     19  C   UNL     1      48.939 -39.446  48.043  0.00  0.00    +0.000 C 
ATOM     20  C   UNL     1      49.303 -37.987  47.749  0.00  0.00    +0.000 C 
BRANCH  20  21
ATOM     21  C   UNL     1      49.679 -36.527  47.481  0.00  0.00    +0.000 C 
ATOM     22  C   UNL     1      50.085 -35.076  47.205  0.00  0.00    +0.000 C 
BRANCH  22  23
ATOM     23  C   UNL     1      50.523 -33.636  46.922  0.00  0.00    +0.000 C 
BRANCH  23  24
ATOM     24  C   UNL     1      50.991 -32.201  46.661  0.00  0.00    +0.000 C 
ATOM     25  C   UNL     1      51.477 -30.767  46.429  0.00  0.00    +0.000 C 
BRANCH  25  26
ATOM     26  C   UNL     1      51.979 -29.333  46.229  0.00  0.00    +0.000 C 
ATOM     27  C   UNL     1      52.470 -27.891  46.064  0.00  0.00    +0.000 C 
BRANCH  27  28
ATOM     28  S   UNL     1      53.019 -26.226  45.904  0.00  0.00    +0.000 S 
ATOM     29  O   UNL     1      51.715 -25.793  45.303  0.00  0.00    +0.000 OA
BRANCH  28  30
ATOM     30  C   UNL     1      52.494 -25.778  47.524  0.00  0.00    +0.000 C 
BRANCH  30  31
ATOM     31  C   UNL     1      52.025 -25.409  48.936  0.00  0.00    +0.000 C 
ATOM     32  C   UNL     1      51.566 -25.055  50.355  0.00  0.00    +0.000 C 
BRANCH  32  33
ATOM     33  C   UNL     1      51.131 -24.724  51.715  0.00  0.00    +0.000 C 
ATOM     34  F   UNL     1      50.726 -25.877  52.318  0.00  0.00    +0.000 F 
ATOM     35  F   UNL     1      50.020 -23.943  51.618  0.00  0.00    +0.000 F 
BRANCH  33  36
ATOM     36  C   UNL     1      52.214 -24.028  52.545  0.00  0.00    +0.000 C 
ATOM     37  F   UNL     1      51.803 -22.818  53.006  0.00  0.00    +0.000 F 
ATOM     38  F   UNL     1      53.348 -23.813  51.832  0.00  0.00    +0.000 F 
ATOM     39  F   UNL     1      52.567 -24.762  53.631  0.00  0.00    +0.000 F 
ENDBRANCH  33  36
ENDBRANCH  32  33
ENDBRANCH  30  31
ENDBRANCH  28  30
ENDBRANCH  27  28
ENDBRANCH  25  26
ENDBRANCH  23  24
ENDBRANCH  22  23
ENDBRANCH  20  21
ENDBRANCH   8  19
BRANCH   6  40
ATOM     40  O   UNL     1      47.712 -43.277  42.648  0.00  0.00    +0.000 OA
ATOM     41  H   UNL     1      46.773 -43.422  42.434  0.00  0.00    +0.000 HD
ENDBRANCH   6  40
BRANCH  18  42
ATOM     42  O   UNL     1      47.961 -44.447  53.336  0.00  0.00    +0.000 OA
ATOM     43  H   UNL     1      48.137 -45.403  53.391  0.00  0.00    +0.000 HD
ENDBRANCH  18  42
TORSDOF 12
ENDMDL
MODEL 6
REMARK VINA RESULT:      -6.8      1.877      2.471
REMARK  Name = Fulvestrant.pdbqt.pdb
REMARK  12 active torsions:
REMARK  status: ('A' for Active; 'I' for Inactive)
REMARK    1  A    between atoms: C_6  and  O_40
REMARK    2  A    between atoms: C_8  and  C_19
REMARK    3  A    between atoms: C_18  and  O_42
REMARK    4  A    between atoms: C_20  and  C_21
REMARK    5  A    between atoms: C_22  and  C_23
REMARK    6  A    between atoms: C_23  and  C_24
REMARK    7  A    between atoms: C_25  and  C_26
REMARK    8  A    between atoms: C_27  and  S_28
REMARK    9  A    between atoms: S_28  and  C_30
REMARK   10  A    between atoms: C_30  and  C_31
REMARK   11  A    between atoms: C_32  and  C_33
REMARK   12  A    between atoms: C_33  and  C_36
REMARK                            x       y       z     vdW  Elec       q    Type
REMARK                         _______ _______ _______ _____ _____    ______ ____
ROOT
ATOM      1  C   UNL     1      48.005 -54.463  55.980  0.00  0.00    +0.000 C 
ATOM      2  C   UNL     1      49.079 -55.634  56.200  0.00  0.00    +0.000 C 
ATOM      3  C   UNL     1      46.532 -54.632  56.200  0.00  0.00    +0.000 A 
ATOM      4  C   UNL     1      45.973 -55.801  57.038  0.00  0.00    +0.000 A 
ATOM      5  C   UNL     1      48.432 -56.605  57.076  0.00  0.00    +0.000 C 
ATOM      6  C   UNL     1      50.261 -54.896  56.867  0.00  0.00    +0.000 C 
ATOM      7  C   UNL     1      48.643 -53.242  56.372  0.00  0.00    +0.000 C 
ATOM      8  C   UNL     1      45.538 -53.678  55.641  0.00  0.00    +0.000 A 
ATOM      9  C   UNL     1      46.983 -56.697  57.463  0.00  0.00    +0.000 C 
ATOM     10  C   UNL     1      50.015 -53.499  56.939  0.00  0.00    +0.000 C 
ATOM     11  C   UNL     1      49.493 -56.196  54.816  0.00  0.00    +0.000 C 
ATOM     12  C   UNL     1      44.523 -55.991  57.321  0.00  0.00    +0.000 A 
ATOM     13  C   UNL     1      44.222 -54.026  56.030  0.00  0.00    +0.000 A 
ATOM     14  C   UNL     1      43.606 -55.053  56.790  0.00  0.00    +0.000 A 
ATOM     15  C   UNL     1      44.032 -57.049  58.082  0.00  0.00    +0.000 A 
ATOM     16  C   UNL     1      42.241 -55.153  57.001  0.00  0.00    +0.000 A 
ATOM     17  C   UNL     1      42.658 -57.164  58.304  0.00  0.00    +0.000 A 
ATOM     18  C   UNL     1      41.781 -56.222  57.764  0.00  0.00    +0.000 A 
ENDROOT
BRANCH   8  19
ATOM     19  C   UNL     1      45.859 -52.674  54.695  0.00  0.00    +0.000 C 
ATOM     20  C   UNL     1      46.218 -51.603  53.661  0.00  0.00    +0.000 C 
BRANCH  20  21
ATOM     21  C   UNL     1      46.594 -50.552  52.613  0.00  0.00    +0.000 C 
ATOM     22  C   UNL     1      46.967 -49.477  51.587  0.00  0.00    +0.000 C 
BRANCH  22  23
ATOM     23  C   UNL     1      47.332 -48.378  50.585  0.00  0.00    +0.000 C 
BRANCH  23  24
ATOM     24  C   UNL     1      47.677 -47.295  49.557  0.00  0.00    +0.000 C 
ATOM     25  C   UNL     1      48.055 -46.211  48.543  0.00  0.00    +0.000 C 
BRANCH  25  26
ATOM     26  C   UNL     1      48.464 -45.123  47.545  0.00  0.00    +0.000 C 
ATOM     27  C   UNL     1      48.885 -44.062  46.524  0.00  0.00    +0.000 C 
BRANCH  27  28
ATOM     28  S   UNL     1      49.382 -42.867  45.330  0.00  0.00    +0.000 S 
ATOM     29  O   UNL     1      47.964 -42.606  44.917  0.00  0.00    +0.000 OA
BRANCH  28  30
ATOM     30  C   UNL     1      49.358 -41.537  46.484  0.00  0.00    +0.000 C 
BRANCH  30  31
ATOM     31  C   UNL     1      49.314 -40.386  47.495  0.00  0.00    +0.000 C 
ATOM     32  C   UNL     1      49.278 -39.246  48.519  0.00  0.00    +0.000 C 
BRANCH  32  33
ATOM     33  C   UNL     1      49.247 -38.163  49.506  0.00  0.00    +0.000 C 
ATOM     34  F   UNL     1      48.235 -37.315  49.166  0.00  0.00    +0.000 F 
ATOM     35  F   UNL     1      50.397 -37.445  49.372  0.00  0.00    +0.000 F 
BRANCH  33  36
ATOM     36  C   UNL     1      49.080 -38.659  50.946  0.00  0.00    +0.000 C 
ATOM     37  F   UNL     1      48.041 -38.053  51.576  0.00  0.00    +0.000 F 
ATOM     38  F   UNL     1      50.185 -38.429  51.697  0.00  0.00    +0.000 F 
ATOM     39  F   UNL     1      48.843 -39.995  50.994  0.00  0.00    +0.000 F 
ENDBRANCH  33  36
ENDBRANCH  32  33
ENDBRANCH  30  31
ENDBRANCH  28  30
ENDBRANCH  27  28
ENDBRANCH  25  26
ENDBRANCH  23  24
ENDBRANCH  22  23
ENDBRANCH  20  21
ENDBRANCH   8  19
BRANCH   6  40
ATOM     40  O   UNL     1      51.161 -55.528  57.699  0.00  0.00    +0.000 OA
ATOM     41  H   UNL     1      50.800 -56.358  58.059  0.00  0.00    +0.000 HD
ENDBRANCH   6  40
BRANCH  18  42
ATOM     42  O   UNL     1      40.445 -56.375  58.007  0.00  0.00    +0.000 OA
ATOM     43  H   UNL     1      40.213 -57.310  57.868  0.00  0.00    +0.000 HD
ENDBRANCH  18  42
TORSDOF 12
ENDMDL
MODEL 7
REMARK VINA RESULT:      -6.6      7.866     17.033
REMARK  Name = Fulvestrant.pdbqt.pdb
REMARK  12 active torsions:
REMARK  status: ('A' for Active; 'I' for Inactive)
REMARK    1  A    between atoms: C_6  and  O_40
REMARK    2  A    between atoms: C_8  and  C_19
REMARK    3  A    between atoms: C_18  and  O_42
REMARK    4  A    between atoms: C_20  and  C_21
REMARK    5  A    between atoms: C_22  and  C_23
REMARK    6  A    between atoms: C_23  and  C_24
REMARK    7  A    between atoms: C_25  and  C_26
REMARK    8  A    between atoms: C_27  and  S_28
REMARK    9  A    between atoms: S_28  and  C_30
REMARK   10  A    between atoms: C_30  and  C_31
REMARK   11  A    between atoms: C_32  and  C_33
REMARK   12  A    between atoms: C_33  and  C_36
REMARK                            x       y       z     vdW  Elec       q    Type
REMARK                         _______ _______ _______ _____ _____    ______ ____
ROOT
ATOM      1  C   UNL     1      48.205 -42.751  47.824  0.00  0.00    +0.000 C 
ATOM      2  C   UNL     1      49.017 -42.758  46.440  0.00  0.00    +0.000 C 
ATOM      3  C   UNL     1      48.264 -41.632  48.818  0.00  0.00    +0.000 A 
ATOM      4  C   UNL     1      48.775 -40.231  48.422  0.00  0.00    +0.000 A 
ATOM      5  C   UNL     1      49.347 -41.363  46.167  0.00  0.00    +0.000 C 
ATOM      6  C   UNL     1      47.998 -43.355  45.445  0.00  0.00    +0.000 C 
ATOM      7  C   UNL     1      46.957 -43.406  47.570  0.00  0.00    +0.000 C 
ATOM      8  C   UNL     1      47.819 -41.806  50.226  0.00  0.00    +0.000 A 
ATOM      9  C   UNL     1      49.247 -40.180  47.089  0.00  0.00    +0.000 C 
ATOM     10  C   UNL     1      46.810 -43.758  46.112  0.00  0.00    +0.000 C 
ATOM     11  C   UNL     1      50.247 -43.689  46.590  0.00  0.00    +0.000 C 
ATOM     12  C   UNL     1      48.816 -39.074  49.360  0.00  0.00    +0.000 A 
ATOM     13  C   UNL     1      47.927 -40.593  50.949  0.00  0.00    +0.000 A 
ATOM     14  C   UNL     1      48.366 -39.270  50.688  0.00  0.00    +0.000 A 
ATOM     15  C   UNL     1      49.277 -37.813  48.989  0.00  0.00    +0.000 A 
ATOM     16  C   UNL     1      48.371 -38.252  51.627  0.00  0.00    +0.000 A 
ATOM     17  C   UNL     1      49.288 -36.777  49.925  0.00  0.00    +0.000 A 
ATOM     18  C   UNL     1      48.838 -37.004  51.227  0.00  0.00    +0.000 A 
ENDROOT
BRANCH   8  19
ATOM     19  C   UNL     1      47.512 -43.062  50.803  0.00  0.00    +0.000 C 
ATOM     20  C   UNL     1      47.201 -44.427  51.423  0.00  0.00    +0.000 C 
BRANCH  20  21
ATOM     21  C   UNL     1      46.916 -45.802  52.034  0.00  0.00    +0.000 C 
ATOM     22  C   UNL     1      46.647 -47.190  52.622  0.00  0.00    +0.000 C 
BRANCH  22  23
ATOM     23  C   UNL     1      46.393 -48.593  53.183  0.00  0.00    +0.000 C 
BRANCH  23  24
ATOM     24  C   UNL     1      46.116 -49.982  53.767  0.00  0.00    +0.000 C 
ATOM     25  C   UNL     1      45.806 -51.368  54.340  0.00  0.00    +0.000 C 
BRANCH  25  26
ATOM     26  C   UNL     1      45.461 -52.750  54.905  0.00  0.00    +0.000 C 
ATOM     27  C   UNL     1      45.080 -54.122  55.472  0.00  0.00    +0.000 C 
BRANCH  27  28
ATOM     28  S   UNL     1      44.610 -55.686  56.128  0.00  0.00    +0.000 S 
ATOM     29  O   UNL     1      44.671 -56.335  54.777  0.00  0.00    +0.000 OA
BRANCH  28  30
ATOM     30  C   UNL     1      46.266 -56.156  56.499  0.00  0.00    +0.000 C 
BRANCH  30  31
ATOM     31  C   UNL     1      47.710 -56.545  56.835  0.00  0.00    +0.000 C 
ATOM     32  C   UNL     1      49.158 -56.916  57.173  0.00  0.00    +0.000 C 
BRANCH  32  33
ATOM     33  C   UNL     1      50.545 -57.261  57.495  0.00  0.00    +0.000 C 
ATOM     34  F   UNL     1      51.061 -57.954  56.441  0.00  0.00    +0.000 F 
ATOM     35  F   UNL     1      50.525 -58.133  58.542  0.00  0.00    +0.000 F 
BRANCH  33  36
ATOM     36  C   UNL     1      51.413 -56.041  57.821  0.00  0.00    +0.000 C 
ATOM     37  F   UNL     1      51.218 -55.027  56.940  0.00  0.00    +0.000 F 
ATOM     38  F   UNL     1      52.737 -56.334  57.798  0.00  0.00    +0.000 F 
ATOM     39  F   UNL     1      51.143 -55.545  59.056  0.00  0.00    +0.000 F 
ENDBRANCH  33  36
ENDBRANCH  32  33
ENDBRANCH  30  31
ENDBRANCH  28  30
ENDBRANCH  27  28
ENDBRANCH  25  26
ENDBRANCH  23  24
ENDBRANCH  22  23
ENDBRANCH  20  21
ENDBRANCH   8  19
BRANCH   6  40
ATOM     40  O   UNL     1      48.026 -43.082  44.093  0.00  0.00    +0.000 OA
ATOM     41  H   UNL     1      48.582 -43.717  43.608  0.00  0.00    +0.000 HD
ENDBRANCH   6  40
BRANCH  18  42
ATOM     42  O   UNL     1      48.868 -35.959  52.107  0.00  0.00    +0.000 OA
ATOM     43  H   UNL     1      48.412 -36.232  52.923  0.00  0.00    +0.000 HD
ENDBRANCH  18  42
TORSDOF 12
ENDMDL
MODEL 8
REMARK VINA RESULT:      -6.5      5.383      6.522
REMARK  Name = Fulvestrant.pdbqt.pdb
REMARK  12 active torsions:
REMARK  status: ('A' for Active; 'I' for Inactive)
REMARK    1  A    between atoms: C_6  and  O_40
REMARK    2  A    between atoms: C_8  and  C_19
REMARK    3  A    between atoms: C_18  and  O_42
REMARK    4  A    between atoms: C_20  and  C_21
REMARK    5  A    between atoms: C_22  and  C_23
REMARK    6  A    between atoms: C_23  and  C_24
REMARK    7  A    between atoms: C_25  and  C_26
REMARK    8  A    between atoms: C_27  and  S_28
REMARK    9  A    between atoms: S_28  and  C_30
REMARK   10  A    between atoms: C_30  and  C_31
REMARK   11  A    between atoms: C_32  and  C_33
REMARK   12  A    between atoms: C_33  and  C_36
REMARK                            x       y       z     vdW  Elec       q    Type
REMARK                         _______ _______ _______ _____ _____    ______ ____
ROOT
ATOM      1  C   UNL     1      48.907 -56.728  58.463  0.00  0.00    +0.000 C 
ATOM      2  C   UNL     1      49.870 -58.002  58.312  0.00  0.00    +0.000 C 
ATOM      3  C   UNL     1      47.566 -56.772  59.131  0.00  0.00    +0.000 A 
ATOM      4  C   UNL     1      47.178 -57.926  60.079  0.00  0.00    +0.000 A 
ATOM      5  C   UNL     1      49.431 -58.953  59.327  0.00  0.00    +0.000 C 
ATOM      6  C   UNL     1      51.270 -57.410  58.589  0.00  0.00    +0.000 C 
ATOM      7  C   UNL     1      49.757 -55.592  58.659  0.00  0.00    +0.000 C 
ATOM      8  C   UNL     1      46.552 -55.704  58.931  0.00  0.00    +0.000 A 
ATOM      9  C   UNL     1      48.172 -58.932  60.148  0.00  0.00    +0.000 C 
ATOM     10  C   UNL     1      51.204 -56.002  58.761  0.00  0.00    +0.000 C 
ATOM     11  C   UNL     1      49.775 -58.528  56.857  0.00  0.00    +0.000 C 
ATOM     12  C   UNL     1      45.876 -57.997  60.799  0.00  0.00    +0.000 A 
ATOM     13  C   UNL     1      45.393 -55.950  59.706  0.00  0.00    +0.000 A 
ATOM     14  C   UNL     1      44.941 -56.953  60.601  0.00  0.00    +0.000 A 
ATOM     15  C   UNL     1      45.539 -59.044  61.654  0.00  0.00    +0.000 A 
ATOM     16  C   UNL     1      43.706 -56.939  61.228  0.00  0.00    +0.000 A 
ATOM     17  C   UNL     1      44.298 -59.043  62.294  0.00  0.00    +0.000 A 
ATOM     18  C   UNL     1      43.398 -57.998  62.076  0.00  0.00    +0.000 A 
ENDROOT
BRANCH   8  19
ATOM     19  C   UNL     1      46.665 -54.688  57.952  0.00  0.00    +0.000 C 
ATOM     20  C   UNL     1      46.767 -53.581  56.897  0.00  0.00    +0.000 C 
BRANCH  20  21
ATOM     21  C   UNL     1      46.840 -52.469  55.848  0.00  0.00    +0.000 C 
ATOM     22  C   UNL     1      46.926 -51.336  54.820  0.00  0.00    +0.000 C 
BRANCH  22  23
ATOM     23  C   UNL     1      47.021 -50.182  53.818  0.00  0.00    +0.000 C 
BRANCH  23  24
ATOM     24  C   UNL     1      47.150 -49.021  52.825  0.00  0.00    +0.000 C 
ATOM     25  C   UNL     1      47.314 -47.862  51.838  0.00  0.00    +0.000 C 
BRANCH  25  26
ATOM     26  C   UNL     1      47.513 -46.701  50.858  0.00  0.00    +0.000 C 
ATOM     27  C   UNL     1      47.684 -45.555  49.857  0.00  0.00    +0.000 C 
BRANCH  27  28
ATOM     28  S   UNL     1      47.857 -44.252  48.686  0.00  0.00    +0.000 S 
ATOM     29  O   UNL     1      48.135 -43.244  49.762  0.00  0.00    +0.000 OA
BRANCH  28  30
ATOM     30  C   UNL     1      49.575 -44.551  48.436  0.00  0.00    +0.000 C 
BRANCH  30  31
ATOM     31  C   UNL     1      51.069 -44.828  48.237  0.00  0.00    +0.000 C 
ATOM     32  C   UNL     1      52.567 -45.089  48.049  0.00  0.00    +0.000 C 
BRANCH  32  33
ATOM     33  C   UNL     1      54.002 -45.331  47.874  0.00  0.00    +0.000 C 
ATOM     34  F   UNL     1      54.252 -46.629  48.206  0.00  0.00    +0.000 F 
ATOM     35  F   UNL     1      54.667 -44.576  48.794  0.00  0.00    +0.000 F 
BRANCH  33  36
ATOM     36  C   UNL     1      54.500 -45.025  46.458  0.00  0.00    +0.000 C 
ATOM     37  F   UNL     1      55.074 -46.109  45.875  0.00  0.00    +0.000 F 
ATOM     38  F   UNL     1      55.425 -44.034  46.443  0.00  0.00    +0.000 F 
ATOM     39  F   UNL     1      53.489 -44.631  45.642  0.00  0.00    +0.000 F 
ENDBRANCH  33  36
ENDBRANCH  32  33
ENDBRANCH  30  31
ENDBRANCH  28  30
ENDBRANCH  27  28
ENDBRANCH  25  26
ENDBRANCH  23  24
ENDBRANCH  22  23
ENDBRANCH  20  21
ENDBRANCH   8  19
BRANCH   6  40
ATOM     40  O   UNL     1      52.314 -58.164  59.083  0.00  0.00    +0.000 OA
ATOM     41  H   UNL     1      52.011 -59.026  59.419  0.00  0.00    +0.000 HD
ENDBRANCH   6  40
BRANCH  18  42
ATOM     42  O   UNL     1      42.196 -58.042  62.723  0.00  0.00    +0.000 OA
ATOM     43  H   UNL     1      41.872 -58.959  62.709  0.00  0.00    +0.000 HD
ENDBRANCH  18  42
TORSDOF 12
ENDMDL
MODEL 9
REMARK VINA RESULT:      -6.4     10.254     16.958
REMARK  Name = Fulvestrant.pdbqt.pdb
REMARK  12 active torsions:
REMARK  status: ('A' for Active; 'I' for Inactive)
REMARK    1  A    between atoms: C_6  and  O_40
REMARK    2  A    between atoms: C_8  and  C_19
REMARK    3  A    between atoms: C_18  and  O_42
REMARK    4  A    between atoms: C_20  and  C_21
REMARK    5  A    between atoms: C_22  and  C_23
REMARK    6  A    between atoms: C_23  and  C_24
REMARK    7  A    between atoms: C_25  and  C_26
REMARK    8  A    between atoms: C_27  and  S_28
REMARK    9  A    between atoms: S_28  and  C_30
REMARK   10  A    between atoms: C_30  and  C_31
REMARK   11  A    between atoms: C_32  and  C_33
REMARK   12  A    between atoms: C_33  and  C_36
REMARK                            x       y       z     vdW  Elec       q    Type
REMARK                         _______ _______ _______ _____ _____    ______ ____
ROOT
ATOM      1  C   UNL     1      45.805 -48.222  50.478  0.00  0.00    +0.000 C 
ATOM      2  C   UNL     1      44.737 -48.072  49.291  0.00  0.00    +0.000 C 
ATOM      3  C   UNL     1      47.265 -47.917  50.329  0.00  0.00    +0.000 A 
ATOM      4  C   UNL     1      47.790 -47.054  49.162  0.00  0.00    +0.000 A 
ATOM      5  C   UNL     1      45.345 -47.165  48.323  0.00  0.00    +0.000 C 
ATOM      6  C   UNL     1      43.508 -47.471  50.007  0.00  0.00    +0.000 C 
ATOM      7  C   UNL     1      45.128 -47.861  51.688  0.00  0.00    +0.000 C 
ATOM      8  C   UNL     1      48.276 -48.411  51.301  0.00  0.00    +0.000 A 
ATOM      9  C   UNL     1      46.771 -46.693  48.249  0.00  0.00    +0.000 C 
ATOM     10  C   UNL     1      43.729 -47.378  51.407  0.00  0.00    +0.000 C 
ATOM     11  C   UNL     1      44.413 -49.480  48.732  0.00  0.00    +0.000 C 
ATOM     12  C   UNL     1      49.224 -46.687  48.991  0.00  0.00    +0.000 A 
ATOM     13  C   UNL     1      49.572 -47.947  50.969  0.00  0.00    +0.000 A 
ATOM     14  C   UNL     1      50.157 -47.158  49.946  0.00  0.00    +0.000 A 
ATOM     15  C   UNL     1      49.685 -45.904  47.935  0.00  0.00    +0.000 A 
ATOM     16  C   UNL     1      51.509 -46.868  49.863  0.00  0.00    +0.000 A 
ATOM     17  C   UNL     1      51.045 -45.603  47.838  0.00  0.00    +0.000 A 
ATOM     18  C   UNL     1      51.939 -46.084  48.796  0.00  0.00    +0.000 A 
ENDROOT
BRANCH   8  19
ATOM     19  C   UNL     1      47.997 -49.368  52.305  0.00  0.00    +0.000 C 
ATOM     20  C   UNL     1      47.696 -50.388  53.408  0.00  0.00    +0.000 C 
BRANCH  20  21
ATOM     21  C   UNL     1      47.399 -51.387  54.529  0.00  0.00    +0.000 C 
ATOM     22  C   UNL     1      47.124 -52.406  55.640  0.00  0.00    +0.000 C 
BRANCH  22  23
ATOM     23  C   UNL     1      46.871 -53.447  56.735  0.00  0.00    +0.000 C 
BRANCH  23  24
ATOM     24  C   UNL     1      46.654 -54.490  57.836  0.00  0.00    +0.000 C 
ATOM     25  C   UNL     1      46.460 -55.555  58.920  0.00  0.00    +0.000 C 
BRANCH  25  26
ATOM     26  C   UNL     1      46.285 -56.642  59.985  0.00  0.00    +0.000 C 
ATOM     27  C   UNL     1      46.086 -57.708  61.067  0.00  0.00    +0.000 C 
BRANCH  27  28
ATOM     28  S   UNL     1      45.834 -58.911  62.327  0.00  0.00    +0.000 S 
ATOM     29  O   UNL     1      46.606 -58.106  63.330  0.00  0.00    +0.000 OA
BRANCH  28  30
ATOM     30  C   UNL     1      44.305 -58.212  62.848  0.00  0.00    +0.000 C 
BRANCH  30  31
ATOM     31  C   UNL     1      42.979 -57.608  63.326  0.00  0.00    +0.000 C 
ATOM     32  C   UNL     1      41.656 -56.990  63.791  0.00  0.00    +0.000 C 
BRANCH  32  33
ATOM     33  C   UNL     1      40.394 -56.390  64.231  0.00  0.00    +0.000 C 
ATOM     34  F   UNL     1      39.375 -57.090  63.657  0.00  0.00    +0.000 F 
ATOM     35  F   UNL     1      40.324 -55.134  63.707  0.00  0.00    +0.000 F 
BRANCH  33  36
ATOM     36  C   UNL     1      40.239 -56.353  65.754  0.00  0.00    +0.000 C 
ATOM     37  F   UNL     1      41.333 -55.829  66.364  0.00  0.00    +0.000 F 
ATOM     38  F   UNL     1      40.048 -57.588  66.280  0.00  0.00    +0.000 F 
ATOM     39  F   UNL     1      39.178 -55.596  66.135  0.00  0.00    +0.000 F 
ENDBRANCH  33  36
ENDBRANCH  32  33
ENDBRANCH  30  31
ENDBRANCH  28  30
ENDBRANCH  27  28
ENDBRANCH  25  26
ENDBRANCH  23  24
ENDBRANCH  22  23
ENDBRANCH  20  21
ENDBRANCH   8  19
BRANCH   6  40
ATOM     40  O   UNL     1      42.569 -46.698  49.357  0.00  0.00    +0.000 OA
ATOM     41  H   UNL     1      41.728 -46.661  49.848  0.00  0.00    +0.000 HD
ENDBRANCH   6  40
BRANCH  18  42
ATOM     42  O   UNL     1      53.260 -45.764  48.660  0.00  0.00    +0.000 OA
ATOM     43  H   UNL     1      53.682 -45.820  49.535  0.00  0.00    +0.000 HD
ENDBRANCH  18  42
TORSDOF 12
ENDMDL
