MODEL 1
REMARK VINA RESULT:      -7.0      0.000      0.000
REMARK  Name = Gefitinib.pdbqt.pdb
REMARK  6 active torsions:
REMARK  status: ('A' for Active; 'I' for Inactive)
REMARK    1  A    between atoms: C_3  and  O_11
REMARK    2  A    between atoms: C_6  and  O_21
REMARK    3  A    between atoms: O_11  and  C_12
REMARK    4  A    between atoms: C_13  and  C_14
REMARK    5  A    between atoms: C_14  and  N_15
REMARK    6  A    between atoms: N_23  and  C_25
REMARK                            x       y       z     vdW  Elec       q    Type
REMARK                         _______ _______ _______ _____ _____    ______ ____
ROOT
ATOM      1  N   UNL     1      47.711 -40.554  51.425  0.00  0.00    +0.000 NA
ATOM      2  N   UNL     1      48.196 -39.804  49.216  0.00  0.00    +0.000 NA
ATOM      3  C   UNL     1      48.679 -44.468  50.400  0.00  0.00    +0.000 A 
ATOM      4  C   UNL     1      48.463 -42.114  49.776  0.00  0.00    +0.000 A 
ATOM      5  C   UNL     1      48.777 -43.446  49.455  0.00  0.00    +0.000 A 
ATOM      6  C   UNL     1      48.262 -44.152  51.694  0.00  0.00    +0.000 A 
ATOM      7  C   UNL     1      48.035 -41.796  51.067  0.00  0.00    +0.000 A 
ATOM      8  C   UNL     1      47.947 -42.822  51.999  0.00  0.00    +0.000 A 
ATOM      9  C   UNL     1      48.538 -41.053  48.863  0.00  0.00    +0.000 A 
ATOM     10  C   UNL     1      47.801 -39.610  50.480  0.00  0.00    +0.000 A 
ATOM     11  N   UNL     1      48.945 -41.320  47.530  0.00  0.00    +0.000 N 
ATOM     12  H   UNL     1      49.768 -41.913  47.511  0.00  0.00    +0.000 HD
ENDROOT
BRANCH  11  13
ATOM     13  C   UNL     1      48.896 -40.451  46.418  0.00  0.00    +0.000 A 
ATOM     14  C   UNL     1      47.685 -40.298  45.731  0.00  0.00    +0.000 A 
ATOM     15  C   UNL     1      47.561 -39.375  44.695  0.00  0.00    +0.000 A 
ATOM     16 CL   UNL     1      46.061 -39.256  43.867  0.00  0.00    +0.000 Cl
ATOM     17  C   UNL     1      48.642 -38.571  44.352  0.00  0.00    +0.000 A 
ATOM     18  F   UNL     1      48.542 -37.677  43.357  0.00  0.00    +0.000 F 
ATOM     19  C   UNL     1      49.842 -38.676  45.043  0.00  0.00    +0.000 A 
ATOM     20  C   UNL     1      49.954 -39.600  46.080  0.00  0.00    +0.000 A 
ENDBRANCH  11  13
BRANCH   6  21
ATOM     21  O   UNL     1      48.178 -45.188  52.594  0.00  0.00    +0.000 OA
ATOM     22  C   UNL     1      46.903 -45.742  52.764  0.00  0.00    +0.000 C 
ENDBRANCH   6  21
BRANCH   3  23
ATOM     23  O   UNL     1      48.977 -45.781  50.126  0.00  0.00    +0.000 OA
BRANCH  23  24
ATOM     24  C   UNL     1      50.195 -45.982  49.628  0.00  0.00    +0.000 C 
ATOM     25  C   UNL     1      51.592 -46.208  49.038  0.00  0.00    +0.000 C 
BRANCH  25  26
ATOM     26  C   UNL     1      52.977 -46.419  48.418  0.00  0.00    +0.000 C 
BRANCH  26  27
ATOM     27  N   UNL     1      54.287 -46.622  47.816  0.00  0.00    +0.000 N 
ATOM     28  C   UNL     1      54.147 -47.765  46.863  0.00  0.00    +0.000 C 
ATOM     29  C   UNL     1      54.181 -47.748  45.300  0.00  0.00    +0.000 C 
ATOM     30  O   UNL     1      54.327 -46.784  44.364  0.00  0.00    +0.000 OA
ATOM     31  C   UNL     1      54.452 -45.753  45.223  0.00  0.00    +0.000 C 
ATOM     32  C   UNL     1      54.447 -45.567  46.770  0.00  0.00    +0.000 C 
ENDBRANCH  26  27
ENDBRANCH  25  26
ENDBRANCH  23  24
ENDBRANCH   3  23
TORSDOF 6
ENDMDL
MODEL 2
REMARK VINA RESULT:      -6.8      4.674      8.138
REMARK  Name = Gefitinib.pdbqt.pdb
REMARK  6 active torsions:
REMARK  status: ('A' for Active; 'I' for Inactive)
REMARK    1  A    between atoms: C_3  and  O_11
REMARK    2  A    between atoms: C_6  and  O_21
REMARK    3  A    between atoms: O_11  and  C_12
REMARK    4  A    between atoms: C_13  and  C_14
REMARK    5  A    between atoms: C_14  and  N_15
REMARK    6  A    between atoms: N_23  and  C_25
REMARK                            x       y       z     vdW  Elec       q    Type
REMARK                         _______ _______ _______ _____ _____    ______ ____
ROOT
ATOM      1  N   UNL     1      50.403 -45.858  49.441  0.00  0.00    +0.000 NA
ATOM      2  N   UNL     1      50.030 -43.518  49.190  0.00  0.00    +0.000 NA
ATOM      3  C   UNL     1      47.129 -46.195  51.985  0.00  0.00    +0.000 A 
ATOM      4  C   UNL     1      48.566 -44.818  50.565  0.00  0.00    +0.000 A 
ATOM      5  C   UNL     1      47.469 -44.960  51.432  0.00  0.00    +0.000 A 
ATOM      6  C   UNL     1      47.898 -47.313  51.662  0.00  0.00    +0.000 A 
ATOM      7  C   UNL     1      49.345 -45.934  50.248  0.00  0.00    +0.000 A 
ATOM      8  C   UNL     1      48.992 -47.158  50.801  0.00  0.00    +0.000 A 
ATOM      9  C   UNL     1      48.953 -43.601  49.989  0.00  0.00    +0.000 A 
ATOM     10  C   UNL     1      50.704 -44.649  48.951  0.00  0.00    +0.000 A 
ATOM     11  N   UNL     1      48.213 -42.430  50.293  0.00  0.00    +0.000 N 
ATOM     12  H   UNL     1      47.215 -42.599  50.219  0.00  0.00    +0.000 HD
ENDROOT
BRANCH  11  13
ATOM     13  C   UNL     1      48.545 -41.091  49.989  0.00  0.00    +0.000 A 
ATOM     14  C   UNL     1      48.137 -40.077  50.865  0.00  0.00    +0.000 A 
ATOM     15  C   UNL     1      48.529 -38.756  50.663  0.00  0.00    +0.000 A 
ATOM     16 CL   UNL     1      47.970 -37.551  51.752  0.00  0.00    +0.000 Cl
ATOM     17  C   UNL     1      49.360 -38.436  49.595  0.00  0.00    +0.000 A 
ATOM     18  F   UNL     1      49.748 -37.170  49.384  0.00  0.00    +0.000 F 
ATOM     19  C   UNL     1      49.810 -39.429  48.734  0.00  0.00    +0.000 A 
ATOM     20  C   UNL     1      49.414 -40.748  48.948  0.00  0.00    +0.000 A 
ENDBRANCH  11  13
BRANCH   6  21
ATOM     21  O   UNL     1      47.530 -48.510  52.229  0.00  0.00    +0.000 OA
ATOM     22  C   UNL     1      47.050 -49.480  51.340  0.00  0.00    +0.000 C 
ENDBRANCH   6  21
BRANCH   3  23
ATOM     23  O   UNL     1      46.065 -46.374  52.836  0.00  0.00    +0.000 OA
BRANCH  23  24
ATOM     24  C   UNL     1      44.874 -46.388  52.241  0.00  0.00    +0.000 C 
ATOM     25  C   UNL     1      43.496 -46.411  51.571  0.00  0.00    +0.000 C 
BRANCH  25  26
ATOM     26  C   UNL     1      42.104 -46.446  50.931  0.00  0.00    +0.000 C 
BRANCH  26  27
ATOM     27  N   UNL     1      40.786 -46.488  50.313  0.00  0.00    +0.000 N 
ATOM     28  C   UNL     1      40.842 -47.546  49.258  0.00  0.00    +0.000 C 
ATOM     29  C   UNL     1      40.150 -48.948  49.239  0.00  0.00    +0.000 C 
ATOM     30  O   UNL     1      39.347 -49.622  50.091  0.00  0.00    +0.000 OA
ATOM     31  C   UNL     1      39.297 -48.669  51.042  0.00  0.00    +0.000 C 
ATOM     32  C   UNL     1      39.898 -47.245  51.245  0.00  0.00    +0.000 C 
ENDBRANCH  26  27
ENDBRANCH  25  26
ENDBRANCH  23  24
ENDBRANCH   3  23
TORSDOF 6
ENDMDL
MODEL 3
REMARK VINA RESULT:      -6.8      3.986      8.426
REMARK  Name = Gefitinib.pdbqt.pdb
REMARK  6 active torsions:
REMARK  status: ('A' for Active; 'I' for Inactive)
REMARK    1  A    between atoms: C_3  and  O_11
REMARK    2  A    between atoms: C_6  and  O_21
REMARK    3  A    between atoms: O_11  and  C_12
REMARK    4  A    between atoms: C_13  and  C_14
REMARK    5  A    between atoms: C_14  and  N_15
REMARK    6  A    between atoms: N_23  and  C_25
REMARK                            x       y       z     vdW  Elec       q    Type
REMARK                         _______ _______ _______ _____ _____    ______ ____
ROOT
ATOM      1  N   UNL     1      51.681 -46.470  49.495  0.00  0.00    +0.000 NA
ATOM      2  N   UNL     1      53.047 -46.207  47.561  0.00  0.00    +0.000 NA
ATOM      3  C   UNL     1      49.130 -43.446  48.210  0.00  0.00    +0.000 A 
ATOM      4  C   UNL     1      51.106 -44.839  47.844  0.00  0.00    +0.000 A 
ATOM      5  C   UNL     1      50.231 -43.816  47.437  0.00  0.00    +0.000 A 
ATOM      6  C   UNL     1      48.895 -44.113  49.412  0.00  0.00    +0.000 A 
ATOM      7  C   UNL     1      50.879 -45.502  49.053  0.00  0.00    +0.000 A 
ATOM      8  C   UNL     1      49.776 -45.126  49.809  0.00  0.00    +0.000 A 
ATOM      9  C   UNL     1      52.228 -45.244  47.109  0.00  0.00    +0.000 A 
ATOM     10  C   UNL     1      52.736 -46.778  48.731  0.00  0.00    +0.000 A 
ATOM     11  N   UNL     1      52.521 -44.591  45.884  0.00  0.00    +0.000 N 
ATOM     12  H   UNL     1      51.688 -44.500  45.311  0.00  0.00    +0.000 HD
ENDROOT
BRANCH  11  13
ATOM     13  C   UNL     1      53.691 -44.701  45.101  0.00  0.00    +0.000 A 
ATOM     14  C   UNL     1      53.565 -44.885  43.719  0.00  0.00    +0.000 A 
ATOM     15  C   UNL     1      54.687 -44.894  42.893  0.00  0.00    +0.000 A 
ATOM     16 CL   UNL     1      54.472 -45.157  41.208  0.00  0.00    +0.000 Cl
ATOM     17  C   UNL     1      55.949 -44.690  43.438  0.00  0.00    +0.000 A 
ATOM     18  F   UNL     1      57.041 -44.695  42.658  0.00  0.00    +0.000 F 
ATOM     19  C   UNL     1      56.097 -44.467  44.800  0.00  0.00    +0.000 A 
ATOM     20  C   UNL     1      54.969 -44.456  45.617  0.00  0.00    +0.000 A 
ENDBRANCH  11  13
BRANCH   6  21
ATOM     21  O   UNL     1      47.801 -43.716  50.144  0.00  0.00    +0.000 OA
ATOM     22  C   UNL     1      48.051 -43.388  51.482  0.00  0.00    +0.000 C 
ENDBRANCH   6  21
BRANCH   3  23
ATOM     23  O   UNL     1      48.253 -42.452  47.846  0.00  0.00    +0.000 OA
BRANCH  23  24
ATOM     24  C   UNL     1      48.514 -41.259  48.376  0.00  0.00    +0.000 C 
ATOM     25  C   UNL     1      48.806 -39.877  48.971  0.00  0.00    +0.000 C 
BRANCH  25  26
ATOM     26  C   UNL     1      49.079 -38.481  49.541  0.00  0.00    +0.000 C 
BRANCH  26  27
ATOM     27  N   UNL     1      49.345 -37.151  50.070  0.00  0.00    +0.000 N 
ATOM     28  C   UNL     1      48.054 -36.400  50.007  0.00  0.00    +0.000 C 
ATOM     29  C   UNL     1      47.127 -35.943  51.181  0.00  0.00    +0.000 C 
ATOM     30  O   UNL     1      47.169 -36.066  52.526  0.00  0.00    +0.000 OA
ATOM     31  C   UNL     1      48.332 -36.744  52.583  0.00  0.00    +0.000 C 
ATOM     32  C   UNL     1      49.377 -37.279  51.558  0.00  0.00    +0.000 C 
ENDBRANCH  26  27
ENDBRANCH  25  26
ENDBRANCH  23  24
ENDBRANCH   3  23
TORSDOF 6
ENDMDL
MODEL 4
REMARK VINA RESULT:      -6.5      4.167      6.196
REMARK  Name = Gefitinib.pdbqt.pdb
REMARK  6 active torsions:
REMARK  status: ('A' for Active; 'I' for Inactive)
REMARK    1  A    between atoms: C_3  and  O_11
REMARK    2  A    between atoms: C_6  and  O_21
REMARK    3  A    between atoms: O_11  and  C_12
REMARK    4  A    between atoms: C_13  and  C_14
REMARK    5  A    between atoms: C_14  and  N_15
REMARK    6  A    between atoms: N_23  and  C_25
REMARK                            x       y       z     vdW  Elec       q    Type
REMARK                         _______ _______ _______ _____ _____    ______ ____
ROOT
ATOM      1  N   UNL     1      48.773 -35.693  47.441  0.00  0.00    +0.000 NA
ATOM      2  N   UNL     1      49.196 -37.304  45.737  0.00  0.00    +0.000 NA
ATOM      3  C   UNL     1      48.704 -38.664  50.352  0.00  0.00    +0.000 A 
ATOM      4  C   UNL     1      48.976 -38.006  48.013  0.00  0.00    +0.000 A 
ATOM      5  C   UNL     1      48.941 -38.990  49.016  0.00  0.00    +0.000 A 
ATOM      6  C   UNL     1      48.502 -37.327  50.694  0.00  0.00    +0.000 A 
ATOM      7  C   UNL     1      48.763 -36.667  48.351  0.00  0.00    +0.000 A 
ATOM      8  C   UNL     1      48.534 -36.357  49.685  0.00  0.00    +0.000 A 
ATOM      9  C   UNL     1      49.204 -38.281  46.658  0.00  0.00    +0.000 A 
ATOM     10  C   UNL     1      48.984 -36.055  46.170  0.00  0.00    +0.000 A 
ATOM     11  N   UNL     1      49.404 -39.626  46.253  0.00  0.00    +0.000 N 
ATOM     12  H   UNL     1      50.062 -40.098  46.865  0.00  0.00    +0.000 HD
ENDROOT
BRANCH  11  13
ATOM     13  C   UNL     1      49.447 -40.138  44.937  0.00  0.00    +0.000 A 
ATOM     14  C   UNL     1      50.648 -40.068  44.222  0.00  0.00    +0.000 A 
ATOM     15  C   UNL     1      50.768 -40.652  42.964  0.00  0.00    +0.000 A 
ATOM     16 CL   UNL     1      52.257 -40.504  42.120  0.00  0.00    +0.000 Cl
ATOM     17  C   UNL     1      49.692 -41.342  42.416  0.00  0.00    +0.000 A 
ATOM     18  F   UNL     1      49.788 -41.911  41.205  0.00  0.00    +0.000 F 
ATOM     19  C   UNL     1      48.502 -41.459  43.121  0.00  0.00    +0.000 A 
ATOM     20  C   UNL     1      48.394 -40.873  44.381  0.00  0.00    +0.000 A 
ENDBRANCH  11  13
BRANCH   6  21
ATOM     21  O   UNL     1      48.270 -37.049  52.021  0.00  0.00    +0.000 OA
ATOM     22  C   UNL     1      49.288 -36.351  52.681  0.00  0.00    +0.000 C 
ENDBRANCH   6  21
BRANCH   3  23
ATOM     23  O   UNL     1      48.663 -39.597  51.360  0.00  0.00    +0.000 OA
BRANCH  23  24
ATOM     24  C   UNL     1      48.310 -40.820  50.972  0.00  0.00    +0.000 C 
ATOM     25  C   UNL     1      47.920 -42.234  50.528  0.00  0.00    +0.000 C 
BRANCH  25  26
ATOM     26  C   UNL     1      47.563 -43.660  50.094  0.00  0.00    +0.000 C 
BRANCH  26  27
ATOM     27  N   UNL     1      47.229 -45.020  49.694  0.00  0.00    +0.000 N 
ATOM     28  C   UNL     1      48.458 -45.843  49.909  0.00  0.00    +0.000 C 
ATOM     29  C   UNL     1      48.723 -46.947  50.984  0.00  0.00    +0.000 C 
ATOM     30  O   UNL     1      48.002 -47.479  51.996  0.00  0.00    +0.000 OA
ATOM     31  C   UNL     1      46.894 -46.736  51.803  0.00  0.00    +0.000 C 
ATOM     32  C   UNL     1      46.444 -45.616  50.816  0.00  0.00    +0.000 C 
ENDBRANCH  26  27
ENDBRANCH  25  26
ENDBRANCH  23  24
ENDBRANCH   3  23
TORSDOF 6
ENDMDL
MODEL 5
REMARK VINA RESULT:      -6.3     26.341     28.338
REMARK  Name = Gefitinib.pdbqt.pdb
REMARK  6 active torsions:
REMARK  status: ('A' for Active; 'I' for Inactive)
REMARK    1  A    between atoms: C_3  and  O_11
REMARK    2  A    between atoms: C_6  and  O_21
REMARK    3  A    between atoms: O_11  and  C_12
REMARK    4  A    between atoms: C_13  and  C_14
REMARK    5  A    between atoms: C_14  and  N_15
REMARK    6  A    between atoms: N_23  and  C_25
REMARK                            x       y       z     vdW  Elec       q    Type
REMARK                         _______ _______ _______ _____ _____    ______ ____
ROOT
ATOM      1  N   UNL     1      53.723 -38.306  76.575  0.00  0.00    +0.000 NA
ATOM      2  N   UNL     1      51.416 -38.343  75.982  0.00  0.00    +0.000 NA
ATOM      3  C   UNL     1      54.417 -35.100  74.017  0.00  0.00    +0.000 A 
ATOM      4  C   UNL     1      52.871 -36.715  75.006  0.00  0.00    +0.000 A 
ATOM      5  C   UNL     1      53.135 -35.636  74.145  0.00  0.00    +0.000 A 
ATOM      6  C   UNL     1      55.456 -35.651  74.768  0.00  0.00    +0.000 A 
ATOM      7  C   UNL     1      53.912 -37.275  75.752  0.00  0.00    +0.000 A 
ATOM      8  C   UNL     1      55.181 -36.728  75.619  0.00  0.00    +0.000 A 
ATOM      9  C   UNL     1      51.605 -37.294  75.166  0.00  0.00    +0.000 A 
ATOM     10  C   UNL     1      52.481 -38.800  76.650  0.00  0.00    +0.000 A 
ATOM     11  N   UNL     1      50.515 -36.781  74.417  0.00  0.00    +0.000 N 
ATOM     12  H   UNL     1      50.490 -35.766  74.455  0.00  0.00    +0.000 HD
ENDROOT
BRANCH  11  13
ATOM     13  C   UNL     1      49.223 -37.334  74.276  0.00  0.00    +0.000 A 
ATOM     14  C   UNL     1      48.269 -37.088  75.271  0.00  0.00    +0.000 A 
ATOM     15  C   UNL     1      46.954 -37.524  75.125  0.00  0.00    +0.000 A 
ATOM     16 CL   UNL     1      45.836 -37.222  76.394  0.00  0.00    +0.000 Cl
ATOM     17  C   UNL     1      46.569 -38.188  73.966  0.00  0.00    +0.000 A 
ATOM     18  F   UNL     1      45.308 -38.615  73.807  0.00  0.00    +0.000 F 
ATOM     19  C   UNL     1      47.487 -38.410  72.948  0.00  0.00    +0.000 A 
ATOM     20  C   UNL     1      48.799 -37.967  73.102  0.00  0.00    +0.000 A 
ENDBRANCH  11  13
BRANCH   6  21
ATOM     21  O   UNL     1      56.704 -35.094  74.611  0.00  0.00    +0.000 OA
ATOM     22  C   UNL     1      57.784 -35.929  74.918  0.00  0.00    +0.000 C 
ENDBRANCH   6  21
BRANCH   3  23
ATOM     23  O   UNL     1      54.715 -34.047  73.186  0.00  0.00    +0.000 OA
BRANCH  23  24
ATOM     24  C   UNL     1      53.740 -33.151  73.053  0.00  0.00    +0.000 C 
ATOM     25  C   UNL     1      52.627 -32.110  72.888  0.00  0.00    +0.000 C 
BRANCH  25  26
ATOM     26  C   UNL     1      51.532 -31.055  72.696  0.00  0.00    +0.000 C 
BRANCH  26  27
ATOM     27  N   UNL     1      50.489 -30.053  72.528  0.00  0.00    +0.000 N 
ATOM     28  C   UNL     1      49.659 -30.491  71.365  0.00  0.00    +0.000 C 
ATOM     29  C   UNL     1      48.194 -31.037  71.357  0.00  0.00    +0.000 C 
ATOM     30  O   UNL     1      47.267 -31.283  72.310  0.00  0.00    +0.000 OA
ATOM     31  C   UNL     1      48.016 -30.889  73.359  0.00  0.00    +0.000 C 
ATOM     32  C   UNL     1      49.456 -30.330  73.570  0.00  0.00    +0.000 C 
ENDBRANCH  26  27
ENDBRANCH  25  26
ENDBRANCH  23  24
ENDBRANCH   3  23
TORSDOF 6
ENDMDL
MODEL 6
REMARK VINA RESULT:      -6.3      8.631     10.982
REMARK  Name = Gefitinib.pdbqt.pdb
REMARK  6 active torsions:
REMARK  status: ('A' for Active; 'I' for Inactive)
REMARK    1  A    between atoms: C_3  and  O_11
REMARK    2  A    between atoms: C_6  and  O_21
REMARK    3  A    between atoms: O_11  and  C_12
REMARK    4  A    between atoms: C_13  and  C_14
REMARK    5  A    between atoms: C_14  and  N_15
REMARK    6  A    between atoms: N_23  and  C_25
REMARK                            x       y       z     vdW  Elec       q    Type
REMARK                         _______ _______ _______ _____ _____    ______ ____
ROOT
ATOM      1  N   UNL     1      44.479 -51.295  52.016  0.00  0.00    +0.000 NA
ATOM      2  N   UNL     1      46.064 -49.631  51.387  0.00  0.00    +0.000 NA
ATOM      3  C   UNL     1      46.639 -52.171  55.462  0.00  0.00    +0.000 A 
ATOM      4  C   UNL     1      46.367 -50.858  53.418  0.00  0.00    +0.000 A 
ATOM      5  C   UNL     1      47.080 -51.178  54.586  0.00  0.00    +0.000 A 
ATOM      6  C   UNL     1      45.459 -52.855  55.167  0.00  0.00    +0.000 A 
ATOM      7  C   UNL     1      45.191 -51.548  53.115  0.00  0.00    +0.000 A 
ATOM      8  C   UNL     1      44.761 -52.529  53.999  0.00  0.00    +0.000 A 
ATOM      9  C   UNL     1      46.769 -49.875  52.504  0.00  0.00    +0.000 A 
ATOM     10  C   UNL     1      44.952 -50.349  51.195  0.00  0.00    +0.000 A 
ATOM     11  N   UNL     1      47.968 -49.157  52.748  0.00  0.00    +0.000 N 
ATOM     12  H   UNL     1      48.014 -48.839  53.711  0.00  0.00    +0.000 HD
ENDROOT
BRANCH  11  13
ATOM     13  C   UNL     1      48.651 -48.285  51.872  0.00  0.00    +0.000 A 
ATOM     14  C   UNL     1      48.161 -46.985  51.694  0.00  0.00    +0.000 A 
ATOM     15  C   UNL     1      48.858 -46.057  50.923  0.00  0.00    +0.000 A 
ATOM     16 CL   UNL     1      48.191 -44.488  50.714  0.00  0.00    +0.000 Cl
ATOM     17  C   UNL     1      50.070 -46.411  50.343  0.00  0.00    +0.000 A 
ATOM     18  F   UNL     1      50.755 -45.531  49.597  0.00  0.00    +0.000 F 
ATOM     19  C   UNL     1      50.597 -47.681  50.536  0.00  0.00    +0.000 A 
ATOM     20  C   UNL     1      49.893 -48.601  51.311  0.00  0.00    +0.000 A 
ENDBRANCH  11  13
BRANCH   6  21
ATOM     21  O   UNL     1      45.061 -53.826  56.056  0.00  0.00    +0.000 OA
ATOM     22  C   UNL     1      44.953 -55.120  55.532  0.00  0.00    +0.000 C 
ENDBRANCH   6  21
BRANCH   3  23
ATOM     23  O   UNL     1      47.308 -52.513  56.613  0.00  0.00    +0.000 OA
BRANCH  23  24
ATOM     24  C   UNL     1      48.200 -53.491  56.468  0.00  0.00    +0.000 C 
ATOM     25  C   UNL     1      49.215 -54.625  56.292  0.00  0.00    +0.000 C 
BRANCH  25  26
ATOM     26  C   UNL     1      50.208 -55.775  56.092  0.00  0.00    +0.000 C 
BRANCH  26  27
ATOM     27  N   UNL     1      51.156 -56.861  55.889  0.00  0.00    +0.000 N 
ATOM     28  C   UNL     1      52.060 -56.438  54.776  0.00  0.00    +0.000 C 
ATOM     29  C   UNL     1      53.570 -56.036  54.840  0.00  0.00    +0.000 C 
ATOM     30  O   UNL     1      54.486 -55.937  55.828  0.00  0.00    +0.000 OA
ATOM     31  C   UNL     1      53.671 -56.318  56.832  0.00  0.00    +0.000 C 
ATOM     32  C   UNL     1      52.178 -56.747  56.972  0.00  0.00    +0.000 C 
ENDBRANCH  26  27
ENDBRANCH  25  26
ENDBRANCH  23  24
ENDBRANCH   3  23
TORSDOF 6
ENDMDL
MODEL 7
REMARK VINA RESULT:      -6.3     10.045     12.584
REMARK  Name = Gefitinib.pdbqt.pdb
REMARK  6 active torsions:
REMARK  status: ('A' for Active; 'I' for Inactive)
REMARK    1  A    between atoms: C_3  and  O_11
REMARK    2  A    between atoms: C_6  and  O_21
REMARK    3  A    between atoms: O_11  and  C_12
REMARK    4  A    between atoms: C_13  and  C_14
REMARK    5  A    between atoms: C_14  and  N_15
REMARK    6  A    between atoms: N_23  and  C_25
REMARK                            x       y       z     vdW  Elec       q    Type
REMARK                         _______ _______ _______ _____ _____    ______ ____
ROOT
ATOM      1  N   UNL     1      44.279 -53.751  54.996  0.00  0.00    +0.000 NA
ATOM      2  N   UNL     1      45.114 -51.860  53.812  0.00  0.00    +0.000 NA
ATOM      3  C   UNL     1      47.640 -53.810  57.446  0.00  0.00    +0.000 A 
ATOM      4  C   UNL     1      46.378 -52.790  55.617  0.00  0.00    +0.000 A 
ATOM      5  C   UNL     1      47.506 -52.837  56.454  0.00  0.00    +0.000 A 
ATOM      6  C   UNL     1      46.625 -54.752  57.607  0.00  0.00    +0.000 A 
ATOM      7  C   UNL     1      45.365 -53.739  55.769  0.00  0.00    +0.000 A 
ATOM      8  C   UNL     1      45.509 -54.698  56.763  0.00  0.00    +0.000 A 
ATOM      9  C   UNL     1      46.198 -51.839  54.603  0.00  0.00    +0.000 A 
ATOM     10  C   UNL     1      44.203 -52.812  54.045  0.00  0.00    +0.000 A 
ATOM     11  N   UNL     1      47.206 -50.864  54.388  0.00  0.00    +0.000 N 
ATOM     12  H   UNL     1      47.508 -50.450  55.265  0.00  0.00    +0.000 HD
ENDROOT
BRANCH  11  13
ATOM     13  C   UNL     1      47.319 -49.957  53.311  0.00  0.00    +0.000 A 
ATOM     14  C   UNL     1      46.520 -48.808  53.307  0.00  0.00    +0.000 A 
ATOM     15  C   UNL     1      46.671 -47.834  52.322  0.00  0.00    +0.000 A 
ATOM     16 CL   UNL     1      45.638 -46.461  52.350  0.00  0.00    +0.000 Cl
ATOM     17  C   UNL     1      47.646 -47.986  51.343  0.00  0.00    +0.000 A 
ATOM     18  F   UNL     1      47.806 -47.059  50.386  0.00  0.00    +0.000 F 
ATOM     19  C   UNL     1      48.478 -49.098  51.347  0.00  0.00    +0.000 A 
ATOM     20  C   UNL     1      48.320 -50.064  52.339  0.00  0.00    +0.000 A 
ENDBRANCH  11  13
BRANCH   6  21
ATOM     21  O   UNL     1      46.797 -55.694  58.594  0.00  0.00    +0.000 OA
ATOM     22  C   UNL     1      46.930 -57.016  58.155  0.00  0.00    +0.000 C 
ENDBRANCH   6  21
BRANCH   3  23
ATOM     23  O   UNL     1      48.727 -53.888  58.284  0.00  0.00    +0.000 OA
BRANCH  23  24
ATOM     24  C   UNL     1      49.741 -54.609  57.813  0.00  0.00    +0.000 C 
ATOM     25  C   UNL     1      50.920 -55.426  57.273  0.00  0.00    +0.000 C 
BRANCH  25  26
ATOM     26  C   UNL     1      52.122 -56.218  56.745  0.00  0.00    +0.000 C 
BRANCH  26  27
ATOM     27  N   UNL     1      53.268 -56.971  56.257  0.00  0.00    +0.000 N 
ATOM     28  C   UNL     1      53.693 -56.323  54.979  0.00  0.00    +0.000 C 
ATOM     29  C   UNL     1      54.978 -55.481  54.686  0.00  0.00    +0.000 C 
ATOM     30  O   UNL     1      56.040 -55.084  55.421  0.00  0.00    +0.000 OA
ATOM     31  C   UNL     1      55.657 -55.668  56.574  0.00  0.00    +0.000 C 
ATOM     32  C   UNL     1      54.448 -56.524  57.057  0.00  0.00    +0.000 C 
ENDBRANCH  26  27
ENDBRANCH  25  26
ENDBRANCH  23  24
ENDBRANCH   3  23
TORSDOF 6
ENDMDL
MODEL 8
REMARK VINA RESULT:      -6.0     11.180     15.271
REMARK  Name = Gefitinib.pdbqt.pdb
REMARK  6 active torsions:
REMARK  status: ('A' for Active; 'I' for Inactive)
REMARK    1  A    between atoms: C_3  and  O_11
REMARK    2  A    between atoms: C_6  and  O_21
REMARK    3  A    between atoms: O_11  and  C_12
REMARK    4  A    between atoms: C_13  and  C_14
REMARK    5  A    between atoms: C_14  and  N_15
REMARK    6  A    between atoms: N_23  and  C_25
REMARK                            x       y       z     vdW  Elec       q    Type
REMARK                         _______ _______ _______ _____ _____    ______ ____
ROOT
ATOM      1  N   UNL     1      50.443 -53.896  54.432  0.00  0.00    +0.000 NA
ATOM      2  N   UNL     1      48.686 -52.685  53.373  0.00  0.00    +0.000 NA
ATOM      3  C   UNL     1      48.241 -54.185  57.949  0.00  0.00    +0.000 A 
ATOM      4  C   UNL     1      48.428 -53.429  55.632  0.00  0.00    +0.000 A 
ATOM      5  C   UNL     1      47.708 -53.536  56.835  0.00  0.00    +0.000 A 
ATOM      6  C   UNL     1      49.516 -54.743  57.860  0.00  0.00    +0.000 A 
ATOM      7  C   UNL     1      49.709 -53.978  55.542  0.00  0.00    +0.000 A 
ATOM      8  C   UNL     1      50.224 -54.625  56.658  0.00  0.00    +0.000 A 
ATOM      9  C   UNL     1      47.942 -52.783  54.487  0.00  0.00    +0.000 A 
ATOM     10  C   UNL     1      49.900 -53.247  53.395  0.00  0.00    +0.000 A 
ATOM     11  N   UNL     1      46.655 -52.187  54.527  0.00  0.00    +0.000 N 
ATOM     12  H   UNL     1      45.974 -52.816  54.941  0.00  0.00    +0.000 HD
ENDROOT
BRANCH  11  13
ATOM     13  C   UNL     1      46.067 -51.328  53.572  0.00  0.00    +0.000 A 
ATOM     14  C   UNL     1      46.540 -50.016  53.460  0.00  0.00    +0.000 A 
ATOM     15  C   UNL     1      46.064 -49.165  52.465  0.00  0.00    +0.000 A 
ATOM     16 CL   UNL     1      46.658 -47.555  52.398  0.00  0.00    +0.000 Cl
ATOM     17  C   UNL     1      45.127 -49.629  51.549  0.00  0.00    +0.000 A 
ATOM     18  F   UNL     1      44.656 -48.825  50.584  0.00  0.00    +0.000 F 
ATOM     19  C   UNL     1      44.670 -50.939  51.615  0.00  0.00    +0.000 A 
ATOM     20  C   UNL     1      45.155 -51.782  52.612  0.00  0.00    +0.000 A 
ENDBRANCH  11  13
BRANCH   6  21
ATOM     21  O   UNL     1      50.003 -55.372  58.981  0.00  0.00    +0.000 OA
ATOM     22  C   UNL     1      51.056 -56.269  58.764  0.00  0.00    +0.000 C 
ENDBRANCH   6  21
BRANCH   3  23
ATOM     23  O   UNL     1      47.569 -54.310  59.142  0.00  0.00    +0.000 OA
BRANCH  23  24
ATOM     24  C   UNL     1      46.347 -54.828  59.040  0.00  0.00    +0.000 C 
ATOM     25  C   UNL     1      44.934 -55.409  58.922  0.00  0.00    +0.000 C 
BRANCH  25  26
ATOM     26  C   UNL     1      43.508 -55.956  58.798  0.00  0.00    +0.000 C 
BRANCH  26  27
ATOM     27  N   UNL     1      42.157 -56.488  58.689  0.00  0.00    +0.000 N 
ATOM     28  C   UNL     1      42.242 -57.693  57.808  0.00  0.00    +0.000 C 
ATOM     29  C   UNL     1      42.077 -59.200  58.191  0.00  0.00    +0.000 C 
ATOM     30  O   UNL     1      41.832 -59.867  59.341  0.00  0.00    +0.000 OA
ATOM     31  C   UNL     1      41.756 -58.780  60.135  0.00  0.00    +0.000 C 
ATOM     32  C   UNL     1      41.887 -57.238  59.952  0.00  0.00    +0.000 C 
ENDBRANCH  26  27
ENDBRANCH  25  26
ENDBRANCH  23  24
ENDBRANCH   3  23
TORSDOF 6
ENDMDL
MODEL 9
REMARK VINA RESULT:      -5.9     17.108     19.756
REMARK  Name = Gefitinib.pdbqt.pdb
REMARK  6 active torsions:
REMARK  status: ('A' for Active; 'I' for Inactive)
REMARK    1  A    between atoms: C_3  and  O_11
REMARK    2  A    between atoms: C_6  and  O_21
REMARK    3  A    between atoms: O_11  and  C_12
REMARK    4  A    between atoms: C_13  and  C_14
REMARK    5  A    between atoms: C_14  and  N_15
REMARK    6  A    between atoms: N_23  and  C_25
REMARK                            x       y       z     vdW  Elec       q    Type
REMARK                         _______ _______ _______ _____ _____    ______ ____
ROOT
ATOM      1  N   UNL     1      58.066 -52.053  57.918  0.00  0.00    +0.000 NA
ATOM      2  N   UNL     1      58.475 -50.003  59.061  0.00  0.00    +0.000 NA
ATOM      3  C   UNL     1      56.940 -53.907  61.468  0.00  0.00    +0.000 A 
ATOM      4  C   UNL     1      57.699 -51.911  60.277  0.00  0.00    +0.000 A 
ATOM      5  C   UNL     1      57.320 -52.564  61.462  0.00  0.00    +0.000 A 
ATOM      6  C   UNL     1      56.935 -54.611  60.263  0.00  0.00    +0.000 A 
ATOM      7  C   UNL     1      57.705 -52.616  59.071  0.00  0.00    +0.000 A 
ATOM      8  C   UNL     1      57.320 -53.950  59.090  0.00  0.00    +0.000 A 
ATOM      9  C   UNL     1      58.094 -50.568  60.218  0.00  0.00    +0.000 A 
ATOM     10  C   UNL     1      58.442 -50.769  57.965  0.00  0.00    +0.000 A 
ATOM     11  N   UNL     1      58.129 -49.808  61.416  0.00  0.00    +0.000 N 
ATOM     12  H   UNL     1      57.283 -49.945  61.960  0.00  0.00    +0.000 HD
ENDROOT
BRANCH  11  13
ATOM     13  C   UNL     1      58.679 -48.522  61.611  0.00  0.00    +0.000 A 
ATOM     14  C   UNL     1      60.065 -48.355  61.501  0.00  0.00    +0.000 A 
ATOM     15  C   UNL     1      60.642 -47.090  61.582  0.00  0.00    +0.000 A 
ATOM     16 CL   UNL     1      62.351 -46.951  61.471  0.00  0.00    +0.000 Cl
ATOM     17  C   UNL     1      59.835 -45.970  61.746  0.00  0.00    +0.000 A 
ATOM     18  F   UNL     1      60.372 -44.744  61.827  0.00  0.00    +0.000 F 
ATOM     19  C   UNL     1      58.455 -46.105  61.820  0.00  0.00    +0.000 A 
ATOM     20  C   UNL     1      57.888 -47.375  61.735  0.00  0.00    +0.000 A 
ENDBRANCH  11  13
BRANCH   6  21
ATOM     21  O   UNL     1      56.556 -55.932  60.313  0.00  0.00    +0.000 OA
ATOM     22  C   UNL     1      55.403 -56.260  59.589  0.00  0.00    +0.000 C 
ENDBRANCH   6  21
BRANCH   3  23
ATOM     23  O   UNL     1      56.563 -54.580  62.605  0.00  0.00    +0.000 OA
BRANCH  23  24
ATOM     24  C   UNL     1      57.418 -54.478  63.621  0.00  0.00    +0.000 C 
ATOM     25  C   UNL     1      58.411 -54.373  64.783  0.00  0.00    +0.000 C 
BRANCH  25  26
ATOM     26  C   UNL     1      59.425 -54.292  65.929  0.00  0.00    +0.000 C 
BRANCH  26  27
ATOM     27  N   UNL     1      60.383 -54.226  67.024  0.00  0.00    +0.000 N 
ATOM     28  C   UNL     1      61.592 -53.525  66.493  0.00  0.00    +0.000 C 
ATOM     29  C   UNL     1      62.126 -52.096  66.837  0.00  0.00    +0.000 C 
ATOM     30  O   UNL     1      61.714 -51.099  67.649  0.00  0.00    +0.000 OA
ATOM     31  C   UNL     1      60.623 -51.730  68.127  0.00  0.00    +0.000 C 
ATOM     32  C   UNL     1      59.939 -53.114  67.917  0.00  0.00    +0.000 C 
ENDBRANCH  26  27
ENDBRANCH  25  26
ENDBRANCH  23  24
ENDBRANCH   3  23
TORSDOF 6
ENDMDL
