MODEL 1
REMARK VINA RESULT:      -7.0      0.000      0.000
REMARK  Name = Genistein.pdbqt.pdb
REMARK  4 active torsions:
REMARK  status: ('A' for Active; 'I' for Inactive)
REMARK    1  A    between atoms: C_4  and  C_12
REMARK    2  A    between atoms: C_7  and  O_20
REMARK    3  A    between atoms: C_11  and  O_22
REMARK    4  A    between atoms: C_17  and  O_18
REMARK                            x       y       z     vdW  Elec       q    Type
REMARK                         _______ _______ _______ _____ _____    ______ ____
ROOT
ATOM      1  O   UNL     1      49.521 -41.951  48.397  0.00  0.00    +0.000 OA
ATOM      2  O   UNL     1      47.465 -41.226  51.968  0.00  0.00    +0.000 OA
ATOM      3  C   UNL     1      48.748 -40.378  50.154  0.00  0.00    +0.000 A 
ATOM      4  C   UNL     1      48.164 -42.845  50.317  0.00  0.00    +0.000 A 
ATOM      5  C   UNL     1      49.437 -40.671  48.940  0.00  0.00    +0.000 A 
ATOM      6  C   UNL     1      48.058 -41.478  50.925  0.00  0.00    +0.000 A 
ATOM      7  C   UNL     1      48.717 -39.061  50.622  0.00  0.00    +0.000 A 
ATOM      8  C   UNL     1      48.857 -42.735  49.228  0.00  0.00    +0.000 A 
ATOM      9  C   UNL     1      50.074 -39.657  48.230  0.00  0.00    +0.000 A 
ATOM     10  C   UNL     1      49.357 -38.051  49.905  0.00  0.00    +0.000 A 
ATOM     11  C   UNL     1      50.025 -38.356  48.721  0.00  0.00    +0.000 A 
ENDROOT
BRANCH   4  12
ATOM     12  C   UNL     1      47.598 -44.085  50.844  0.00  0.00    +0.000 A 
ATOM     13  C   UNL     1      46.876 -44.956  50.023  0.00  0.00    +0.000 A 
ATOM     14  C   UNL     1      47.769 -44.429  52.190  0.00  0.00    +0.000 A 
ATOM     15  C   UNL     1      46.337 -46.138  50.525  0.00  0.00    +0.000 A 
ATOM     16  C   UNL     1      47.234 -45.610  52.705  0.00  0.00    +0.000 A 
ATOM     17  C   UNL     1      46.522 -46.455  51.865  0.00  0.00    +0.000 A 
BRANCH  17  18
ATOM     18  O   UNL     1      46.007 -47.606  52.388  0.00  0.00    +0.000 OA
ATOM     19  H   UNL     1      46.279 -48.347  51.818  0.00  0.00    +0.000 HD
ENDBRANCH  17  18
ENDBRANCH   4  12
BRANCH   7  20
ATOM     20  O   UNL     1      48.081 -38.686  51.774  0.00  0.00    +0.000 OA
ATOM     21  H   UNL     1      47.142 -38.477  51.563  0.00  0.00    +0.000 HD
ENDBRANCH   7  20
BRANCH  11  22
ATOM     22  O   UNL     1      50.655 -37.375  48.011  0.00  0.00    +0.000 OA
ATOM     23  H   UNL     1      50.117 -36.566  48.067  0.00  0.00    +0.000 HD
ENDBRANCH  11  22
TORSDOF 4
ENDMDL
MODEL 2
REMARK VINA RESULT:      -6.8      2.412      3.088
REMARK  Name = Genistein.pdbqt.pdb
REMARK  4 active torsions:
REMARK  status: ('A' for Active; 'I' for Inactive)
REMARK    1  A    between atoms: C_4  and  C_12
REMARK    2  A    between atoms: C_7  and  O_20
REMARK    3  A    between atoms: C_11  and  O_22
REMARK    4  A    between atoms: C_17  and  O_18
REMARK                            x       y       z     vdW  Elec       q    Type
REMARK                         _______ _______ _______ _____ _____    ______ ____
ROOT
ATOM      1  O   UNL     1      49.117 -43.780  48.495  0.00  0.00    +0.000 OA
ATOM      2  O   UNL     1      48.006 -44.244  52.502  0.00  0.00    +0.000 OA
ATOM      3  C   UNL     1      48.349 -42.802  50.643  0.00  0.00    +0.000 A 
ATOM      4  C   UNL     1      48.752 -45.304  50.463  0.00  0.00    +0.000 A 
ATOM      5  C   UNL     1      48.735 -42.690  49.274  0.00  0.00    +0.000 A 
ATOM      6  C   UNL     1      48.337 -44.149  51.326  0.00  0.00    +0.000 A 
ATOM      7  C   UNL     1      47.980 -41.651  51.345  0.00  0.00    +0.000 A 
ATOM      8  C   UNL     1      49.032 -44.834  49.289  0.00  0.00    +0.000 A 
ATOM      9  C   UNL     1      48.746 -41.448  48.645  0.00  0.00    +0.000 A 
ATOM     10  C   UNL     1      47.994 -40.411  50.708  0.00  0.00    +0.000 A 
ATOM     11  C   UNL     1      48.373 -40.321  49.371  0.00  0.00    +0.000 A 
ENDROOT
BRANCH   4  12
ATOM     12  C   UNL     1      48.834 -46.708  50.859  0.00  0.00    +0.000 A 
ATOM     13  C   UNL     1      50.062 -47.375  50.906  0.00  0.00    +0.000 A 
ATOM     14  C   UNL     1      47.679 -47.419  51.203  0.00  0.00    +0.000 A 
ATOM     15  C   UNL     1      50.141 -48.714  51.284  0.00  0.00    +0.000 A 
ATOM     16  C   UNL     1      47.743 -48.759  51.582  0.00  0.00    +0.000 A 
ATOM     17  C   UNL     1      48.977 -49.395  51.620  0.00  0.00    +0.000 A 
BRANCH  17  18
ATOM     18  O   UNL     1      49.020 -50.707  51.994  0.00  0.00    +0.000 OA
ATOM     19  H   UNL     1      49.845 -50.855  52.490  0.00  0.00    +0.000 HD
ENDBRANCH  17  18
ENDBRANCH   4  12
BRANCH   7  20
ATOM     20  O   UNL     1      47.596 -41.661  52.659  0.00  0.00    +0.000 OA
ATOM     21  H   UNL     1      47.545 -42.595  52.965  0.00  0.00    +0.000 HD
ENDBRANCH   7  20
BRANCH  11  22
ATOM     22  O   UNL     1      48.390 -39.112  48.737  0.00  0.00    +0.000 OA
ATOM     23  H   UNL     1      47.622 -38.598  49.042  0.00  0.00    +0.000 HD
ENDBRANCH  11  22
TORSDOF 4
ENDMDL
MODEL 3
REMARK VINA RESULT:      -6.7      1.862      7.002
REMARK  Name = Genistein.pdbqt.pdb
REMARK  4 active torsions:
REMARK  status: ('A' for Active; 'I' for Inactive)
REMARK    1  A    between atoms: C_4  and  C_12
REMARK    2  A    between atoms: C_7  and  O_20
REMARK    3  A    between atoms: C_11  and  O_22
REMARK    4  A    between atoms: C_17  and  O_18
REMARK                            x       y       z     vdW  Elec       q    Type
REMARK                         _______ _______ _______ _____ _____    ______ ____
ROOT
ATOM      1  O   UNL     1      49.811 -42.386  48.194  0.00  0.00    +0.000 OA
ATOM      2  O   UNL     1      47.408 -39.888  50.537  0.00  0.00    +0.000 OA
ATOM      3  C   UNL     1      48.301 -42.055  50.136  0.00  0.00    +0.000 A 
ATOM      4  C   UNL     1      48.865 -40.095  48.622  0.00  0.00    +0.000 A 
ATOM      5  C   UNL     1      49.130 -42.869  49.309  0.00  0.00    +0.000 A 
ATOM      6  C   UNL     1      48.120 -40.587  49.827  0.00  0.00    +0.000 A 
ATOM      7  C   UNL     1      47.657 -42.630  51.235  0.00  0.00    +0.000 A 
ATOM      8  C   UNL     1      49.508 -41.101  48.121  0.00  0.00    +0.000 A 
ATOM      9  C   UNL     1      49.295 -44.222  49.594  0.00  0.00    +0.000 A 
ATOM     10  C   UNL     1      47.827 -43.985  51.514  0.00  0.00    +0.000 A 
ATOM     11  C   UNL     1      48.641 -44.765  50.695  0.00  0.00    +0.000 A 
ENDROOT
BRANCH   4  12
ATOM     12  C   UNL     1      48.873 -38.732  48.093  0.00  0.00    +0.000 A 
ATOM     13  C   UNL     1      49.143 -37.638  48.920  0.00  0.00    +0.000 A 
ATOM     14  C   UNL     1      48.610 -38.492  46.740  0.00  0.00    +0.000 A 
ATOM     15  C   UNL     1      49.152 -36.339  48.417  0.00  0.00    +0.000 A 
ATOM     16  C   UNL     1      48.614 -37.197  46.223  0.00  0.00    +0.000 A 
ATOM     17  C   UNL     1      48.886 -36.130  47.069  0.00  0.00    +0.000 A 
BRANCH  17  18
ATOM     18  O   UNL     1      48.887 -34.870  46.545  0.00  0.00    +0.000 OA
ATOM     19  H   UNL     1      48.964 -34.943  45.577  0.00  0.00    +0.000 HD
ENDBRANCH  17  18
ENDBRANCH   4  12
BRANCH   7  20
ATOM     20  O   UNL     1      46.844 -41.928  52.083  0.00  0.00    +0.000 OA
ATOM     21  H   UNL     1      46.514 -42.538  52.782  0.00  0.00    +0.000 HD
ENDBRANCH   7  20
BRANCH  11  22
ATOM     22  O   UNL     1      48.816 -46.093  50.959  0.00  0.00    +0.000 OA
ATOM     23  H   UNL     1      49.772 -46.270  51.006  0.00  0.00    +0.000 HD
ENDBRANCH  11  22
TORSDOF 4
ENDMDL
MODEL 4
REMARK VINA RESULT:      -6.7      1.425      7.089
REMARK  Name = Genistein.pdbqt.pdb
REMARK  4 active torsions:
REMARK  status: ('A' for Active; 'I' for Inactive)
REMARK    1  A    between atoms: C_4  and  C_12
REMARK    2  A    between atoms: C_7  and  O_20
REMARK    3  A    between atoms: C_11  and  O_22
REMARK    4  A    between atoms: C_17  and  O_18
REMARK                            x       y       z     vdW  Elec       q    Type
REMARK                         _______ _______ _______ _____ _____    ______ ____
ROOT
ATOM      1  O   UNL     1      47.075 -42.625  51.687  0.00  0.00    +0.000 OA
ATOM      2  O   UNL     1      50.144 -43.348  48.938  0.00  0.00    +0.000 OA
ATOM      3  C   UNL     1      48.600 -44.205  50.531  0.00  0.00    +0.000 A 
ATOM      4  C   UNL     1      48.709 -41.722  50.001  0.00  0.00    +0.000 A 
ATOM      5  C   UNL     1      47.557 -43.912  51.457  0.00  0.00    +0.000 A 
ATOM      6  C   UNL     1      49.247 -43.096  49.734  0.00  0.00    +0.000 A 
ATOM      7  C   UNL     1      49.018 -45.529  50.367  0.00  0.00    +0.000 A 
ATOM      8  C   UNL     1      47.777 -41.834  50.894  0.00  0.00    +0.000 A 
ATOM      9  C   UNL     1      46.961 -44.934  52.192  0.00  0.00    +0.000 A 
ATOM     10  C   UNL     1      48.417 -46.546  51.106  0.00  0.00    +0.000 A 
ATOM     11  C   UNL     1      47.398 -46.241  52.007  0.00  0.00    +0.000 A 
ENDROOT
BRANCH   4  12
ATOM     12  C   UNL     1      49.145 -40.474  49.379  0.00  0.00    +0.000 A 
ATOM     13  C   UNL     1      49.356 -40.389  48.000  0.00  0.00    +0.000 A 
ATOM     14  C   UNL     1      49.360 -39.329  50.155  0.00  0.00    +0.000 A 
ATOM     15  C   UNL     1      49.771 -39.199  47.406  0.00  0.00    +0.000 A 
ATOM     16  C   UNL     1      49.776 -38.132  49.574  0.00  0.00    +0.000 A 
ATOM     17  C   UNL     1      49.978 -38.078  48.201  0.00  0.00    +0.000 A 
BRANCH  17  18
ATOM     18  O   UNL     1      50.384 -36.898  47.651  0.00  0.00    +0.000 OA
ATOM     19  H   UNL     1      50.568 -37.049  46.707  0.00  0.00    +0.000 HD
ENDBRANCH  17  18
ENDBRANCH   4  12
BRANCH   7  20
ATOM     20  O   UNL     1      50.010 -45.904  49.502  0.00  0.00    +0.000 OA
ATOM     21  H   UNL     1      49.715 -46.704  49.012  0.00  0.00    +0.000 HD
ENDBRANCH   7  20
BRANCH  11  22
ATOM     22  O   UNL     1      46.802 -47.229  52.736  0.00  0.00    +0.000 OA
ATOM     23  H   UNL     1      45.860 -47.006  52.837  0.00  0.00    +0.000 HD
ENDBRANCH  11  22
TORSDOF 4
ENDMDL
MODEL 5
REMARK VINA RESULT:      -6.6      2.506      4.225
REMARK  Name = Genistein.pdbqt.pdb
REMARK  4 active torsions:
REMARK  status: ('A' for Active; 'I' for Inactive)
REMARK    1  A    between atoms: C_4  and  C_12
REMARK    2  A    between atoms: C_7  and  O_20
REMARK    3  A    between atoms: C_11  and  O_22
REMARK    4  A    between atoms: C_17  and  O_18
REMARK                            x       y       z     vdW  Elec       q    Type
REMARK                         _______ _______ _______ _____ _____    ______ ____
ROOT
ATOM      1  O   UNL     1      47.723 -43.798  52.816  0.00  0.00    +0.000 OA
ATOM      2  O   UNL     1      49.292 -45.383  49.276  0.00  0.00    +0.000 OA
ATOM      3  C   UNL     1      48.596 -43.476  50.514  0.00  0.00    +0.000 A 
ATOM      4  C   UNL     1      48.462 -45.813  51.503  0.00  0.00    +0.000 A 
ATOM      5  C   UNL     1      48.059 -42.980  51.738  0.00  0.00    +0.000 A 
ATOM      6  C   UNL     1      48.831 -44.957  50.328  0.00  0.00    +0.000 A 
ATOM      7  C   UNL     1      48.903 -42.578  49.488  0.00  0.00    +0.000 A 
ATOM      8  C   UNL     1      48.009 -45.029  52.430  0.00  0.00    +0.000 A 
ATOM      9  C   UNL     1      47.841 -41.615  51.909  0.00  0.00    +0.000 A 
ATOM     10  C   UNL     1      48.682 -41.213  49.667  0.00  0.00    +0.000 A 
ATOM     11  C   UNL     1      48.157 -40.746  50.870  0.00  0.00    +0.000 A 
ENDROOT
BRANCH   4  12
ATOM     12  C   UNL     1      48.581 -47.266  51.600  0.00  0.00    +0.000 A 
ATOM     13  C   UNL     1      49.823 -47.897  51.496  0.00  0.00    +0.000 A 
ATOM     14  C   UNL     1      47.447 -48.061  51.803  0.00  0.00    +0.000 A 
ATOM     15  C   UNL     1      49.938 -49.283  51.589  0.00  0.00    +0.000 A 
ATOM     16  C   UNL     1      47.547 -49.448  51.898  0.00  0.00    +0.000 A 
ATOM     17  C   UNL     1      48.795 -50.048  51.790  0.00  0.00    +0.000 A 
BRANCH  17  18
ATOM     18  O   UNL     1      48.873 -51.406  51.886  0.00  0.00    +0.000 OA
ATOM     19  H   UNL     1      48.270 -51.793  51.227  0.00  0.00    +0.000 HD
ENDBRANCH  17  18
ENDBRANCH   4  12
BRANCH   7  20
ATOM     20  O   UNL     1      49.421 -42.962  48.281  0.00  0.00    +0.000 OA
ATOM     21  H   UNL     1      49.967 -43.770  48.415  0.00  0.00    +0.000 HD
ENDBRANCH   7  20
BRANCH  11  22
ATOM     22  O   UNL     1      47.938 -39.412  51.057  0.00  0.00    +0.000 OA
ATOM     23  H   UNL     1      48.540 -39.099  51.755  0.00  0.00    +0.000 HD
ENDBRANCH  11  22
TORSDOF 4
ENDMDL
MODEL 6
REMARK VINA RESULT:      -6.5     15.335     17.230
REMARK  Name = Genistein.pdbqt.pdb
REMARK  4 active torsions:
REMARK  status: ('A' for Active; 'I' for Inactive)
REMARK    1  A    between atoms: C_4  and  C_12
REMARK    2  A    between atoms: C_7  and  O_20
REMARK    3  A    between atoms: C_11  and  O_22
REMARK    4  A    between atoms: C_17  and  O_18
REMARK                            x       y       z     vdW  Elec       q    Type
REMARK                         _______ _______ _______ _____ _____    ______ ____
ROOT
ATOM      1  O   UNL     1      58.856 -51.327  57.459  0.00  0.00    +0.000 OA
ATOM      2  O   UNL     1      57.907 -49.878  61.268  0.00  0.00    +0.000 OA
ATOM      3  C   UNL     1      57.778 -51.638  59.673  0.00  0.00    +0.000 A 
ATOM      4  C   UNL     1      58.992 -49.468  59.149  0.00  0.00    +0.000 A 
ATOM      5  C   UNL     1      58.123 -52.091  58.366  0.00  0.00    +0.000 A 
ATOM      6  C   UNL     1      58.205 -50.267  60.144  0.00  0.00    +0.000 A 
ATOM      7  C   UNL     1      57.039 -52.475  60.514  0.00  0.00    +0.000 A 
ATOM      8  C   UNL     1      59.114 -50.189  58.079  0.00  0.00    +0.000 A 
ATOM      9  C   UNL     1      57.729 -53.353  57.932  0.00  0.00    +0.000 A 
ATOM     10  C   UNL     1      56.648 -53.738  60.072  0.00  0.00    +0.000 A 
ATOM     11  C   UNL     1      56.995 -54.164  58.792  0.00  0.00    +0.000 A 
ENDROOT
BRANCH   4  12
ATOM     12  C   UNL     1      59.528 -48.122  59.334  0.00  0.00    +0.000 A 
ATOM     13  C   UNL     1      59.760 -47.606  60.612  0.00  0.00    +0.000 A 
ATOM     14  C   UNL     1      59.825 -47.316  58.228  0.00  0.00    +0.000 A 
ATOM     15  C   UNL     1      60.272 -46.322  60.789  0.00  0.00    +0.000 A 
ATOM     16  C   UNL     1      60.337 -46.030  58.391  0.00  0.00    +0.000 A 
ATOM     17  C   UNL     1      60.557 -45.543  59.673  0.00  0.00    +0.000 A 
BRANCH  17  18
ATOM     18  O   UNL     1      61.059 -44.283  59.812  0.00  0.00    +0.000 OA
ATOM     19  H   UNL     1      60.805 -43.949  60.690  0.00  0.00    +0.000 HD
ENDBRANCH  17  18
ENDBRANCH   4  12
BRANCH   7  20
ATOM     20  O   UNL     1      56.662 -52.126  61.783  0.00  0.00    +0.000 OA
ATOM     21  H   UNL     1      56.776 -52.907  62.372  0.00  0.00    +0.000 HD
ENDBRANCH   7  20
BRANCH  11  22
ATOM     22  O   UNL     1      56.618 -55.399  58.348  0.00  0.00    +0.000 OA
ATOM     23  H   UNL     1      56.281 -55.905  59.109  0.00  0.00    +0.000 HD
ENDBRANCH  11  22
TORSDOF 4
ENDMDL
MODEL 7
REMARK VINA RESULT:      -6.4      3.387      8.535
REMARK  Name = Genistein.pdbqt.pdb
REMARK  4 active torsions:
REMARK  status: ('A' for Active; 'I' for Inactive)
REMARK    1  A    between atoms: C_4  and  C_12
REMARK    2  A    between atoms: C_7  and  O_20
REMARK    3  A    between atoms: C_11  and  O_22
REMARK    4  A    between atoms: C_17  and  O_18
REMARK                            x       y       z     vdW  Elec       q    Type
REMARK                         _______ _______ _______ _____ _____    ______ ____
ROOT
ATOM      1  O   UNL     1      49.890 -39.308  47.227  0.00  0.00    +0.000 OA
ATOM      2  O   UNL     1      48.126 -36.237  49.455  0.00  0.00    +0.000 OA
ATOM      3  C   UNL     1      48.727 -38.531  49.278  0.00  0.00    +0.000 A 
ATOM      4  C   UNL     1      49.252 -36.882  47.418  0.00  0.00    +0.000 A 
ATOM      5  C   UNL     1      49.338 -39.546  48.484  0.00  0.00    +0.000 A 
ATOM      6  C   UNL     1      48.651 -37.109  48.773  0.00  0.00    +0.000 A 
ATOM      7  C   UNL     1      48.201 -38.865  50.529  0.00  0.00    +0.000 A 
ATOM      8  C   UNL     1      49.709 -38.019  46.998  0.00  0.00    +0.000 A 
ATOM      9  C   UNL     1      49.408 -40.856  48.950  0.00  0.00    +0.000 A 
ATOM     10  C   UNL     1      48.275 -40.179  50.988  0.00  0.00    +0.000 A 
ATOM     11  C   UNL     1      48.875 -41.158  50.199  0.00  0.00    +0.000 A 
ENDROOT
BRANCH   4  12
ATOM     12  C   UNL     1      49.317 -35.617  46.689  0.00  0.00    +0.000 A 
ATOM     13  C   UNL     1      48.389 -35.310  45.690  0.00  0.00    +0.000 A 
ATOM     14  C   UNL     1      50.315 -34.679  46.979  0.00  0.00    +0.000 A 
ATOM     15  C   UNL     1      48.450 -34.104  44.995  0.00  0.00    +0.000 A 
ATOM     16  C   UNL     1      50.388 -33.468  46.291  0.00  0.00    +0.000 A 
ATOM     17  C   UNL     1      49.452 -33.191  45.304  0.00  0.00    +0.000 A 
BRANCH  17  18
ATOM     18  O   UNL     1      49.540 -32.001  44.642  0.00  0.00    +0.000 OA
ATOM     19  H   UNL     1      48.648 -31.755  44.339  0.00  0.00    +0.000 HD
ENDBRANCH  17  18
ENDBRANCH   4  12
BRANCH   7  20
ATOM     20  O   UNL     1      47.598 -37.959  51.359  0.00  0.00    +0.000 OA
ATOM     21  H   UNL     1      48.041 -37.992  52.237  0.00  0.00    +0.000 HD
ENDBRANCH   7  20
BRANCH  11  22
ATOM     22  O   UNL     1      48.954 -42.448  50.639  0.00  0.00    +0.000 OA
ATOM     23  H   UNL     1      48.053 -42.815  50.666  0.00  0.00    +0.000 HD
ENDBRANCH  11  22
TORSDOF 4
ENDMDL
MODEL 8
REMARK VINA RESULT:      -6.1      6.783     11.018
REMARK  Name = Genistein.pdbqt.pdb
REMARK  4 active torsions:
REMARK  status: ('A' for Active; 'I' for Inactive)
REMARK    1  A    between atoms: C_4  and  C_12
REMARK    2  A    between atoms: C_7  and  O_20
REMARK    3  A    between atoms: C_11  and  O_22
REMARK    4  A    between atoms: C_17  and  O_18
REMARK                            x       y       z     vdW  Elec       q    Type
REMARK                         _______ _______ _______ _____ _____    ______ ____
ROOT
ATOM      1  O   UNL     1      48.639 -51.709  51.999  0.00  0.00    +0.000 OA
ATOM      2  O   UNL     1      46.034 -50.507  55.044  0.00  0.00    +0.000 OA
ATOM      3  C   UNL     1      47.739 -51.986  54.296  0.00  0.00    +0.000 A 
ATOM      4  C   UNL     1      46.835 -50.146  52.794  0.00  0.00    +0.000 A 
ATOM      5  C   UNL     1      48.609 -52.361  53.230  0.00  0.00    +0.000 A 
ATOM      6  C   UNL     1      46.782 -50.829  54.128  0.00  0.00    +0.000 A 
ATOM      7  C   UNL     1      47.781 -52.700  55.496  0.00  0.00    +0.000 A 
ATOM      8  C   UNL     1      47.734 -50.749  52.082  0.00  0.00    +0.000 A 
ATOM      9  C   UNL     1      49.491 -53.428  53.384  0.00  0.00    +0.000 A 
ATOM     10  C   UNL     1      48.666 -53.767  55.643  0.00  0.00    +0.000 A 
ATOM     11  C   UNL     1      49.509 -54.119  54.591  0.00  0.00    +0.000 A 
ENDROOT
BRANCH   4  12
ATOM     12  C   UNL     1      46.028 -49.008  52.360  0.00  0.00    +0.000 A 
ATOM     13  C   UNL     1      46.255 -47.725  52.867  0.00  0.00    +0.000 A 
ATOM     14  C   UNL     1      45.006 -49.178  51.419  0.00  0.00    +0.000 A 
ATOM     15  C   UNL     1      45.486 -46.640  52.453  0.00  0.00    +0.000 A 
ATOM     16  C   UNL     1      44.229 -48.101  50.996  0.00  0.00    +0.000 A 
ATOM     17  C   UNL     1      44.477 -46.838  51.518  0.00  0.00    +0.000 A 
BRANCH  17  18
ATOM     18  O   UNL     1      43.707 -45.796  51.091  0.00  0.00    +0.000 OA
ATOM     19  H   UNL     1      44.276 -45.178  50.599  0.00  0.00    +0.000 HD
ENDBRANCH  17  18
ENDBRANCH   4  12
BRANCH   7  20
ATOM     20  O   UNL     1      46.985 -52.413  56.572  0.00  0.00    +0.000 OA
ATOM     21  H   UNL     1      47.205 -53.035  57.302  0.00  0.00    +0.000 HD
ENDBRANCH   7  20
BRANCH  11  22
ATOM     22  O   UNL     1      50.381 -55.161  54.723  0.00  0.00    +0.000 OA
ATOM     23  H   UNL     1      50.241 -55.565  55.598  0.00  0.00    +0.000 HD
ENDBRANCH  11  22
TORSDOF 4
ENDMDL
MODEL 9
REMARK VINA RESULT:      -6.0      5.141      9.929
REMARK  Name = Genistein.pdbqt.pdb
REMARK  4 active torsions:
REMARK  status: ('A' for Active; 'I' for Inactive)
REMARK    1  A    between atoms: C_4  and  C_12
REMARK    2  A    between atoms: C_7  and  O_20
REMARK    3  A    between atoms: C_11  and  O_22
REMARK    4  A    between atoms: C_17  and  O_18
REMARK                            x       y       z     vdW  Elec       q    Type
REMARK                         _______ _______ _______ _____ _____    ______ ____
ROOT
ATOM      1  O   UNL     1      42.578 -49.738  50.854  0.00  0.00    +0.000 OA
ATOM      2  O   UNL     1      41.894 -45.616  51.064  0.00  0.00    +0.000 OA
ATOM      3  C   UNL     1      41.015 -47.810  50.806  0.00  0.00    +0.000 A 
ATOM      4  C   UNL     1      43.504 -47.415  51.127  0.00  0.00    +0.000 A 
ATOM      5  C   UNL     1      41.295 -49.207  50.740  0.00  0.00    +0.000 A 
ATOM      6  C   UNL     1      42.134 -46.816  51.007  0.00  0.00    +0.000 A 
ATOM      7  C   UNL     1      39.694 -47.371  50.681  0.00  0.00    +0.000 A 
ATOM      8  C   UNL     1      43.379 -48.700  51.021  0.00  0.00    +0.000 A 
ATOM      9  C   UNL     1      40.263 -50.123  50.553  0.00  0.00    +0.000 A 
ATOM     10  C   UNL     1      38.667 -48.294  50.494  0.00  0.00    +0.000 A 
ATOM     11  C   UNL     1      38.959 -49.655  50.433  0.00  0.00    +0.000 A 
ENDROOT
BRANCH   4  12
ATOM     12  C   UNL     1      44.761 -46.695  51.325  0.00  0.00    +0.000 A 
ATOM     13  C   UNL     1      45.380 -46.653  52.577  0.00  0.00    +0.000 A 
ATOM     14  C   UNL     1      45.376 -46.031  50.257  0.00  0.00    +0.000 A 
ATOM     15  C   UNL     1      46.578 -45.968  52.766  0.00  0.00    +0.000 A 
ATOM     16  C   UNL     1      46.575 -45.341  50.433  0.00  0.00    +0.000 A 
ATOM     17  C   UNL     1      47.166 -45.317  51.689  0.00  0.00    +0.000 A 
BRANCH  17  18
ATOM     18  O   UNL     1      48.340 -44.637  51.840  0.00  0.00    +0.000 OA
ATOM     19  H   UNL     1      48.336 -43.882  51.225  0.00  0.00    +0.000 HD
ENDBRANCH  17  18
ENDBRANCH   4  12
BRANCH   7  20
ATOM     20  O   UNL     1      39.331 -46.052  50.732  0.00  0.00    +0.000 OA
ATOM     21  H   UNL     1      38.571 -45.958  51.351  0.00  0.00    +0.000 HD
ENDBRANCH   7  20
BRANCH  11  22
ATOM     22  O   UNL     1      37.961 -50.569  50.251  0.00  0.00    +0.000 OA
ATOM     23  H   UNL     1      37.480 -50.335  49.437  0.00  0.00    +0.000 HD
ENDBRANCH  11  22
TORSDOF 4
ENDMDL
