MODEL 1
REMARK VINA RESULT:      -7.2      0.000      0.000
REMARK  Name = Hyoscyamine.pdbqt.pdb
REMARK  6 active torsions:
REMARK  status: ('A' for Active; 'I' for Inactive)
REMARK    1  A    between atoms: C_2  and  O_3
REMARK    2  A    between atoms: C_2  and  C_13
REMARK    3  A    between atoms: O_3  and  C_4
REMARK    4  A    between atoms: C_13  and  C_14
REMARK    5  A    between atoms: C_13  and  C_20
REMARK    6  A    between atoms: C_20  and  O_21
REMARK                            x       y       z     vdW  Elec       q    Type
REMARK                         _______ _______ _______ _____ _____    ______ ____
ROOT
ATOM      1  O   UNL     1      50.564 -38.087  49.210  0.00  0.00    +0.000 OA
ATOM      2  C   UNL     1      49.749 -38.971  49.441  0.00  0.00    +0.000 C 
ENDROOT
BRANCH   2   3
ATOM      3  O   UNL     1      49.641 -40.172  48.802  0.00  0.00    +0.000 OA
BRANCH   3   4
ATOM      4  C   UNL     1      49.109 -40.060  47.518  0.00  0.00    +0.000 C 
ATOM      5  C   UNL     1      49.165 -41.174  46.588  0.00  0.00    +0.000 C 
ATOM      6  C   UNL     1      49.457 -41.106  45.150  0.00  0.00    +0.000 C 
ATOM      7  N   UNL     1      50.591 -40.077  45.047  0.00  0.00    +0.000 NA
ATOM      8  C   UNL     1      48.376 -40.522  44.375  0.00  0.00    +0.000 C 
ATOM      9  C   UNL     1      49.733 -38.828  45.300  0.00  0.00    +0.000 C 
ATOM     10  C   UNL     1      51.181 -40.060  43.700  0.00  0.00    +0.000 C 
ATOM     11  C   UNL     1      48.553 -39.005  44.466  0.00  0.00    +0.000 C 
ATOM     12  C   UNL     1      49.437 -38.881  46.740  0.00  0.00    +0.000 C 
ENDBRANCH   3   4
ENDBRANCH   2   3
BRANCH   2  13
ATOM     13  C   UNL     1      48.682 -38.838  50.477  0.00  0.00    +0.000 C 
BRANCH  13  14
ATOM     14  C   UNL     1      48.382 -37.582  51.188  0.00  0.00    +0.000 A 
ATOM     15  C   UNL     1      49.366 -36.955  51.960  0.00  0.00    +0.000 A 
ATOM     16  C   UNL     1      49.086 -35.787  52.668  0.00  0.00    +0.000 A 
ATOM     17  C   UNL     1      47.811 -35.234  52.618  0.00  0.00    +0.000 A 
ATOM     18  C   UNL     1      46.818 -35.849  51.864  0.00  0.00    +0.000 A 
ATOM     19  C   UNL     1      47.104 -37.018  51.159  0.00  0.00    +0.000 A 
ENDBRANCH  13  14
BRANCH  13  20
ATOM     20  C   UNL     1      47.876 -39.994  50.727  0.00  0.00    +0.000 C 
BRANCH  20  21
ATOM     21  O   UNL     1      47.129 -41.068  50.960  0.00  0.00    +0.000 OA
ATOM     22  H   UNL     1      46.347 -40.831  51.488  0.00  0.00    +0.000 HD
ENDBRANCH  20  21
ENDBRANCH  13  20
ENDBRANCH   2  13
TORSDOF 6
ENDMDL
MODEL 2
REMARK VINA RESULT:      -6.2     17.881     19.733
REMARK  Name = Hyoscyamine.pdbqt.pdb
REMARK  6 active torsions:
REMARK  status: ('A' for Active; 'I' for Inactive)
REMARK    1  A    between atoms: C_2  and  O_3
REMARK    2  A    between atoms: C_2  and  C_13
REMARK    3  A    between atoms: O_3  and  C_4
REMARK    4  A    between atoms: C_13  and  C_14
REMARK    5  A    between atoms: C_13  and  C_20
REMARK    6  A    between atoms: C_20  and  O_21
REMARK                            x       y       z     vdW  Elec       q    Type
REMARK                         _______ _______ _______ _____ _____    ______ ____
ROOT
ATOM      1  O   UNL     1      60.561 -51.382  61.005  0.00  0.00    +0.000 OA
ATOM      2  C   UNL     1      59.925 -50.904  60.074  0.00  0.00    +0.000 C 
ENDROOT
BRANCH   2   3
ATOM      3  O   UNL     1      60.409 -50.119  59.069  0.00  0.00    +0.000 OA
BRANCH   3   4
ATOM      4  C   UNL     1      60.765 -48.841  59.501  0.00  0.00    +0.000 C 
ATOM      5  C   UNL     1      61.018 -48.572  60.905  0.00  0.00    +0.000 C 
ATOM      6  C   UNL     1      60.604 -47.383  61.662  0.00  0.00    +0.000 C 
ATOM      7  N   UNL     1      59.182 -47.096  61.160  0.00  0.00    +0.000 NA
ATOM      8  C   UNL     1      61.354 -46.191  61.305  0.00  0.00    +0.000 C 
ATOM      9  C   UNL     1      59.580 -46.531  59.787  0.00  0.00    +0.000 C 
ATOM     10  C   UNL     1      58.515 -46.079  61.987  0.00  0.00    +0.000 C 
ATOM     11  C   UNL     1      60.678 -45.614  60.061  0.00  0.00    +0.000 C 
ATOM     12  C   UNL     1      59.993 -47.714  59.017  0.00  0.00    +0.000 C 
ENDBRANCH   3   4
ENDBRANCH   2   3
BRANCH   2  13
ATOM     13  C   UNL     1      58.451 -51.092  59.920  0.00  0.00    +0.000 C 
BRANCH  13  14
ATOM     14  C   UNL     1      57.835 -52.296  59.333  0.00  0.00    +0.000 A 
ATOM     15  C   UNL     1      57.172 -53.219  60.150  0.00  0.00    +0.000 A 
ATOM     16  C   UNL     1      56.616 -54.380  59.615  0.00  0.00    +0.000 A 
ATOM     17  C   UNL     1      56.726 -54.638  58.252  0.00  0.00    +0.000 A 
ATOM     18  C   UNL     1      57.390 -53.737  57.428  0.00  0.00    +0.000 A 
ATOM     19  C   UNL     1      57.944 -52.577  57.969  0.00  0.00    +0.000 A 
ENDBRANCH  13  14
BRANCH  13  20
ATOM     20  C   UNL     1      57.611 -50.057  60.439  0.00  0.00    +0.000 C 
BRANCH  20  21
ATOM     21  O   UNL     1      56.830 -49.096  60.921  0.00  0.00    +0.000 OA
ATOM     22  H   UNL     1      56.633 -49.256  61.861  0.00  0.00    +0.000 HD
ENDBRANCH  20  21
ENDBRANCH  13  20
ENDBRANCH   2  13
TORSDOF 6
ENDMDL
MODEL 3
REMARK VINA RESULT:      -6.2      2.728      3.504
REMARK  Name = Hyoscyamine.pdbqt.pdb
REMARK  6 active torsions:
REMARK  status: ('A' for Active; 'I' for Inactive)
REMARK    1  A    between atoms: C_2  and  O_3
REMARK    2  A    between atoms: C_2  and  C_13
REMARK    3  A    between atoms: O_3  and  C_4
REMARK    4  A    between atoms: C_13  and  C_14
REMARK    5  A    between atoms: C_13  and  C_20
REMARK    6  A    between atoms: C_20  and  O_21
REMARK                            x       y       z     vdW  Elec       q    Type
REMARK                         _______ _______ _______ _____ _____    ______ ____
ROOT
ATOM      1  O   UNL     1      48.846 -39.383  48.188  0.00  0.00    +0.000 OA
ATOM      2  C   UNL     1      48.141 -39.883  49.056  0.00  0.00    +0.000 C 
ENDROOT
BRANCH   2   3
ATOM      3  O   UNL     1      47.115 -40.763  48.872  0.00  0.00    +0.000 OA
BRANCH   3   4
ATOM      4  C   UNL     1      47.227 -41.488  47.685  0.00  0.00    +0.000 C 
ATOM      5  C   UNL     1      46.387 -41.178  46.541  0.00  0.00    +0.000 C 
ATOM      6  C   UNL     1      45.743 -42.138  45.636  0.00  0.00    +0.000 C 
ATOM      7  N   UNL     1      45.241 -43.251  46.566  0.00  0.00    +0.000 NA
ATOM      8  C   UNL     1      46.684 -42.810  44.756  0.00  0.00    +0.000 C 
ATOM      9  C   UNL     1      46.610 -43.886  46.854  0.00  0.00    +0.000 C 
ATOM     10  C   UNL     1      44.353 -44.184  45.858  0.00  0.00    +0.000 C 
ATOM     11  C   UNL     1      47.263 -43.978  45.556  0.00  0.00    +0.000 C 
ATOM     12  C   UNL     1      47.264 -42.934  47.765  0.00  0.00    +0.000 C 
ENDBRANCH   3   4
ENDBRANCH   2   3
BRANCH   2  13
ATOM     13  C   UNL     1      48.287 -39.553  50.505  0.00  0.00    +0.000 C 
BRANCH  13  14
ATOM     14  C   UNL     1      48.292 -38.177  51.036  0.00  0.00    +0.000 A 
ATOM     15  C   UNL     1      49.462 -37.635  51.580  0.00  0.00    +0.000 A 
ATOM     16  C   UNL     1      49.473 -36.349  52.118  0.00  0.00    +0.000 A 
ATOM     17  C   UNL     1      48.308 -35.591  52.129  0.00  0.00    +0.000 A 
ATOM     18  C   UNL     1      47.133 -36.118  51.602  0.00  0.00    +0.000 A 
ATOM     19  C   UNL     1      47.129 -37.405  51.065  0.00  0.00    +0.000 A 
ENDBRANCH  13  14
BRANCH  13  20
ATOM     20  C   UNL     1      48.357 -40.655  51.415  0.00  0.00    +0.000 C 
BRANCH  20  21
ATOM     21  O   UNL     1      48.422 -41.679  52.260  0.00  0.00    +0.000 OA
ATOM     22  H   UNL     1      48.636 -41.368  53.157  0.00  0.00    +0.000 HD
ENDBRANCH  20  21
ENDBRANCH  13  20
ENDBRANCH   2  13
TORSDOF 6
ENDMDL
MODEL 4
REMARK VINA RESULT:      -6.0     17.950     19.728
REMARK  Name = Hyoscyamine.pdbqt.pdb
REMARK  6 active torsions:
REMARK  status: ('A' for Active; 'I' for Inactive)
REMARK    1  A    between atoms: C_2  and  O_3
REMARK    2  A    between atoms: C_2  and  C_13
REMARK    3  A    between atoms: O_3  and  C_4
REMARK    4  A    between atoms: C_13  and  C_14
REMARK    5  A    between atoms: C_13  and  C_20
REMARK    6  A    between atoms: C_20  and  O_21
REMARK                            x       y       z     vdW  Elec       q    Type
REMARK                         _______ _______ _______ _____ _____    ______ ____
ROOT
ATOM      1  O   UNL     1      65.512 -45.535  60.148  0.00  0.00    +0.000 OA
ATOM      2  C   UNL     1      64.714 -44.693  59.755  0.00  0.00    +0.000 C 
ENDROOT
BRANCH   2   3
ATOM      3  O   UNL     1      63.477 -44.434  60.269  0.00  0.00    +0.000 OA
BRANCH   3   4
ATOM      4  C   UNL     1      62.566 -45.465  60.038  0.00  0.00    +0.000 C 
ATOM      5  C   UNL     1      61.282 -45.200  59.413  0.00  0.00    +0.000 C 
ATOM      6  C   UNL     1      59.986 -45.784  59.781  0.00  0.00    +0.000 C 
ATOM      7  N   UNL     1      60.005 -45.799  61.316  0.00  0.00    +0.000 NA
ATOM      8  C   UNL     1      59.868 -47.185  59.415  0.00  0.00    +0.000 C 
ATOM      9  C   UNL     1      60.989 -46.968  61.479  0.00  0.00    +0.000 C 
ATOM     10  C   UNL     1      58.682 -46.129  61.867  0.00  0.00    +0.000 C 
ATOM     11  C   UNL     1      60.529 -47.982  60.540  0.00  0.00    +0.000 C 
ATOM     12  C   UNL     1      62.294 -46.394  61.117  0.00  0.00    +0.000 C 
ENDBRANCH   3   4
ENDBRANCH   2   3
BRANCH   2  13
ATOM     13  C   UNL     1      64.980 -43.814  58.577  0.00  0.00    +0.000 C 
BRANCH  13  14
ATOM     14  C   UNL     1      65.162 -44.319  57.203  0.00  0.00    +0.000 A 
ATOM     15  C   UNL     1      64.977 -45.676  56.919  0.00  0.00    +0.000 A 
ATOM     16  C   UNL     1      65.182 -46.173  55.632  0.00  0.00    +0.000 A 
ATOM     17  C   UNL     1      65.584 -45.317  54.613  0.00  0.00    +0.000 A 
ATOM     18  C   UNL     1      65.783 -43.967  54.881  0.00  0.00    +0.000 A 
ATOM     19  C   UNL     1      65.577 -43.475  56.169  0.00  0.00    +0.000 A 
ENDBRANCH  13  14
BRANCH  13  20
ATOM     20  C   UNL     1      64.987 -42.403  58.812  0.00  0.00    +0.000 C 
BRANCH  20  21
ATOM     21  O   UNL     1      64.993 -41.092  59.030  0.00  0.00    +0.000 OA
ATOM     22  H   UNL     1      64.552 -40.623  58.301  0.00  0.00    +0.000 HD
ENDBRANCH  20  21
ENDBRANCH  13  20
ENDBRANCH   2  13
TORSDOF 6
ENDMDL
MODEL 5
REMARK VINA RESULT:      -5.8      3.765      6.041
REMARK  Name = Hyoscyamine.pdbqt.pdb
REMARK  6 active torsions:
REMARK  status: ('A' for Active; 'I' for Inactive)
REMARK    1  A    between atoms: C_2  and  O_3
REMARK    2  A    between atoms: C_2  and  C_13
REMARK    3  A    between atoms: O_3  and  C_4
REMARK    4  A    between atoms: C_13  and  C_14
REMARK    5  A    between atoms: C_13  and  C_20
REMARK    6  A    between atoms: C_20  and  O_21
REMARK                            x       y       z     vdW  Elec       q    Type
REMARK                         _______ _______ _______ _____ _____    ______ ____
ROOT
ATOM      1  O   UNL     1      47.061 -43.748  48.070  0.00  0.00    +0.000 OA
ATOM      2  C   UNL     1      47.683 -42.977  48.790  0.00  0.00    +0.000 C 
ENDROOT
BRANCH   2   3
ATOM      3  O   UNL     1      47.744 -41.619  48.677  0.00  0.00    +0.000 OA
BRANCH   3   4
ATOM      4  C   UNL     1      48.330 -41.198  47.482  0.00  0.00    +0.000 C 
ATOM      5  C   UNL     1      49.578 -40.456  47.485  0.00  0.00    +0.000 C 
ATOM      6  C   UNL     1      49.921 -39.309  46.634  0.00  0.00    +0.000 C 
ATOM      7  N   UNL     1      48.634 -38.474  46.594  0.00  0.00    +0.000 NA
ATOM      8  C   UNL     1      50.149 -39.675  45.247  0.00  0.00    +0.000 C 
ATOM      9  C   UNL     1      47.842 -39.397  45.655  0.00  0.00    +0.000 C 
ATOM     10  C   UNL     1      48.866 -37.156  45.984  0.00  0.00    +0.000 C 
ATOM     11  C   UNL     1      48.771 -39.733  44.585  0.00  0.00    +0.000 C 
ATOM     12  C   UNL     1      47.488 -40.550  46.497  0.00  0.00    +0.000 C 
ENDBRANCH   3   4
ENDBRANCH   2   3
BRANCH   2  13
ATOM     13  C   UNL     1      48.535 -43.440  49.926  0.00  0.00    +0.000 C 
BRANCH  13  14
ATOM     14  C   UNL     1      49.418 -44.620  49.860  0.00  0.00    +0.000 A 
ATOM     15  C   UNL     1      50.612 -44.568  49.132  0.00  0.00    +0.000 A 
ATOM     16  C   UNL     1      51.439 -45.686  49.031  0.00  0.00    +0.000 A 
ATOM     17  C   UNL     1      51.075 -46.877  49.651  0.00  0.00    +0.000 A 
ATOM     18  C   UNL     1      49.887 -46.948  50.370  0.00  0.00    +0.000 A 
ATOM     19  C   UNL     1      49.064 -45.827  50.468  0.00  0.00    +0.000 A 
ENDBRANCH  13  14
BRANCH  13  20
ATOM     20  C   UNL     1      48.525 -42.639  51.111  0.00  0.00    +0.000 C 
BRANCH  20  21
ATOM     21  O   UNL     1      48.515 -41.894  52.211  0.00  0.00    +0.000 OA
ATOM     22  H   UNL     1      47.974 -42.315  52.903  0.00  0.00    +0.000 HD
ENDBRANCH  20  21
ENDBRANCH  13  20
ENDBRANCH   2  13
TORSDOF 6
ENDMDL
MODEL 6
REMARK VINA RESULT:      -5.7      9.132     11.310
REMARK  Name = Hyoscyamine.pdbqt.pdb
REMARK  6 active torsions:
REMARK  status: ('A' for Active; 'I' for Inactive)
REMARK    1  A    between atoms: C_2  and  O_3
REMARK    2  A    between atoms: C_2  and  C_13
REMARK    3  A    between atoms: O_3  and  C_4
REMARK    4  A    between atoms: C_13  and  C_14
REMARK    5  A    between atoms: C_13  and  C_20
REMARK    6  A    between atoms: C_20  and  O_21
REMARK                            x       y       z     vdW  Elec       q    Type
REMARK                         _______ _______ _______ _____ _____    ______ ____
ROOT
ATOM      1  O   UNL     1      46.116 -48.229  49.325  0.00  0.00    +0.000 OA
ATOM      2  C   UNL     1      45.911 -48.082  50.523  0.00  0.00    +0.000 C 
ENDROOT
BRANCH   2   3
ATOM      3  O   UNL     1      44.756 -48.359  51.196  0.00  0.00    +0.000 OA
BRANCH   3   4
ATOM      4  C   UNL     1      43.620 -47.873  50.548  0.00  0.00    +0.000 C 
ATOM      5  C   UNL     1      42.864 -46.764  51.102  0.00  0.00    +0.000 C 
ATOM      6  C   UNL     1      41.402 -46.629  51.145  0.00  0.00    +0.000 C 
ATOM      7  N   UNL     1      40.907 -48.037  51.506  0.00  0.00    +0.000 NA
ATOM      8  C   UNL     1      40.815 -46.371  49.842  0.00  0.00    +0.000 C 
ATOM      9  C   UNL     1      41.171 -48.684  50.137  0.00  0.00    +0.000 C 
ATOM     10  C   UNL     1      39.473 -48.035  51.832  0.00  0.00    +0.000 C 
ATOM     11  C   UNL     1      40.653 -47.732  49.164  0.00  0.00    +0.000 C 
ATOM     12  C   UNL     1      42.634 -48.828  50.084  0.00  0.00    +0.000 C 
ENDBRANCH   3   4
ENDBRANCH   2   3
BRANCH   2  13
ATOM     13  C   UNL     1      46.930 -47.516  51.456  0.00  0.00    +0.000 C 
BRANCH  13  14
ATOM     14  C   UNL     1      48.367 -47.422  51.141  0.00  0.00    +0.000 A 
ATOM     15  C   UNL     1      48.821 -46.515  50.177  0.00  0.00    +0.000 A 
ATOM     16  C   UNL     1      50.172 -46.441  49.842  0.00  0.00    +0.000 A 
ATOM     17  C   UNL     1      51.089 -47.283  50.464  0.00  0.00    +0.000 A 
ATOM     18  C   UNL     1      50.653 -48.198  51.417  0.00  0.00    +0.000 A 
ATOM     19  C   UNL     1      49.301 -48.267  51.747  0.00  0.00    +0.000 A 
ENDBRANCH  13  14
BRANCH  13  20
ATOM     20  C   UNL     1      46.448 -46.982  52.693  0.00  0.00    +0.000 C 
BRANCH  20  21
ATOM     21  O   UNL     1      46.000 -46.485  53.841  0.00  0.00    +0.000 OA
ATOM     22  H   UNL     1      46.087 -47.142  54.554  0.00  0.00    +0.000 HD
ENDBRANCH  20  21
ENDBRANCH  13  20
ENDBRANCH   2  13
TORSDOF 6
ENDMDL
MODEL 7
REMARK VINA RESULT:      -5.6     18.138     19.301
REMARK  Name = Hyoscyamine.pdbqt.pdb
REMARK  6 active torsions:
REMARK  status: ('A' for Active; 'I' for Inactive)
REMARK    1  A    between atoms: C_2  and  O_3
REMARK    2  A    between atoms: C_2  and  C_13
REMARK    3  A    between atoms: O_3  and  C_4
REMARK    4  A    between atoms: C_13  and  C_14
REMARK    5  A    between atoms: C_13  and  C_20
REMARK    6  A    between atoms: C_20  and  O_21
REMARK                            x       y       z     vdW  Elec       q    Type
REMARK                         _______ _______ _______ _____ _____    ______ ____
ROOT
ATOM      1  O   UNL     1      61.919 -47.680  61.518  0.00  0.00    +0.000 OA
ATOM      2  C   UNL     1      61.056 -46.892  61.150  0.00  0.00    +0.000 C 
ENDROOT
BRANCH   2   3
ATOM      3  O   UNL     1      61.236 -45.586  60.797  0.00  0.00    +0.000 OA
BRANCH   3   4
ATOM      4  C   UNL     1      62.177 -45.423  59.780  0.00  0.00    +0.000 C 
ATOM      5  C   UNL     1      62.241 -46.354  58.668  0.00  0.00    +0.000 C 
ATOM      6  C   UNL     1      63.455 -46.886  58.034  0.00  0.00    +0.000 C 
ATOM      7  N   UNL     1      64.399 -47.167  59.212  0.00  0.00    +0.000 NA
ATOM      8  C   UNL     1      64.163 -45.898  57.240  0.00  0.00    +0.000 C 
ATOM      9  C   UNL     1      64.760 -45.704  59.514  0.00  0.00    +0.000 C 
ATOM     10  C   UNL     1      65.578 -47.934  58.784  0.00  0.00    +0.000 C 
ATOM     11  C   UNL     1      65.038 -45.108  58.214  0.00  0.00    +0.000 C 
ATOM     12  C   UNL     1      63.552 -45.160  60.153  0.00  0.00    +0.000 C 
ENDBRANCH   3   4
ENDBRANCH   2   3
BRANCH   2  13
ATOM     13  C   UNL     1      59.609 -47.255  61.071  0.00  0.00    +0.000 C 
BRANCH  13  14
ATOM     14  C   UNL     1      59.096 -48.414  60.318  0.00  0.00    +0.000 A 
ATOM     15  C   UNL     1      58.160 -49.276  60.901  0.00  0.00    +0.000 A 
ATOM     16  C   UNL     1      57.693 -50.396  60.215  0.00  0.00    +0.000 A 
ATOM     17  C   UNL     1      58.165 -50.674  58.936  0.00  0.00    +0.000 A 
ATOM     18  C   UNL     1      59.103 -49.834  58.346  0.00  0.00    +0.000 A 
ATOM     19  C   UNL     1      59.566 -48.715  59.037  0.00  0.00    +0.000 A 
ENDBRANCH  13  14
BRANCH  13  20
ATOM     20  C   UNL     1      58.699 -46.454  61.830  0.00  0.00    +0.000 C 
BRANCH  20  21
ATOM     21  O   UNL     1      57.854 -45.711  62.536  0.00  0.00    +0.000 OA
ATOM     22  H   UNL     1      57.507 -46.215  63.293  0.00  0.00    +0.000 HD
ENDBRANCH  20  21
ENDBRANCH  13  20
ENDBRANCH   2  13
TORSDOF 6
ENDMDL
MODEL 8
REMARK VINA RESULT:      -5.6     17.870     19.361
REMARK  Name = Hyoscyamine.pdbqt.pdb
REMARK  6 active torsions:
REMARK  status: ('A' for Active; 'I' for Inactive)
REMARK    1  A    between atoms: C_2  and  O_3
REMARK    2  A    between atoms: C_2  and  C_13
REMARK    3  A    between atoms: O_3  and  C_4
REMARK    4  A    between atoms: C_13  and  C_14
REMARK    5  A    between atoms: C_13  and  C_20
REMARK    6  A    between atoms: C_20  and  O_21
REMARK                            x       y       z     vdW  Elec       q    Type
REMARK                         _______ _______ _______ _____ _____    ______ ____
ROOT
ATOM      1  O   UNL     1      60.472 -48.865  59.659  0.00  0.00    +0.000 OA
ATOM      2  C   UNL     1      59.650 -48.009  59.959  0.00  0.00    +0.000 C 
ENDROOT
BRANCH   2   3
ATOM      3  O   UNL     1      59.495 -46.783  59.379  0.00  0.00    +0.000 OA
BRANCH   3   4
ATOM      4  C   UNL     1      60.700 -46.100  59.219  0.00  0.00    +0.000 C 
ATOM      5  C   UNL     1      61.627 -46.462  58.160  0.00  0.00    +0.000 C 
ATOM      6  C   UNL     1      63.090 -46.536  58.259  0.00  0.00    +0.000 C 
ATOM      7  N   UNL     1      63.341 -47.178  59.630  0.00  0.00    +0.000 NA
ATOM      8  C   UNL     1      63.721 -45.231  58.357  0.00  0.00    +0.000 C 
ATOM      9  C   UNL     1      62.983 -45.948  60.480  0.00  0.00    +0.000 C 
ATOM     10  C   UNL     1      64.753 -47.554  59.798  0.00  0.00    +0.000 C 
ATOM     11  C   UNL     1      63.659 -44.833  59.832  0.00  0.00    +0.000 C 
ATOM     12  C   UNL     1      61.517 -45.866  60.393  0.00  0.00    +0.000 C 
ENDBRANCH   3   4
ENDBRANCH   2   3
BRANCH   2  13
ATOM     13  C   UNL     1      58.679 -48.176  61.082  0.00  0.00    +0.000 C 
BRANCH  13  14
ATOM     14  C   UNL     1      58.188 -49.485  61.552  0.00  0.00    +0.000 A 
ATOM     15  C   UNL     1      58.301 -49.839  62.900  0.00  0.00    +0.000 A 
ATOM     16  C   UNL     1      57.874 -51.087  63.352  0.00  0.00    +0.000 A 
ATOM     17  C   UNL     1      57.335 -52.003  62.455  0.00  0.00    +0.000 A 
ATOM     18  C   UNL     1      57.224 -51.671  61.109  0.00  0.00    +0.000 A 
ATOM     19  C   UNL     1      57.653 -50.422  60.663  0.00  0.00    +0.000 A 
ENDBRANCH  13  14
BRANCH  13  20
ATOM     20  C   UNL     1      58.270 -46.988  61.765  0.00  0.00    +0.000 C 
BRANCH  20  21
ATOM     21  O   UNL     1      57.889 -45.885  62.401  0.00  0.00    +0.000 OA
ATOM     22  H   UNL     1      57.795 -46.055  63.354  0.00  0.00    +0.000 HD
ENDBRANCH  20  21
ENDBRANCH  13  20
ENDBRANCH   2  13
TORSDOF 6
ENDMDL
MODEL 9
REMARK VINA RESULT:      -5.6     17.605     18.842
REMARK  Name = Hyoscyamine.pdbqt.pdb
REMARK  6 active torsions:
REMARK  status: ('A' for Active; 'I' for Inactive)
REMARK    1  A    between atoms: C_2  and  O_3
REMARK    2  A    between atoms: C_2  and  C_13
REMARK    3  A    between atoms: O_3  and  C_4
REMARK    4  A    between atoms: C_13  and  C_14
REMARK    5  A    between atoms: C_13  and  C_20
REMARK    6  A    between atoms: C_20  and  O_21
REMARK                            x       y       z     vdW  Elec       q    Type
REMARK                         _______ _______ _______ _____ _____    ______ ____
ROOT
ATOM      1  O   UNL     1      62.746 -47.392  60.011  0.00  0.00    +0.000 OA
ATOM      2  C   UNL     1      62.049 -46.814  59.187  0.00  0.00    +0.000 C 
ENDROOT
BRANCH   2   3
ATOM      3  O   UNL     1      62.443 -46.343  57.968  0.00  0.00    +0.000 OA
BRANCH   3   4
ATOM      4  C   UNL     1      63.798 -46.016  57.923  0.00  0.00    +0.000 C 
ATOM      5  C   UNL     1      64.237 -44.637  58.044  0.00  0.00    +0.000 C 
ATOM      6  C   UNL     1      65.307 -43.984  57.280  0.00  0.00    +0.000 C 
ATOM      7  N   UNL     1      65.126 -44.516  55.852  0.00  0.00    +0.000 NA
ATOM      8  C   UNL     1      66.635 -44.433  57.660  0.00  0.00    +0.000 C 
ATOM      9  C   UNL     1      65.675 -45.928  56.108  0.00  0.00    +0.000 C 
ATOM     10  C   UNL     1      65.963 -43.779  54.893  0.00  0.00    +0.000 C 
ATOM     11  C   UNL     1      66.891 -45.725  56.882  0.00  0.00    +0.000 C 
ATOM     12  C   UNL     1      64.609 -46.596  56.870  0.00  0.00    +0.000 C 
ENDBRANCH   3   4
ENDBRANCH   2   3
BRANCH   2  13
ATOM     13  C   UNL     1      60.611 -46.492  59.426  0.00  0.00    +0.000 C 
BRANCH  13  14
ATOM     14  C   UNL     1      59.719 -47.303  60.276  0.00  0.00    +0.000 A 
ATOM     15  C   UNL     1      59.369 -46.860  61.556  0.00  0.00    +0.000 A 
ATOM     16  C   UNL     1      58.557 -47.633  62.385  0.00  0.00    +0.000 A 
ATOM     17  C   UNL     1      58.092 -48.867  61.946  0.00  0.00    +0.000 A 
ATOM     18  C   UNL     1      58.439 -49.328  60.680  0.00  0.00    +0.000 A 
ATOM     19  C   UNL     1      59.251 -48.550  59.856  0.00  0.00    +0.000 A 
ENDBRANCH  13  14
BRANCH  13  20
ATOM     20  C   UNL     1      60.111 -45.287  58.837  0.00  0.00    +0.000 C 
BRANCH  20  21
ATOM     21  O   UNL     1      59.648 -44.168  58.291  0.00  0.00    +0.000 OA
ATOM     22  H   UNL     1      59.191 -43.626  58.959  0.00  0.00    +0.000 HD
ENDBRANCH  20  21
ENDBRANCH  13  20
ENDBRANCH   2  13
TORSDOF 6
ENDMDL
