MODEL 1
REMARK VINA RESULT:      -7.7      0.000      0.000
REMARK  Name = 
REMARK  9 active torsions:
REMARK  status: ('A' for Active; 'I' for Inactive)
REMARK    1  A    between atoms: O_1  and  N_7
REMARK    2  A    between atoms: O_1  and  C_20
REMARK    3  A    between atoms: O_2  and  C_14
REMARK    4  A    between atoms: O_3  and  C_18
REMARK    5  A    between atoms: O_4  and  C_25
REMARK    6  A    between atoms: C_8  and  C_10
REMARK    7  A    between atoms: C_17  and  C_18
REMARK    8  A    between atoms: C_17  and  C_20
REMARK    9  A    between atoms: C_18  and  C_25
REMARK                            x       y       z     vdW  Elec       q    Type
REMARK                         _______ _______ _______ _____ _____    ______ ____
ROOT
ATOM      1  N   UNL     1      48.848 -36.307  47.956  0.00  0.00    +0.000 NA
ATOM      2  N   UNL     1      48.816 -39.854  47.898  0.00  0.00    +0.000 NA
ATOM      3  C   UNL     1      48.983 -37.468  48.547  0.00  0.00    +0.000 C 
ATOM      4  C   UNL     1      48.854 -38.607  47.551  0.00  0.00    +0.000 C 
ATOM      5  C   UNL     1      48.710 -37.939  46.264  0.00  0.00    +0.000 A 
ATOM      6  C   UNL     1      48.697 -36.582  46.586  0.00  0.00    +0.000 A 
ATOM      7  C   UNL     1      48.582 -38.395  44.964  0.00  0.00    +0.000 A 
ATOM      8  C   UNL     1      48.552 -35.633  45.590  0.00  0.00    +0.000 A 
ATOM      9  C   UNL     1      48.436 -37.438  43.957  0.00  0.00    +0.000 A 
ATOM     10  C   UNL     1      48.420 -36.067  44.266  0.00  0.00    +0.000 A 
ENDROOT
BRANCH   3  12
ATOM     11  N   UNL     1      49.989 -38.185  51.957  0.00  0.00    +0.000 N 
ATOM     12  C   UNL     1      49.202 -37.547  49.972  0.00  0.00    +0.000 A 
ATOM     13  C   UNL     1      48.602 -36.738  50.994  0.00  0.00    +0.000 A 
ATOM     14  C   UNL     1      49.103 -37.169  52.222  0.00  0.00    +0.000 A 
ATOM     15  C   UNL     1      50.077 -38.411  50.607  0.00  0.00    +0.000 A 
ATOM     16  C   UNL     1      47.664 -35.683  50.992  0.00  0.00    +0.000 A 
ATOM     17  C   UNL     1      48.720 -36.602  53.443  0.00  0.00    +0.000 A 
ATOM     18  C   UNL     1      47.268 -35.104  52.203  0.00  0.00    +0.000 A 
ATOM     19  C   UNL     1      47.790 -35.559  53.410  0.00  0.00    +0.000 A 
ATOM     20  H   UNL     1      50.516 -38.669  52.668  0.00  0.00    +0.000 HD
BRANCH  15  21
ATOM     21  O   UNL     1      50.920 -39.305  50.103  0.00  0.00    +0.000 OA
ATOM     22  H   UNL     1      51.839 -39.043  50.276  0.00  0.00    +0.000 HD
ENDBRANCH  15  21
ENDBRANCH   3  12
BRANCH   2  23
ATOM     23  O   UNL     1      48.645 -40.703  46.802  0.00  0.00    +0.000 OA
BRANCH  23  24
ATOM     24  C   UNL     1      49.311 -41.932  47.078  0.00  0.00    +0.000 C 
BRANCH  24  25
ATOM     25  C   UNL     1      48.410 -42.814  47.930  0.00  0.00    +0.000 C 
BRANCH  25  26
ATOM     26  C   UNL     1      48.759 -42.811  49.418  0.00  0.00    +0.000 C 
BRANCH  26  27
ATOM     27  O   UNL     1      49.851 -41.899  49.612  0.00  0.00    +0.000 OA
ATOM     28  H   UNL     1      49.431 -41.088  49.963  0.00  0.00    +0.000 HD
ENDBRANCH  26  27
BRANCH  26  29
ATOM     29  C   UNL     1      47.606 -42.377  50.329  0.00  0.00    +0.000 C 
BRANCH  29  30
ATOM     30  O   UNL     1      47.743 -40.976  50.586  0.00  0.00    +0.000 OA
ATOM     31  H   UNL     1      47.044 -40.740  51.222  0.00  0.00    +0.000 HD
ENDBRANCH  29  30
ENDBRANCH  26  29
ENDBRANCH  25  26
ENDBRANCH  24  25
ENDBRANCH  23  24
ENDBRANCH   2  23
TORSDOF 9
ENDMDL
MODEL 2
REMARK VINA RESULT:      -7.5      2.519      6.204
REMARK  Name = 
REMARK  9 active torsions:
REMARK  status: ('A' for Active; 'I' for Inactive)
REMARK    1  A    between atoms: O_1  and  N_7
REMARK    2  A    between atoms: O_1  and  C_20
REMARK    3  A    between atoms: O_2  and  C_14
REMARK    4  A    between atoms: O_3  and  C_18
REMARK    5  A    between atoms: O_4  and  C_25
REMARK    6  A    between atoms: C_8  and  C_10
REMARK    7  A    between atoms: C_17  and  C_18
REMARK    8  A    between atoms: C_17  and  C_20
REMARK    9  A    between atoms: C_18  and  C_25
REMARK                            x       y       z     vdW  Elec       q    Type
REMARK                         _______ _______ _______ _____ _____    ______ ____
ROOT
ATOM      1  N   UNL     1      48.768 -42.239  47.705  0.00  0.00    +0.000 NA
ATOM      2  N   UNL     1      49.601 -39.734  50.074  0.00  0.00    +0.000 NA
ATOM      3  C   UNL     1      48.822 -41.792  48.934  0.00  0.00    +0.000 C 
ATOM      4  C   UNL     1      49.329 -40.362  48.974  0.00  0.00    +0.000 C 
ATOM      5  C   UNL     1      49.485 -40.001  47.572  0.00  0.00    +0.000 A 
ATOM      6  C   UNL     1      49.152 -41.167  46.882  0.00  0.00    +0.000 A 
ATOM      7  C   UNL     1      49.878 -38.842  46.925  0.00  0.00    +0.000 A 
ATOM      8  C   UNL     1      49.208 -41.196  45.500  0.00  0.00    +0.000 A 
ATOM      9  C   UNL     1      49.934 -38.870  45.529  0.00  0.00    +0.000 A 
ATOM     10  C   UNL     1      49.602 -40.039  44.821  0.00  0.00    +0.000 A 
ENDROOT
BRANCH   3  12
ATOM     11  N   UNL     1      47.531 -43.340  51.950  0.00  0.00    +0.000 N 
ATOM     12  C   UNL     1      48.445 -42.638  50.042  0.00  0.00    +0.000 A 
ATOM     13  C   UNL     1      48.779 -44.020  50.239  0.00  0.00    +0.000 A 
ATOM     14  C   UNL     1      48.205 -44.425  51.444  0.00  0.00    +0.000 A 
ATOM     15  C   UNL     1      47.646 -42.263  51.109  0.00  0.00    +0.000 A 
ATOM     16  C   UNL     1      49.532 -44.966  49.510  0.00  0.00    +0.000 A 
ATOM     17  C   UNL     1      48.340 -45.721  51.955  0.00  0.00    +0.000 A 
ATOM     18  C   UNL     1      49.678 -46.266  50.005  0.00  0.00    +0.000 A 
ATOM     19  C   UNL     1      49.090 -46.636  51.211  0.00  0.00    +0.000 A 
ATOM     20  H   UNL     1      47.003 -43.358  52.809  0.00  0.00    +0.000 HD
BRANCH  15  21
ATOM     21  O   UNL     1      47.023 -41.116  51.355  0.00  0.00    +0.000 OA
ATOM     22  H   UNL     1      47.621 -40.491  51.795  0.00  0.00    +0.000 HD
ENDBRANCH  15  21
ENDBRANCH   3  12
BRANCH   2  23
ATOM     23  O   UNL     1      50.097 -38.449  49.841  0.00  0.00    +0.000 OA
BRANCH  23  24
ATOM     24  C   UNL     1      49.614 -37.588  50.868  0.00  0.00    +0.000 C 
BRANCH  24  25
ATOM     25  C   UNL     1      48.679 -36.552  50.261  0.00  0.00    +0.000 C 
BRANCH  25  26
ATOM     26  C   UNL     1      47.198 -36.801  50.548  0.00  0.00    +0.000 C 
BRANCH  26  27
ATOM     27  O   UNL     1      47.037 -38.197  50.846  0.00  0.00    +0.000 OA
ATOM     28  H   UNL     1      46.090 -38.375  50.673  0.00  0.00    +0.000 HD
ENDBRANCH  26  27
BRANCH  26  29
ATOM     29  C   UNL     1      46.646 -35.994  51.728  0.00  0.00    +0.000 C 
BRANCH  29  30
ATOM     30  O   UNL     1      45.260 -35.735  51.481  0.00  0.00    +0.000 OA
ATOM     31  H   UNL     1      45.106 -34.802  51.715  0.00  0.00    +0.000 HD
ENDBRANCH  29  30
ENDBRANCH  26  29
ENDBRANCH  25  26
ENDBRANCH  24  25
ENDBRANCH  23  24
ENDBRANCH   2  23
TORSDOF 9
ENDMDL
MODEL 3
REMARK VINA RESULT:      -6.9      3.503      6.169
REMARK  Name = 
REMARK  9 active torsions:
REMARK  status: ('A' for Active; 'I' for Inactive)
REMARK    1  A    between atoms: O_1  and  N_7
REMARK    2  A    between atoms: O_1  and  C_20
REMARK    3  A    between atoms: O_2  and  C_14
REMARK    4  A    between atoms: O_3  and  C_18
REMARK    5  A    between atoms: O_4  and  C_25
REMARK    6  A    between atoms: C_8  and  C_10
REMARK    7  A    between atoms: C_17  and  C_18
REMARK    8  A    between atoms: C_17  and  C_20
REMARK    9  A    between atoms: C_18  and  C_25
REMARK                            x       y       z     vdW  Elec       q    Type
REMARK                         _______ _______ _______ _____ _____    ______ ____
ROOT
ATOM      1  N   UNL     1      49.715 -36.063  44.261  0.00  0.00    +0.000 NA
ATOM      2  N   UNL     1      48.636 -35.876  47.635  0.00  0.00    +0.000 NA
ATOM      3  C   UNL     1      49.377 -35.377  45.324  0.00  0.00    +0.000 C 
ATOM      4  C   UNL     1      49.112 -36.292  46.505  0.00  0.00    +0.000 C 
ATOM      5  C   UNL     1      49.430 -37.622  46.002  0.00  0.00    +0.000 A 
ATOM      6  C   UNL     1      49.761 -37.409  44.664  0.00  0.00    +0.000 A 
ATOM      7  C   UNL     1      49.430 -38.882  46.575  0.00  0.00    +0.000 A 
ATOM      8  C   UNL     1      50.106 -38.476  43.854  0.00  0.00    +0.000 A 
ATOM      9  C   UNL     1      49.779 -39.961  45.759  0.00  0.00    +0.000 A 
ATOM     10  C   UNL     1      50.113 -39.761  44.409  0.00  0.00    +0.000 A 
ENDROOT
BRANCH   3  12
ATOM     11  N   UNL     1      48.557 -31.886  44.780  0.00  0.00    +0.000 N 
ATOM     12  C   UNL     1      49.278 -33.937  45.269  0.00  0.00    +0.000 A 
ATOM     13  C   UNL     1      50.129 -32.977  45.913  0.00  0.00    +0.000 A 
ATOM     14  C   UNL     1      49.661 -31.707  45.578  0.00  0.00    +0.000 A 
ATOM     15  C   UNL     1      48.299 -33.220  44.602  0.00  0.00    +0.000 A 
ATOM     16  C   UNL     1      51.268 -33.069  46.742  0.00  0.00    +0.000 A 
ATOM     17  C   UNL     1      50.267 -30.528  46.028  0.00  0.00    +0.000 A 
ATOM     18  C   UNL     1      51.888 -31.902  47.202  0.00  0.00    +0.000 A 
ATOM     19  C   UNL     1      51.393 -30.650  46.848  0.00  0.00    +0.000 A 
ATOM     20  H   UNL     1      48.005 -31.127  44.408  0.00  0.00    +0.000 HD
BRANCH  15  21
ATOM     21  O   UNL     1      47.241 -33.642  43.918  0.00  0.00    +0.000 OA
ATOM     22  H   UNL     1      46.421 -33.418  44.388  0.00  0.00    +0.000 HD
ENDBRANCH  15  21
ENDBRANCH   3  12
BRANCH   2  23
ATOM     23  O   UNL     1      48.438 -36.919  48.542  0.00  0.00    +0.000 OA
BRANCH  23  24
ATOM     24  C   UNL     1      49.371 -36.770  49.609  0.00  0.00    +0.000 C 
BRANCH  24  25
ATOM     25  C   UNL     1      48.644 -36.278  50.852  0.00  0.00    +0.000 C 
BRANCH  25  26
ATOM     26  C   UNL     1      47.125 -36.443  50.794  0.00  0.00    +0.000 C 
BRANCH  26  27
ATOM     27  O   UNL     1      46.827 -37.839  50.957  0.00  0.00    +0.000 OA
ATOM     28  H   UNL     1      46.723 -37.954  51.922  0.00  0.00    +0.000 HD
ENDBRANCH  26  27
BRANCH  26  29
ATOM     29  C   UNL     1      46.371 -35.664  51.876  0.00  0.00    +0.000 C 
BRANCH  29  30
ATOM     30  O   UNL     1      44.988 -35.615  51.508  0.00  0.00    +0.000 OA
ATOM     31  H   UNL     1      44.512 -36.180  52.143  0.00  0.00    +0.000 HD
ENDBRANCH  29  30
ENDBRANCH  26  29
ENDBRANCH  25  26
ENDBRANCH  24  25
ENDBRANCH  23  24
ENDBRANCH   2  23
TORSDOF 9
ENDMDL
MODEL 4
REMARK VINA RESULT:      -6.9      3.325      6.895
REMARK  Name = 
REMARK  9 active torsions:
REMARK  status: ('A' for Active; 'I' for Inactive)
REMARK    1  A    between atoms: O_1  and  N_7
REMARK    2  A    between atoms: O_1  and  C_20
REMARK    3  A    between atoms: O_2  and  C_14
REMARK    4  A    between atoms: O_3  and  C_18
REMARK    5  A    between atoms: O_4  and  C_25
REMARK    6  A    between atoms: C_8  and  C_10
REMARK    7  A    between atoms: C_17  and  C_18
REMARK    8  A    between atoms: C_17  and  C_20
REMARK    9  A    between atoms: C_18  and  C_25
REMARK                            x       y       z     vdW  Elec       q    Type
REMARK                         _______ _______ _______ _____ _____    ______ ____
ROOT
ATOM      1  N   UNL     1      48.541 -41.764  50.530  0.00  0.00    +0.000 NA
ATOM      2  N   UNL     1      50.156 -43.353  47.800  0.00  0.00    +0.000 NA
ATOM      3  C   UNL     1      49.080 -41.734  49.337  0.00  0.00    +0.000 C 
ATOM      4  C   UNL     1      49.483 -43.125  48.883  0.00  0.00    +0.000 C 
ATOM      5  C   UNL     1      49.020 -43.996  49.955  0.00  0.00    +0.000 A 
ATOM      6  C   UNL     1      48.491 -43.119  50.901  0.00  0.00    +0.000 A 
ATOM      7  C   UNL     1      49.047 -45.366  50.146  0.00  0.00    +0.000 A 
ATOM      8  C   UNL     1      47.966 -43.607  52.084  0.00  0.00    +0.000 A 
ATOM      9  C   UNL     1      48.517 -45.861  51.340  0.00  0.00    +0.000 A 
ATOM     10  C   UNL     1      47.981 -44.988  52.303  0.00  0.00    +0.000 A 
ENDROOT
BRANCH   3  12
ATOM     11  N   UNL     1      49.934 -38.430  48.108  0.00  0.00    +0.000 N 
ATOM     12  C   UNL     1      49.244 -40.482  48.635  0.00  0.00    +0.000 A 
ATOM     13  C   UNL     1      48.638 -40.090  47.394  0.00  0.00    +0.000 A 
ATOM     14  C   UNL     1      49.078 -38.800  47.099  0.00  0.00    +0.000 A 
ATOM     15  C   UNL     1      50.062 -39.437  49.028  0.00  0.00    +0.000 A 
ATOM     16  C   UNL     1      47.740 -40.709  46.497  0.00  0.00    +0.000 A 
ATOM     17  C   UNL     1      48.672 -38.099  45.957  0.00  0.00    +0.000 A 
ATOM     18  C   UNL     1      47.323 -40.024  45.351  0.00  0.00    +0.000 A 
ATOM     19  C   UNL     1      47.783 -38.737  45.087  0.00  0.00    +0.000 A 
ATOM     20  H   UNL     1      50.416 -37.544  48.137  0.00  0.00    +0.000 HD
BRANCH  15  21
ATOM     21  O   UNL     1      50.890 -39.336  50.063  0.00  0.00    +0.000 OA
ATOM     22  H   UNL     1      51.382 -38.500  50.026  0.00  0.00    +0.000 HD
ENDBRANCH  15  21
ENDBRANCH   3  12
BRANCH   2  23
ATOM     23  O   UNL     1      50.443 -44.709  47.631  0.00  0.00    +0.000 OA
BRANCH  23  24
ATOM     24  C   UNL     1      51.781 -44.830  47.158  0.00  0.00    +0.000 C 
BRANCH  24  25
ATOM     25  C   UNL     1      52.679 -45.298  48.294  0.00  0.00    +0.000 C 
BRANCH  25  26
ATOM     26  C   UNL     1      54.154 -44.941  48.113  0.00  0.00    +0.000 C 
BRANCH  26  27
ATOM     27  O   UNL     1      54.937 -46.003  48.680  0.00  0.00    +0.000 OA
ATOM     28  H   UNL     1      55.401 -45.588  49.434  0.00  0.00    +0.000 HD
ENDBRANCH  26  27
BRANCH  26  29
ATOM     29  C   UNL     1      54.578 -44.762  46.651  0.00  0.00    +0.000 C 
BRANCH  29  30
ATOM     30  O   UNL     1      55.643 -43.806  46.610  0.00  0.00    +0.000 OA
ATOM     31  H   UNL     1      55.573 -43.278  47.425  0.00  0.00    +0.000 HD
ENDBRANCH  29  30
ENDBRANCH  26  29
ENDBRANCH  25  26
ENDBRANCH  24  25
ENDBRANCH  23  24
ENDBRANCH   2  23
TORSDOF 9
ENDMDL
MODEL 5
REMARK VINA RESULT:      -6.8      4.226      8.300
REMARK  Name = 
REMARK  9 active torsions:
REMARK  status: ('A' for Active; 'I' for Inactive)
REMARK    1  A    between atoms: O_1  and  N_7
REMARK    2  A    between atoms: O_1  and  C_20
REMARK    3  A    between atoms: O_2  and  C_14
REMARK    4  A    between atoms: O_3  and  C_18
REMARK    5  A    between atoms: O_4  and  C_25
REMARK    6  A    between atoms: C_8  and  C_10
REMARK    7  A    between atoms: C_17  and  C_18
REMARK    8  A    between atoms: C_17  and  C_20
REMARK    9  A    between atoms: C_18  and  C_25
REMARK                            x       y       z     vdW  Elec       q    Type
REMARK                         _______ _______ _______ _____ _____    ______ ____
ROOT
ATOM      1  N   UNL     1      46.818 -44.483  51.815  0.00  0.00    +0.000 NA
ATOM      2  N   UNL     1      49.743 -45.455  50.059  0.00  0.00    +0.000 NA
ATOM      3  C   UNL     1      47.835 -44.212  51.035  0.00  0.00    +0.000 C 
ATOM      4  C   UNL     1      48.619 -45.468  50.703  0.00  0.00    +0.000 C 
ATOM      5  C   UNL     1      47.861 -46.539  51.336  0.00  0.00    +0.000 A 
ATOM      6  C   UNL     1      46.821 -45.877  51.989  0.00  0.00    +0.000 A 
ATOM      7  C   UNL     1      48.016 -47.913  51.389  0.00  0.00    +0.000 A 
ATOM      8  C   UNL     1      45.895 -46.595  52.726  0.00  0.00    +0.000 A 
ATOM      9  C   UNL     1      47.082 -48.639  52.131  0.00  0.00    +0.000 A 
ATOM     10  C   UNL     1      46.030 -47.986  52.796  0.00  0.00    +0.000 A 
ENDROOT
BRANCH   3  12
ATOM     11  N   UNL     1      48.316 -40.638  50.651  0.00  0.00    +0.000 N 
ATOM     12  C   UNL     1      48.100 -42.855  50.617  0.00  0.00    +0.000 A 
ATOM     13  C   UNL     1      48.563 -42.412  49.332  0.00  0.00    +0.000 A 
ATOM     14  C   UNL     1      48.675 -41.022  49.382  0.00  0.00    +0.000 A 
ATOM     15  C   UNL     1      47.988 -41.729  51.413  0.00  0.00    +0.000 A 
ATOM     16  C   UNL     1      48.885 -43.063  48.122  0.00  0.00    +0.000 A 
ATOM     17  C   UNL     1      49.093 -40.252  48.290  0.00  0.00    +0.000 A 
ATOM     18  C   UNL     1      49.304 -42.310  47.019  0.00  0.00    +0.000 A 
ATOM     19  C   UNL     1      49.405 -40.924  47.105  0.00  0.00    +0.000 A 
ATOM     20  H   UNL     1      48.325 -39.681  50.970  0.00  0.00    +0.000 HD
BRANCH  15  21
ATOM     21  O   UNL     1      47.670 -41.613  52.698  0.00  0.00    +0.000 OA
ATOM     22  H   UNL     1      46.706 -41.613  52.812  0.00  0.00    +0.000 HD
ENDBRANCH  15  21
ENDBRANCH   3  12
BRANCH   2  23
ATOM     23  O   UNL     1      50.289 -46.734  49.923  0.00  0.00    +0.000 OA
BRANCH  23  24
ATOM     24  C   UNL     1      50.507 -46.984  48.537  0.00  0.00    +0.000 C 
BRANCH  24  25
ATOM     25  C   UNL     1      52.003 -47.062  48.266  0.00  0.00    +0.000 C 
BRANCH  25  26
ATOM     26  C   UNL     1      52.664 -45.706  48.018  0.00  0.00    +0.000 C 
BRANCH  26  27
ATOM     27  O   UNL     1      52.565 -44.940  49.228  0.00  0.00    +0.000 OA
ATOM     28  H   UNL     1      53.291 -45.277  49.790  0.00  0.00    +0.000 HD
ENDBRANCH  26  27
BRANCH  26  29
ATOM     29  C   UNL     1      54.143 -45.795  47.628  0.00  0.00    +0.000 C 
BRANCH  29  30
ATOM     30  O   UNL     1      54.927 -45.392  48.756  0.00  0.00    +0.000 OA
ATOM     31  H   UNL     1      55.241 -46.209  49.182  0.00  0.00    +0.000 HD
ENDBRANCH  29  30
ENDBRANCH  26  29
ENDBRANCH  25  26
ENDBRANCH  24  25
ENDBRANCH  23  24
ENDBRANCH   2  23
TORSDOF 9
ENDMDL
MODEL 6
REMARK VINA RESULT:      -6.7      3.598      7.423
REMARK  Name = 
REMARK  9 active torsions:
REMARK  status: ('A' for Active; 'I' for Inactive)
REMARK    1  A    between atoms: O_1  and  N_7
REMARK    2  A    between atoms: O_1  and  C_20
REMARK    3  A    between atoms: O_2  and  C_14
REMARK    4  A    between atoms: O_3  and  C_18
REMARK    5  A    between atoms: O_4  and  C_25
REMARK    6  A    between atoms: C_8  and  C_10
REMARK    7  A    between atoms: C_17  and  C_18
REMARK    8  A    between atoms: C_17  and  C_20
REMARK    9  A    between atoms: C_18  and  C_25
REMARK                            x       y       z     vdW  Elec       q    Type
REMARK                         _______ _______ _______ _____ _____    ______ ____
ROOT
ATOM      1  N   UNL     1      48.473 -44.079  48.923  0.00  0.00    +0.000 NA
ATOM      2  N   UNL     1      47.198 -41.408  50.879  0.00  0.00    +0.000 NA
ATOM      3  C   UNL     1      47.860 -43.623  49.987  0.00  0.00    +0.000 C 
ATOM      4  C   UNL     1      47.660 -42.121  49.901  0.00  0.00    +0.000 C 
ATOM      5  C   UNL     1      48.172 -41.768  48.584  0.00  0.00    +0.000 A 
ATOM      6  C   UNL     1      48.653 -42.974  48.073  0.00  0.00    +0.000 A 
ATOM      7  C   UNL     1      48.255 -40.579  47.881  0.00  0.00    +0.000 A 
ATOM      8  C   UNL     1      49.239 -43.014  46.820  0.00  0.00    +0.000 A 
ATOM      9  C   UNL     1      48.846 -40.617  46.616  0.00  0.00    +0.000 A 
ATOM     10  C   UNL     1      49.336 -41.825  46.089  0.00  0.00    +0.000 A 
ENDROOT
BRANCH   3  12
ATOM     11  N   UNL     1      47.272 -45.412  53.087  0.00  0.00    +0.000 N 
ATOM     12  C   UNL     1      47.482 -44.516  51.057  0.00  0.00    +0.000 A 
ATOM     13  C   UNL     1      46.680 -45.703  50.963  0.00  0.00    +0.000 A 
ATOM     14  C   UNL     1      46.579 -46.246  52.244  0.00  0.00    +0.000 A 
ATOM     15  C   UNL     1      47.803 -44.355  52.394  0.00  0.00    +0.000 A 
ATOM     16  C   UNL     1      46.040 -46.378  49.901  0.00  0.00    +0.000 A 
ATOM     17  C   UNL     1      45.872 -47.422  52.519  0.00  0.00    +0.000 A 
ATOM     18  C   UNL     1      45.329 -47.555  50.157  0.00  0.00    +0.000 A 
ATOM     19  C   UNL     1      45.247 -48.069  51.448  0.00  0.00    +0.000 A 
ATOM     20  H   UNL     1      47.346 -45.557  54.082  0.00  0.00    +0.000 HD
BRANCH  15  21
ATOM     21  O   UNL     1      48.463 -43.378  53.008  0.00  0.00    +0.000 OA
ATOM     22  H   UNL     1      48.805 -42.739  52.362  0.00  0.00    +0.000 HD
ENDBRANCH  15  21
ENDBRANCH   3  12
BRANCH   2  23
ATOM     23  O   UNL     1      47.155 -40.047  50.567  0.00  0.00    +0.000 OA
BRANCH  23  24
ATOM     24  C   UNL     1      48.295 -39.417  51.145  0.00  0.00    +0.000 C 
BRANCH  24  25
ATOM     25  C   UNL     1      48.289 -37.937  50.792  0.00  0.00    +0.000 C 
BRANCH  25  26
ATOM     26  C   UNL     1      47.455 -37.072  51.738  0.00  0.00    +0.000 C 
BRANCH  26  27
ATOM     27  O   UNL     1      48.353 -36.446  52.667  0.00  0.00    +0.000 OA
ATOM     28  H   UNL     1      49.158 -36.264  52.143  0.00  0.00    +0.000 HD
ENDBRANCH  26  27
BRANCH  26  29
ATOM     29  C   UNL     1      46.652 -35.973  51.034  0.00  0.00    +0.000 C 
BRANCH  29  30
ATOM     30  O   UNL     1      45.351 -35.922  51.629  0.00  0.00    +0.000 OA
ATOM     31  H   UNL     1      44.713 -35.862  50.896  0.00  0.00    +0.000 HD
ENDBRANCH  29  30
ENDBRANCH  26  29
ENDBRANCH  25  26
ENDBRANCH  24  25
ENDBRANCH  23  24
ENDBRANCH   2  23
TORSDOF 9
ENDMDL
MODEL 7
REMARK VINA RESULT:      -6.7      4.110      9.234
REMARK  Name = 
REMARK  9 active torsions:
REMARK  status: ('A' for Active; 'I' for Inactive)
REMARK    1  A    between atoms: O_1  and  N_7
REMARK    2  A    between atoms: O_1  and  C_20
REMARK    3  A    between atoms: O_2  and  C_14
REMARK    4  A    between atoms: O_3  and  C_18
REMARK    5  A    between atoms: O_4  and  C_25
REMARK    6  A    between atoms: C_8  and  C_10
REMARK    7  A    between atoms: C_17  and  C_18
REMARK    8  A    between atoms: C_17  and  C_20
REMARK    9  A    between atoms: C_18  and  C_25
REMARK                            x       y       z     vdW  Elec       q    Type
REMARK                         _______ _______ _______ _____ _____    ______ ____
ROOT
ATOM      1  N   UNL     1      48.600 -46.929  49.680  0.00  0.00    +0.000 NA
ATOM      2  N   UNL     1      47.916 -43.531  50.430  0.00  0.00    +0.000 NA
ATOM      3  C   UNL     1      48.816 -45.649  49.512  0.00  0.00    +0.000 C 
ATOM      4  C   UNL     1      47.986 -44.823  50.478  0.00  0.00    +0.000 C 
ATOM      5  C   UNL     1      47.310 -45.815  51.303  0.00  0.00    +0.000 A 
ATOM      6  C   UNL     1      47.708 -47.036  50.760  0.00  0.00    +0.000 A 
ATOM      7  C   UNL     1      46.442 -45.728  52.377  0.00  0.00    +0.000 A 
ATOM      8  C   UNL     1      47.233 -48.222  51.293  0.00  0.00    +0.000 A 
ATOM      9  C   UNL     1      45.962 -46.924  52.918  0.00  0.00    +0.000 A 
ATOM     10  C   UNL     1      46.354 -48.162  52.379  0.00  0.00    +0.000 A 
ENDROOT
BRANCH   3  12
ATOM     11  N   UNL     1      50.572 -44.065  46.762  0.00  0.00    +0.000 N 
ATOM     12  C   UNL     1      49.731 -45.184  48.496  0.00  0.00    +0.000 A 
ATOM     13  C   UNL     1      51.093 -45.591  48.294  0.00  0.00    +0.000 A 
ATOM     14  C   UNL     1      51.586 -44.884  47.197  0.00  0.00    +0.000 A 
ATOM     15  C   UNL     1      49.457 -44.216  47.545  0.00  0.00    +0.000 A 
ATOM     16  C   UNL     1      51.952 -46.509  48.935  0.00  0.00    +0.000 A 
ATOM     17  C   UNL     1      52.888 -45.044  46.710  0.00  0.00    +0.000 A 
ATOM     18  C   UNL     1      53.258 -46.683  48.463  0.00  0.00    +0.000 A 
ATOM     19  C   UNL     1      53.717 -45.960  47.365  0.00  0.00    +0.000 A 
ATOM     20  H   UNL     1      50.663 -43.424  45.988  0.00  0.00    +0.000 HD
BRANCH  15  21
ATOM     21  O   UNL     1      48.368 -43.478  47.358  0.00  0.00    +0.000 OA
ATOM     22  H   UNL     1      47.814 -43.860  46.658  0.00  0.00    +0.000 HD
ENDBRANCH  15  21
ENDBRANCH   3  12
BRANCH   2  23
ATOM     23  O   UNL     1      47.049 -43.012  51.395  0.00  0.00    +0.000 OA
BRANCH  23  24
ATOM     24  C   UNL     1      47.639 -41.837  51.945  0.00  0.00    +0.000 C 
BRANCH  24  25
ATOM     25  C   UNL     1      48.518 -41.175  50.894  0.00  0.00    +0.000 C 
BRANCH  25  26
ATOM     26  C   UNL     1      47.875 -39.967  50.212  0.00  0.00    +0.000 C 
BRANCH  26  27
ATOM     27  O   UNL     1      46.463 -40.019  50.466  0.00  0.00    +0.000 OA
ATOM     28  H   UNL     1      46.081 -39.359  49.853  0.00  0.00    +0.000 HD
ENDBRANCH  26  27
BRANCH  26  29
ATOM     29  C   UNL     1      48.401 -38.616  50.709  0.00  0.00    +0.000 C 
BRANCH  29  30
ATOM     30  O   UNL     1      49.559 -38.858  51.515  0.00  0.00    +0.000 OA
ATOM     31  H   UNL     1      49.719 -39.818  51.489  0.00  0.00    +0.000 HD
ENDBRANCH  29  30
ENDBRANCH  26  29
ENDBRANCH  25  26
ENDBRANCH  24  25
ENDBRANCH  23  24
ENDBRANCH   2  23
TORSDOF 9
ENDMDL
MODEL 8
REMARK VINA RESULT:      -6.5      3.706      7.650
REMARK  Name = 
REMARK  9 active torsions:
REMARK  status: ('A' for Active; 'I' for Inactive)
REMARK    1  A    between atoms: O_1  and  N_7
REMARK    2  A    between atoms: O_1  and  C_20
REMARK    3  A    between atoms: O_2  and  C_14
REMARK    4  A    between atoms: O_3  and  C_18
REMARK    5  A    between atoms: O_4  and  C_25
REMARK    6  A    between atoms: C_8  and  C_10
REMARK    7  A    between atoms: C_17  and  C_18
REMARK    8  A    between atoms: C_17  and  C_20
REMARK    9  A    between atoms: C_18  and  C_25
REMARK                            x       y       z     vdW  Elec       q    Type
REMARK                         _______ _______ _______ _____ _____    ______ ____
ROOT
ATOM      1  N   UNL     1      46.884 -44.633  48.307  0.00  0.00    +0.000 NA
ATOM      2  N   UNL     1      48.603 -42.245  50.287  0.00  0.00    +0.000 NA
ATOM      3  C   UNL     1      47.512 -44.285  49.402  0.00  0.00    +0.000 C 
ATOM      4  C   UNL     1      47.866 -42.809  49.385  0.00  0.00    +0.000 C 
ATOM      5  C   UNL     1      47.274 -42.316  48.149  0.00  0.00    +0.000 A 
ATOM      6  C   UNL     1      46.727 -43.455  47.557  0.00  0.00    +0.000 A 
ATOM      7  C   UNL     1      47.206 -41.067  47.558  0.00  0.00    +0.000 A 
ATOM      8  C   UNL     1      46.087 -43.363  46.333  0.00  0.00    +0.000 A 
ATOM      9  C   UNL     1      46.559 -40.972  46.323  0.00  0.00    +0.000 A 
ATOM     10  C   UNL     1      46.005 -42.111  45.714  0.00  0.00    +0.000 A 
ENDROOT
BRANCH   3  12
ATOM     11  N   UNL     1      47.607 -46.546  52.237  0.00  0.00    +0.000 N 
ATOM     12  C   UNL     1      47.801 -45.262  50.426  0.00  0.00    +0.000 A 
ATOM     13  C   UNL     1      48.958 -46.107  50.526  0.00  0.00    +0.000 A 
ATOM     14  C   UNL     1      48.813 -46.886  51.673  0.00  0.00    +0.000 A 
ATOM     15  C   UNL     1      46.975 -45.587  51.488  0.00  0.00    +0.000 A 
ATOM     16  C   UNL     1      50.127 -46.272  49.753  0.00  0.00    +0.000 A 
ATOM     17  C   UNL     1      49.770 -47.820  52.086  0.00  0.00    +0.000 A 
ATOM     18  C   UNL     1      51.096 -47.201  50.149  0.00  0.00    +0.000 A 
ATOM     19  C   UNL     1      50.917 -47.963  51.300  0.00  0.00    +0.000 A 
ATOM     20  H   UNL     1      47.238 -46.974  53.073  0.00  0.00    +0.000 HD
BRANCH  15  21
ATOM     21  O   UNL     1      45.762 -45.145  51.800  0.00  0.00    +0.000 OA
ATOM     22  H   UNL     1      45.201 -45.875  52.106  0.00  0.00    +0.000 HD
ENDBRANCH  15  21
ENDBRANCH   3  12
BRANCH   2  23
ATOM     23  O   UNL     1      48.822 -40.891  50.020  0.00  0.00    +0.000 OA
BRANCH  23  24
ATOM     24  C   UNL     1      48.230 -40.125  51.066  0.00  0.00    +0.000 C 
BRANCH  24  25
ATOM     25  C   UNL     1      47.778 -38.781  50.516  0.00  0.00    +0.000 C 
BRANCH  25  26
ATOM     26  C   UNL     1      47.935 -37.619  51.496  0.00  0.00    +0.000 C 
BRANCH  26  27
ATOM     27  O   UNL     1      49.311 -37.567  51.901  0.00  0.00    +0.000 OA
ATOM     28  H   UNL     1      49.808 -37.875  51.116  0.00  0.00    +0.000 HD
ENDBRANCH  26  27
BRANCH  26  29
ATOM     29  C   UNL     1      47.556 -36.254  50.912  0.00  0.00    +0.000 C 
BRANCH  29  30
ATOM     30  O   UNL     1      47.821 -36.282  49.506  0.00  0.00    +0.000 OA
ATOM     31  H   UNL     1      48.744 -36.576  49.403  0.00  0.00    +0.000 HD
ENDBRANCH  29  30
ENDBRANCH  26  29
ENDBRANCH  25  26
ENDBRANCH  24  25
ENDBRANCH  23  24
ENDBRANCH   2  23
TORSDOF 9
ENDMDL
MODEL 9
REMARK VINA RESULT:      -6.4      1.863      5.475
REMARK  Name = 
REMARK  9 active torsions:
REMARK  status: ('A' for Active; 'I' for Inactive)
REMARK    1  A    between atoms: O_1  and  N_7
REMARK    2  A    between atoms: O_1  and  C_20
REMARK    3  A    between atoms: O_2  and  C_14
REMARK    4  A    between atoms: O_3  and  C_18
REMARK    5  A    between atoms: O_4  and  C_25
REMARK    6  A    between atoms: C_8  and  C_10
REMARK    7  A    between atoms: C_17  and  C_18
REMARK    8  A    between atoms: C_17  and  C_20
REMARK    9  A    between atoms: C_18  and  C_25
REMARK                            x       y       z     vdW  Elec       q    Type
REMARK                         _______ _______ _______ _____ _____    ______ ____
ROOT
ATOM      1  N   UNL     1      48.614 -35.906  48.315  0.00  0.00    +0.000 NA
ATOM      2  N   UNL     1      49.808 -39.154  47.536  0.00  0.00    +0.000 NA
ATOM      3  C   UNL     1      48.991 -36.817  47.452  0.00  0.00    +0.000 C 
ATOM      4  C   UNL     1      49.292 -38.134  48.144  0.00  0.00    +0.000 C 
ATOM      5  C   UNL     1      48.952 -37.889  49.539  0.00  0.00    +0.000 A 
ATOM      6  C   UNL     1      48.577 -36.545  49.566  0.00  0.00    +0.000 A 
ATOM      7  C   UNL     1      48.966 -38.678  50.676  0.00  0.00    +0.000 A 
ATOM      8  C   UNL     1      48.200 -35.953  50.758  0.00  0.00    +0.000 A 
ATOM      9  C   UNL     1      48.585 -38.081  51.880  0.00  0.00    +0.000 A 
ATOM     10  C   UNL     1      48.206 -36.728  51.922  0.00  0.00    +0.000 A 
ENDROOT
BRANCH   3  12
ATOM     11  N   UNL     1      48.816 -36.578  43.837  0.00  0.00    +0.000 N 
ATOM     12  C   UNL     1      49.095 -36.501  46.047  0.00  0.00    +0.000 A 
ATOM     13  C   UNL     1      49.830 -35.424  45.446  0.00  0.00    +0.000 A 
ATOM     14  C   UNL     1      49.646 -35.508  44.066  0.00  0.00    +0.000 A 
ATOM     15  C   UNL     1      48.457 -37.173  45.019  0.00  0.00    +0.000 A 
ATOM     16  C   UNL     1      50.650 -34.390  45.946  0.00  0.00    +0.000 A 
ATOM     17  C   UNL     1      50.235 -34.614  43.163  0.00  0.00    +0.000 A 
ATOM     18  C   UNL     1      51.248 -33.488  45.060  0.00  0.00    +0.000 A 
ATOM     19  C   UNL     1      51.042 -33.600  43.688  0.00  0.00    +0.000 A 
ATOM     20  H   UNL     1      48.500 -36.857  42.921  0.00  0.00    +0.000 HD
BRANCH  15  21
ATOM     21  O   UNL     1      47.604 -38.192  45.057  0.00  0.00    +0.000 OA
ATOM     22  H   UNL     1      47.794 -38.767  45.815  0.00  0.00    +0.000 HD
ENDBRANCH  15  21
ENDBRANCH   3  12
BRANCH   2  23
ATOM     23  O   UNL     1      50.033 -40.228  48.402  0.00  0.00    +0.000 OA
BRANCH  23  24
ATOM     24  C   UNL     1      49.359 -41.371  47.884  0.00  0.00    +0.000 C 
BRANCH  24  25
ATOM     25  C   UNL     1      48.113 -41.643  48.714  0.00  0.00    +0.000 C 
BRANCH  25  26
ATOM     26  C   UNL     1      48.351 -42.552  49.920  0.00  0.00    +0.000 C 
BRANCH  26  27
ATOM     27  O   UNL     1      49.763 -42.575  50.182  0.00  0.00    +0.000 OA
ATOM     28  H   UNL     1      50.121 -43.209  49.529  0.00  0.00    +0.000 HD
ENDBRANCH  26  27
BRANCH  26  29
ATOM     29  C   UNL     1      47.635 -42.097  51.196  0.00  0.00    +0.000 C 
BRANCH  29  30
ATOM     30  O   UNL     1      48.629 -41.791  52.180  0.00  0.00    +0.000 OA
ATOM     31  H   UNL     1      49.058 -42.634  52.412  0.00  0.00    +0.000 HD
ENDBRANCH  29  30
ENDBRANCH  26  29
ENDBRANCH  25  26
ENDBRANCH  24  25
ENDBRANCH  23  24
ENDBRANCH   2  23
TORSDOF 9
ENDMDL
