MODEL 1
REMARK VINA RESULT:      -6.7      0.000      0.000
REMARK  Name = 
REMARK  6 active torsions:
REMARK  status: ('A' for Active; 'I' for Inactive)
REMARK    1  A    between atoms: O_3  and  C_16
REMARK    2  A    between atoms: O_4  and  C_17
REMARK    3  A    between atoms: O_4  and  C_22
REMARK    4  A    between atoms: O_5  and  C_19
REMARK    5  A    between atoms: O_5  and  C_23
REMARK    6  A    between atoms: O_6  and  C_21
REMARK                            x       y       z     vdW  Elec       q    Type
REMARK                         _______ _______ _______ _____ _____    ______ ____
ROOT
ATOM      1  O   UNL     1      47.865 -42.895  49.971  0.00  0.00    +0.000 OA
ATOM      2  O   UNL     1      50.270 -43.155  46.850  0.00  0.00    +0.000 OA
ATOM      3  C   UNL     1      48.019 -42.505  47.590  0.00  0.00    +0.000 C 
ATOM      4  C   UNL     1      48.060 -43.563  48.698  0.00  0.00    +0.000 C 
ATOM      5  C   UNL     1      48.376 -41.297  48.385  0.00  0.00    +0.000 A 
ATOM      6  C   UNL     1      48.931 -42.879  46.440  0.00  0.00    +0.000 C 
ATOM      7  C   UNL     1      49.342 -44.367  48.732  0.00  0.00    +0.000 A 
ATOM      8  C   UNL     1      48.229 -41.593  49.733  0.00  0.00    +0.000 A 
ATOM      9  C   UNL     1      50.383 -44.113  47.823  0.00  0.00    +0.000 A 
ATOM     10  C   UNL     1      48.736 -40.025  47.973  0.00  0.00    +0.000 A 
ATOM     11  C   UNL     1      49.493 -45.381  49.695  0.00  0.00    +0.000 A 
ATOM     12  C   UNL     1      48.432 -40.630  50.701  0.00  0.00    +0.000 A 
ATOM     13  C   UNL     1      51.581 -44.836  47.915  0.00  0.00    +0.000 A 
ATOM     14  C   UNL     1      48.959 -39.042  48.947  0.00  0.00    +0.000 A 
ATOM     15  C   UNL     1      48.808 -39.337  50.313  0.00  0.00    +0.000 A 
ATOM     16  C   UNL     1      50.661 -46.136  49.753  0.00  0.00    +0.000 A 
ATOM     17  C   UNL     1      51.687 -45.862  48.861  0.00  0.00    +0.000 A 
ENDROOT
BRANCH  12  18
ATOM     18  O   UNL     1      48.275 -40.935  52.024  0.00  0.00    +0.000 OA
ATOM     19  H   UNL     1      48.861 -40.317  52.498  0.00  0.00    +0.000 HD
ENDBRANCH  12  18
BRANCH  13  20
ATOM     20  O   UNL     1      52.683 -44.685  47.107  0.00  0.00    +0.000 OA
ATOM     21  C   UNL     1      52.584 -45.346  45.846  0.00  0.00    +0.000 C 
ENDBRANCH  13  20
BRANCH  15  22
ATOM     22  O   UNL     1      48.992 -38.456  51.350  0.00  0.00    +0.000 OA
ATOM     23  C   UNL     1      48.003 -37.446  51.515  0.00  0.00    +0.000 C 
ENDBRANCH  15  22
BRANCH  17  24
ATOM     24  O   UNL     1      52.827 -46.616  48.935  0.00  0.00    +0.000 OA
ATOM     25  H   UNL     1      53.555 -45.967  48.959  0.00  0.00    +0.000 HD
ENDBRANCH  17  24
TORSDOF 4
ENDMDL
MODEL 2
REMARK VINA RESULT:      -6.2     15.032     17.409
REMARK  Name = 
REMARK  6 active torsions:
REMARK  status: ('A' for Active; 'I' for Inactive)
REMARK    1  A    between atoms: O_3  and  C_16
REMARK    2  A    between atoms: O_4  and  C_17
REMARK    3  A    between atoms: O_4  and  C_22
REMARK    4  A    between atoms: O_5  and  C_19
REMARK    5  A    between atoms: O_5  and  C_23
REMARK    6  A    between atoms: O_6  and  C_21
REMARK                            x       y       z     vdW  Elec       q    Type
REMARK                         _______ _______ _______ _____ _____    ______ ____
ROOT
ATOM      1  O   UNL     1      61.446 -44.985  61.075  0.00  0.00    +0.000 OA
ATOM      2  O   UNL     1      59.834 -47.627  58.624  0.00  0.00    +0.000 OA
ATOM      3  C   UNL     1      60.762 -45.358  58.787  0.00  0.00    +0.000 C 
ATOM      4  C   UNL     1      60.290 -45.251  60.241  0.00  0.00    +0.000 C 
ATOM      5  C   UNL     1      62.192 -45.708  59.014  0.00  0.00    +0.000 A 
ATOM      6  C   UNL     1      59.918 -46.343  58.006  0.00  0.00    +0.000 C 
ATOM      7  C   UNL     1      59.568 -46.483  60.743  0.00  0.00    +0.000 A 
ATOM      8  C   UNL     1      62.512 -45.434  60.336  0.00  0.00    +0.000 A 
ATOM      9  C   UNL     1      59.392 -47.609  59.921  0.00  0.00    +0.000 A 
ATOM     10  C   UNL     1      63.155 -46.166  58.132  0.00  0.00    +0.000 A 
ATOM     11  C   UNL     1      59.071 -46.500  62.060  0.00  0.00    +0.000 A 
ATOM     12  C   UNL     1      63.797 -45.604  60.809  0.00  0.00    +0.000 A 
ATOM     13  C   UNL     1      58.769 -48.756  60.433  0.00  0.00    +0.000 A 
ATOM     14  C   UNL     1      64.462 -46.357  58.603  0.00  0.00    +0.000 A 
ATOM     15  C   UNL     1      64.790 -46.076  59.941  0.00  0.00    +0.000 A 
ATOM     16  C   UNL     1      58.404 -47.619  62.551  0.00  0.00    +0.000 A 
ATOM     17  C   UNL     1      58.254 -48.729  61.734  0.00  0.00    +0.000 A 
ENDROOT
BRANCH  12  18
ATOM     18  O   UNL     1      64.098 -45.320  62.112  0.00  0.00    +0.000 OA
ATOM     19  H   UNL     1      63.730 -44.431  62.269  0.00  0.00    +0.000 HD
ENDBRANCH  12  18
BRANCH  13  20
ATOM     20  O   UNL     1      58.543 -49.928  59.750  0.00  0.00    +0.000 OA
ATOM     21  C   UNL     1      59.655 -50.822  59.730  0.00  0.00    +0.000 C 
ENDBRANCH  13  20
BRANCH  15  22
ATOM     22  O   UNL     1      66.032 -46.217  60.510  0.00  0.00    +0.000 OA
ATOM     23  C   UNL     1      67.048 -45.330  60.056  0.00  0.00    +0.000 C 
ENDBRANCH  15  22
BRANCH  17  24
ATOM     24  O   UNL     1      57.595 -49.819  62.237  0.00  0.00    +0.000 OA
ATOM     25  H   UNL     1      58.199 -50.188  62.909  0.00  0.00    +0.000 HD
ENDBRANCH  17  24
TORSDOF 4
ENDMDL
MODEL 3
REMARK VINA RESULT:      -5.7      2.950      5.969
REMARK  Name = 
REMARK  6 active torsions:
REMARK  status: ('A' for Active; 'I' for Inactive)
REMARK    1  A    between atoms: O_3  and  C_16
REMARK    2  A    between atoms: O_4  and  C_17
REMARK    3  A    between atoms: O_4  and  C_22
REMARK    4  A    between atoms: O_5  and  C_19
REMARK    5  A    between atoms: O_5  and  C_23
REMARK    6  A    between atoms: O_6  and  C_21
REMARK                            x       y       z     vdW  Elec       q    Type
REMARK                         _______ _______ _______ _____ _____    ______ ____
ROOT
ATOM      1  O   UNL     1      48.617 -42.239  46.335  0.00  0.00    +0.000 OA
ATOM      2  O   UNL     1      48.711 -39.003  48.595  0.00  0.00    +0.000 OA
ATOM      3  C   UNL     1      49.542 -40.013  46.515  0.00  0.00    +0.000 C 
ATOM      4  C   UNL     1      49.482 -41.406  47.148  0.00  0.00    +0.000 C 
ATOM      5  C   UNL     1      48.268 -40.035  45.744  0.00  0.00    +0.000 A 
ATOM      6  C   UNL     1      49.700 -38.937  47.569  0.00  0.00    +0.000 C 
ATOM      7  C   UNL     1      48.996 -41.409  48.582  0.00  0.00    +0.000 A 
ATOM      8  C   UNL     1      47.824 -41.346  45.657  0.00  0.00    +0.000 A 
ATOM      9  C   UNL     1      48.621 -40.217  49.224  0.00  0.00    +0.000 A 
ATOM     10  C   UNL     1      47.582 -39.011  45.111  0.00  0.00    +0.000 A 
ATOM     11  C   UNL     1      48.914 -42.628  49.278  0.00  0.00    +0.000 A 
ATOM     12  C   UNL     1      46.692 -41.671  44.937  0.00  0.00    +0.000 A 
ATOM     13  C   UNL     1      48.122 -40.258  50.533  0.00  0.00    +0.000 A 
ATOM     14  C   UNL     1      46.422 -39.325  44.389  0.00  0.00    +0.000 A 
ATOM     15  C   UNL     1      45.973 -40.653  44.296  0.00  0.00    +0.000 A 
ATOM     16  C   UNL     1      48.470 -42.663  50.597  0.00  0.00    +0.000 A 
ATOM     17  C   UNL     1      48.086 -41.482  51.211  0.00  0.00    +0.000 A 
ENDROOT
BRANCH  12  18
ATOM     18  O   UNL     1      46.273 -42.969  44.854  0.00  0.00    +0.000 OA
ATOM     19  H   UNL     1      46.829 -43.372  44.162  0.00  0.00    +0.000 HD
ENDBRANCH  12  18
BRANCH  13  20
ATOM     20  O   UNL     1      47.705 -39.178  51.276  0.00  0.00    +0.000 OA
ATOM     21  C   UNL     1      48.721 -38.208  51.527  0.00  0.00    +0.000 C 
ENDBRANCH  13  20
BRANCH  15  22
ATOM     22  O   UNL     1      44.859 -41.079  43.613  0.00  0.00    +0.000 OA
ATOM     23  C   UNL     1      43.738 -40.202  43.609  0.00  0.00    +0.000 C 
ENDBRANCH  15  22
BRANCH  17  24
ATOM     24  O   UNL     1      47.651 -41.538  52.509  0.00  0.00    +0.000 OA
ATOM     25  H   UNL     1      47.342 -42.456  52.629  0.00  0.00    +0.000 HD
ENDBRANCH  17  24
TORSDOF 4
ENDMDL
MODEL 4
REMARK VINA RESULT:      -5.7     22.612     24.504
REMARK  Name = 
REMARK  6 active torsions:
REMARK  status: ('A' for Active; 'I' for Inactive)
REMARK    1  A    between atoms: O_3  and  C_16
REMARK    2  A    between atoms: O_4  and  C_17
REMARK    3  A    between atoms: O_4  and  C_22
REMARK    4  A    between atoms: O_5  and  C_19
REMARK    5  A    between atoms: O_5  and  C_23
REMARK    6  A    between atoms: O_6  and  C_21
REMARK                            x       y       z     vdW  Elec       q    Type
REMARK                         _______ _______ _______ _____ _____    ______ ____
ROOT
ATOM      1  O   UNL     1      42.804 -54.461  67.761  0.00  0.00    +0.000 OA
ATOM      2  O   UNL     1      44.579 -57.753  66.499  0.00  0.00    +0.000 OA
ATOM      3  C   UNL     1      44.457 -55.316  66.219  0.00  0.00    +0.000 C 
ATOM      4  C   UNL     1      42.976 -55.328  66.612  0.00  0.00    +0.000 C 
ATOM      5  C   UNL     1      45.056 -54.903  67.519  0.00  0.00    +0.000 A 
ATOM      6  C   UNL     1      44.885 -56.651  65.647  0.00  0.00    +0.000 C 
ATOM      7  C   UNL     1      42.436 -56.707  66.924  0.00  0.00    +0.000 A 
ATOM      8  C   UNL     1      44.052 -54.394  68.330  0.00  0.00    +0.000 A 
ATOM      9  C   UNL     1      43.263 -57.841  66.869  0.00  0.00    +0.000 A 
ATOM     10  C   UNL     1      46.375 -54.907  67.941  0.00  0.00    +0.000 A 
ATOM     11  C   UNL     1      41.083 -56.851  67.282  0.00  0.00    +0.000 A 
ATOM     12  C   UNL     1      44.336 -53.874  69.576  0.00  0.00    +0.000 A 
ATOM     13  C   UNL     1      42.747 -59.097  67.219  0.00  0.00    +0.000 A 
ATOM     14  C   UNL     1      46.675 -54.394  69.212  0.00  0.00    +0.000 A 
ATOM     15  C   UNL     1      45.660 -53.875  70.033  0.00  0.00    +0.000 A 
ATOM     16  C   UNL     1      40.556 -58.105  67.577  0.00  0.00    +0.000 A 
ATOM     17  C   UNL     1      41.389 -59.213  67.536  0.00  0.00    +0.000 A 
ENDROOT
BRANCH  12  18
ATOM     18  O   UNL     1      43.336 -53.368  70.359  0.00  0.00    +0.000 OA
ATOM     19  H   UNL     1      43.764 -53.150  71.207  0.00  0.00    +0.000 HD
ENDBRANCH  12  18
BRANCH  13  20
ATOM     20  O   UNL     1      43.441 -60.285  67.225  0.00  0.00    +0.000 OA
ATOM     21  C   UNL     1      44.197 -60.520  68.412  0.00  0.00    +0.000 C 
ENDBRANCH  13  20
BRANCH  15  22
ATOM     22  O   UNL     1      45.836 -53.342  71.287  0.00  0.00    +0.000 OA
ATOM     23  C   UNL     1      46.149 -54.256  72.332  0.00  0.00    +0.000 C 
ENDBRANCH  15  22
BRANCH  17  24
ATOM     24  O   UNL     1      40.852 -60.438  67.830  0.00  0.00    +0.000 OA
ATOM     25  H   UNL     1      40.760 -60.444  68.802  0.00  0.00    +0.000 HD
ENDBRANCH  17  24
TORSDOF 4
ENDMDL
MODEL 5
REMARK VINA RESULT:      -5.7     13.124     15.497
REMARK  Name = 
REMARK  6 active torsions:
REMARK  status: ('A' for Active; 'I' for Inactive)
REMARK    1  A    between atoms: O_3  and  C_16
REMARK    2  A    between atoms: O_4  and  C_17
REMARK    3  A    between atoms: O_4  and  C_22
REMARK    4  A    between atoms: O_5  and  C_19
REMARK    5  A    between atoms: O_5  and  C_23
REMARK    6  A    between atoms: O_6  and  C_21
REMARK                            x       y       z     vdW  Elec       q    Type
REMARK                         _______ _______ _______ _____ _____    ______ ____
ROOT
ATOM      1  O   UNL     1      48.170 -53.651  58.155  0.00  0.00    +0.000 OA
ATOM      2  O   UNL     1      46.381 -54.509  54.742  0.00  0.00    +0.000 OA
ATOM      3  C   UNL     1      47.931 -52.959  55.852  0.00  0.00    +0.000 C 
ATOM      4  C   UNL     1      47.207 -53.165  57.187  0.00  0.00    +0.000 C 
ATOM      5  C   UNL     1      49.082 -53.883  56.048  0.00  0.00    +0.000 A 
ATOM      6  C   UNL     1      47.010 -53.230  54.680  0.00  0.00    +0.000 C 
ATOM      7  C   UNL     1      46.033 -54.117  57.107  0.00  0.00    +0.000 A 
ATOM      8  C   UNL     1      49.171 -54.203  57.394  0.00  0.00    +0.000 A 
ATOM      9  C   UNL     1      45.692 -54.751  55.901  0.00  0.00    +0.000 A 
ATOM     10  C   UNL     1      50.018 -54.356  55.143  0.00  0.00    +0.000 A 
ATOM     11  C   UNL     1      45.278 -54.375  58.266  0.00  0.00    +0.000 A 
ATOM     12  C   UNL     1      50.193 -54.997  57.873  0.00  0.00    +0.000 A 
ATOM     13  C   UNL     1      44.634 -55.672  55.872  0.00  0.00    +0.000 A 
ATOM     14  C   UNL     1      51.053 -55.176  55.614  0.00  0.00    +0.000 A 
ATOM     15  C   UNL     1      51.147 -55.499  56.979  0.00  0.00    +0.000 A 
ATOM     16  C   UNL     1      44.193 -55.247  58.225  0.00  0.00    +0.000 A 
ATOM     17  C   UNL     1      43.880 -55.880  57.032  0.00  0.00    +0.000 A 
ENDROOT
BRANCH  12  18
ATOM     18  O   UNL     1      50.271 -55.296  59.205  0.00  0.00    +0.000 OA
ATOM     19  H   UNL     1      49.385 -55.627  59.443  0.00  0.00    +0.000 HD
ENDBRANCH  12  18
BRANCH  13  20
ATOM     20  O   UNL     1      44.201 -56.373  54.772  0.00  0.00    +0.000 OA
ATOM     21  C   UNL     1      43.377 -55.622  53.881  0.00  0.00    +0.000 C 
ENDBRANCH  13  20
BRANCH  15  22
ATOM     22  O   UNL     1      52.118 -56.283  57.553  0.00  0.00    +0.000 OA
ATOM     23  C   UNL     1      53.331 -56.436  56.825  0.00  0.00    +0.000 C 
ENDBRANCH  15  22
BRANCH  17  24
ATOM     24  O   UNL     1      42.810 -56.734  57.014  0.00  0.00    +0.000 OA
ATOM     25  H   UNL     1      42.140 -56.284  56.464  0.00  0.00    +0.000 HD
ENDBRANCH  17  24
TORSDOF 4
ENDMDL
MODEL 6
REMARK VINA RESULT:      -5.6     17.286     19.878
REMARK  Name = 
REMARK  6 active torsions:
REMARK  status: ('A' for Active; 'I' for Inactive)
REMARK    1  A    between atoms: O_3  and  C_16
REMARK    2  A    between atoms: O_4  and  C_17
REMARK    3  A    between atoms: O_4  and  C_22
REMARK    4  A    between atoms: O_5  and  C_19
REMARK    5  A    between atoms: O_5  and  C_23
REMARK    6  A    between atoms: O_6  and  C_21
REMARK                            x       y       z     vdW  Elec       q    Type
REMARK                         _______ _______ _______ _____ _____    ______ ____
ROOT
ATOM      1  O   UNL     1      41.503 -57.406  59.125  0.00  0.00    +0.000 OA
ATOM      2  O   UNL     1      43.735 -56.433  62.232  0.00  0.00    +0.000 OA
ATOM      3  C   UNL     1      43.603 -57.856  60.234  0.00  0.00    +0.000 C 
ATOM      4  C   UNL     1      42.076 -57.914  60.356  0.00  0.00    +0.000 C 
ATOM      5  C   UNL     1      43.729 -56.801  59.190  0.00  0.00    +0.000 A 
ATOM      6  C   UNL     1      44.251 -57.590  61.577  0.00  0.00    +0.000 C 
ATOM      7  C   UNL     1      41.525 -57.141  61.535  0.00  0.00    +0.000 A 
ATOM      8  C   UNL     1      42.495 -56.628  58.581  0.00  0.00    +0.000 A 
ATOM      9  C   UNL     1      42.375 -56.430  62.399  0.00  0.00    +0.000 A 
ATOM     10  C   UNL     1      44.839 -56.095  58.757  0.00  0.00    +0.000 A 
ATOM     11  C   UNL     1      40.137 -57.132  61.764  0.00  0.00    +0.000 A 
ATOM     12  C   UNL     1      42.336 -55.753  57.525  0.00  0.00    +0.000 A 
ATOM     13  C   UNL     1      41.830 -55.677  63.449  0.00  0.00    +0.000 A 
ATOM     14  C   UNL     1      44.688 -55.192  57.695  0.00  0.00    +0.000 A 
ATOM     15  C   UNL     1      43.440 -55.017  57.074  0.00  0.00    +0.000 A 
ATOM     16  C   UNL     1      39.600 -56.430  62.839  0.00  0.00    +0.000 A 
ATOM     17  C   UNL     1      40.449 -55.717  63.672  0.00  0.00    +0.000 A 
ENDROOT
BRANCH  12  18
ATOM     18  O   UNL     1      41.115 -55.602  56.930  0.00  0.00    +0.000 OA
ATOM     19  H   UNL     1      41.304 -55.195  56.064  0.00  0.00    +0.000 HD
ENDBRANCH  12  18
BRANCH  13  20
ATOM     20  O   UNL     1      42.536 -54.925  64.359  0.00  0.00    +0.000 OA
ATOM     21  C   UNL     1      43.141 -55.682  65.406  0.00  0.00    +0.000 C 
ENDBRANCH  13  20
BRANCH  15  22
ATOM     22  O   UNL     1      43.176 -54.171  56.025  0.00  0.00    +0.000 OA
ATOM     23  C   UNL     1      44.278 -53.815  55.197  0.00  0.00    +0.000 C 
ENDBRANCH  15  22
BRANCH  17  24
ATOM     24  O   UNL     1      39.900 -55.033  64.724  0.00  0.00    +0.000 OA
ATOM     25  H   UNL     1      39.460 -54.262  64.317  0.00  0.00    +0.000 HD
ENDBRANCH  17  24
TORSDOF 4
ENDMDL
MODEL 7
REMARK VINA RESULT:      -5.3     13.418     16.157
REMARK  Name = 
REMARK  6 active torsions:
REMARK  status: ('A' for Active; 'I' for Inactive)
REMARK    1  A    between atoms: O_3  and  C_16
REMARK    2  A    between atoms: O_4  and  C_17
REMARK    3  A    between atoms: O_4  and  C_22
REMARK    4  A    between atoms: O_5  and  C_19
REMARK    5  A    between atoms: O_5  and  C_23
REMARK    6  A    between atoms: O_6  and  C_21
REMARK                            x       y       z     vdW  Elec       q    Type
REMARK                         _______ _______ _______ _____ _____    ______ ____
ROOT
ATOM      1  O   UNL     1      47.047 -54.707  59.278  0.00  0.00    +0.000 OA
ATOM      2  O   UNL     1      46.576 -54.112  55.404  0.00  0.00    +0.000 OA
ATOM      3  C   UNL     1      47.541 -53.187  57.465  0.00  0.00    +0.000 C 
ATOM      4  C   UNL     1      46.430 -53.836  58.297  0.00  0.00    +0.000 C 
ATOM      5  C   UNL     1      48.627 -54.184  57.680  0.00  0.00    +0.000 A 
ATOM      6  C   UNL     1      47.090 -52.943  56.040  0.00  0.00    +0.000 C 
ATOM      7  C   UNL     1      45.427 -54.618  57.476  0.00  0.00    +0.000 A 
ATOM      8  C   UNL     1      48.283 -54.992  58.754  0.00  0.00    +0.000 A 
ATOM      9  C   UNL     1      45.558 -54.730  56.082  0.00  0.00    +0.000 A 
ATOM     10  C   UNL     1      49.845 -54.338  57.039  0.00  0.00    +0.000 A 
ATOM     11  C   UNL     1      44.348 -55.247  58.125  0.00  0.00    +0.000 A 
ATOM     12  C   UNL     1      49.143 -55.967  59.218  0.00  0.00    +0.000 A 
ATOM     13  C   UNL     1      44.645 -55.508  55.356  0.00  0.00    +0.000 A 
ATOM     14  C   UNL     1      50.721 -55.335  57.491  0.00  0.00    +0.000 A 
ATOM     15  C   UNL     1      50.377 -56.152  58.581  0.00  0.00    +0.000 A 
ATOM     16  C   UNL     1      43.409 -55.973  57.398  0.00  0.00    +0.000 A 
ATOM     17  C   UNL     1      43.563 -56.091  56.026  0.00  0.00    +0.000 A 
ENDROOT
BRANCH  12  18
ATOM     18  O   UNL     1      48.792 -56.748  60.284  0.00  0.00    +0.000 OA
ATOM     19  H   UNL     1      48.683 -56.128  61.028  0.00  0.00    +0.000 HD
ENDBRANCH  12  18
BRANCH  13  20
ATOM     20  O   UNL     1      44.659 -55.717  53.997  0.00  0.00    +0.000 OA
ATOM     21  C   UNL     1      45.526 -56.768  53.572  0.00  0.00    +0.000 C 
ENDBRANCH  13  20
BRANCH  15  22
ATOM     22  O   UNL     1      51.155 -57.150  59.114  0.00  0.00    +0.000 OA
ATOM     23  C   UNL     1      52.520 -56.834  59.364  0.00  0.00    +0.000 C 
ENDBRANCH  15  22
BRANCH  17  24
ATOM     24  O   UNL     1      42.629 -56.811  55.329  0.00  0.00    +0.000 OA
ATOM     25  H   UNL     1      42.725 -57.726  55.654  0.00  0.00    +0.000 HD
ENDBRANCH  17  24
TORSDOF 4
ENDMDL
MODEL 8
REMARK VINA RESULT:      -5.3     24.248     26.499
REMARK  Name = 
REMARK  6 active torsions:
REMARK  status: ('A' for Active; 'I' for Inactive)
REMARK    1  A    between atoms: O_3  and  C_16
REMARK    2  A    between atoms: O_4  and  C_17
REMARK    3  A    between atoms: O_4  and  C_22
REMARK    4  A    between atoms: O_5  and  C_19
REMARK    5  A    between atoms: O_5  and  C_23
REMARK    6  A    between atoms: O_6  and  C_21
REMARK                            x       y       z     vdW  Elec       q    Type
REMARK                         _______ _______ _______ _____ _____    ______ ____
ROOT
ATOM      1  O   UNL     1      45.461 -54.964  73.032  0.00  0.00    +0.000 OA
ATOM      2  O   UNL     1      49.038 -53.422  72.389  0.00  0.00    +0.000 OA
ATOM      3  C   UNL     1      47.674 -55.456  72.193  0.00  0.00    +0.000 C 
ATOM      4  C   UNL     1      46.856 -55.045  73.422  0.00  0.00    +0.000 C 
ATOM      5  C   UNL     1      46.747 -55.010  71.116  0.00  0.00    +0.000 A 
ATOM      6  C   UNL     1      49.057 -54.839  72.223  0.00  0.00    +0.000 C 
ATOM      7  C   UNL     1      47.292 -53.734  74.039  0.00  0.00    +0.000 A 
ATOM      8  C   UNL     1      45.496 -54.783  71.671  0.00  0.00    +0.000 A 
ATOM      9  C   UNL     1      48.344 -52.984  73.486  0.00  0.00    +0.000 A 
ATOM     10  C   UNL     1      46.952 -54.875  69.753  0.00  0.00    +0.000 A 
ATOM     11  C   UNL     1      46.628 -53.258  75.185  0.00  0.00    +0.000 A 
ATOM     12  C   UNL     1      44.421 -54.421  70.886  0.00  0.00    +0.000 A 
ATOM     13  C   UNL     1      48.688 -51.746  74.047  0.00  0.00    +0.000 A 
ATOM     14  C   UNL     1      45.871 -54.494  68.945  0.00  0.00    +0.000 A 
ATOM     15  C   UNL     1      44.603 -54.267  69.505  0.00  0.00    +0.000 A 
ATOM     16  C   UNL     1      47.005 -52.055  75.775  0.00  0.00    +0.000 A 
ATOM     17  C   UNL     1      48.032 -51.317  75.207  0.00  0.00    +0.000 A 
ENDROOT
BRANCH  12  18
ATOM     18  O   UNL     1      43.193 -54.210  71.448  0.00  0.00    +0.000 OA
ATOM     19  H   UNL     1      42.720 -53.638  70.816  0.00  0.00    +0.000 HD
ENDBRANCH  12  18
BRANCH  13  20
ATOM     20  O   UNL     1      49.680 -50.904  73.604  0.00  0.00    +0.000 OA
ATOM     21  C   UNL     1      50.993 -51.265  74.028  0.00  0.00    +0.000 C 
ENDBRANCH  13  20
BRANCH  15  22
ATOM     22  O   UNL     1      43.474 -53.899  68.814  0.00  0.00    +0.000 OA
ATOM     23  C   UNL     1      43.400 -54.299  67.450  0.00  0.00    +0.000 C 
ENDBRANCH  15  22
BRANCH  17  24
ATOM     24  O   UNL     1      48.388 -50.136  75.802  0.00  0.00    +0.000 OA
ATOM     25  H   UNL     1      47.853 -50.097  76.618  0.00  0.00    +0.000 HD
ENDBRANCH  17  24
TORSDOF 4
ENDMDL
MODEL 9
REMARK VINA RESULT:      -5.2     12.754     15.837
REMARK  Name = 
REMARK  6 active torsions:
REMARK  status: ('A' for Active; 'I' for Inactive)
REMARK    1  A    between atoms: O_3  and  C_16
REMARK    2  A    between atoms: O_4  and  C_17
REMARK    3  A    between atoms: O_4  and  C_22
REMARK    4  A    between atoms: O_5  and  C_19
REMARK    5  A    between atoms: O_5  and  C_23
REMARK    6  A    between atoms: O_6  and  C_21
REMARK                            x       y       z     vdW  Elec       q    Type
REMARK                         _______ _______ _______ _____ _____    ______ ____
ROOT
ATOM      1  O   UNL     1      48.710 -53.748  58.005  0.00  0.00    +0.000 OA
ATOM      2  O   UNL     1      50.689 -56.769  56.412  0.00  0.00    +0.000 OA
ATOM      3  C   UNL     1      50.446 -55.377  58.422  0.00  0.00    +0.000 C 
ATOM      4  C   UNL     1      50.021 -54.182  57.563  0.00  0.00    +0.000 C 
ATOM      5  C   UNL     1      49.106 -55.851  58.870  0.00  0.00    +0.000 A 
ATOM      6  C   UNL     1      51.299 -56.347  57.631  0.00  0.00    +0.000 C 
ATOM      7  C   UNL     1      49.990 -54.474  56.078  0.00  0.00    +0.000 A 
ATOM      8  C   UNL     1      48.177 -54.849  58.629  0.00  0.00    +0.000 A 
ATOM      9  C   UNL     1      50.307 -55.749  55.581  0.00  0.00    +0.000 A 
ATOM     10  C   UNL     1      48.733 -57.028  59.497  0.00  0.00    +0.000 A 
ATOM     11  C   UNL     1      49.631 -53.449  55.183  0.00  0.00    +0.000 A 
ATOM     12  C   UNL     1      46.858 -54.993  59.008  0.00  0.00    +0.000 A 
ATOM     13  C   UNL     1      50.215 -56.004  54.205  0.00  0.00    +0.000 A 
ATOM     14  C   UNL     1      47.393 -57.192  59.874  0.00  0.00    +0.000 A 
ATOM     15  C   UNL     1      46.450 -56.178  59.634  0.00  0.00    +0.000 A 
ATOM     16  C   UNL     1      49.592 -53.687  53.812  0.00  0.00    +0.000 A 
ATOM     17  C   UNL     1      49.890 -54.955  53.338  0.00  0.00    +0.000 A 
ENDROOT
BRANCH  12  18
ATOM     18  O   UNL     1      45.957 -53.992  58.771  0.00  0.00    +0.000 OA
ATOM     19  H   UNL     1      45.083 -54.397  58.923  0.00  0.00    +0.000 HD
ENDBRANCH  12  18
BRANCH  13  20
ATOM     20  O   UNL     1      50.480 -57.202  53.584  0.00  0.00    +0.000 OA
ATOM     21  C   UNL     1      51.867 -57.466  53.380  0.00  0.00    +0.000 C 
ENDBRANCH  13  20
BRANCH  15  22
ATOM     22  O   UNL     1      45.118 -56.225  59.965  0.00  0.00    +0.000 OA
ATOM     23  C   UNL     1      44.740 -57.162  60.968  0.00  0.00    +0.000 C 
ENDBRANCH  15  22
BRANCH  17  24
ATOM     24  O   UNL     1      49.845 -55.168  51.986  0.00  0.00    +0.000 OA
ATOM     25  H   UNL     1      48.984 -54.807  51.704  0.00  0.00    +0.000 HD
ENDBRANCH  17  24
TORSDOF 4
ENDMDL
