MODEL 1
REMARK VINA RESULT:      -7.5      0.000      0.000
REMARK  Name = IPA3.pdbqt.pdb
REMARK  5 active torsions:
REMARK  status: ('A' for Active; 'I' for Inactive)
REMARK    1  A    between atoms: S_1  and  S_2
REMARK    2  A    between atoms: S_1  and  C_15
REMARK    3  A    between atoms: S_2  and  C_3
REMARK    4  A    between atoms: C_10  and  O_13
REMARK    5  A    between atoms: C_22  and  O_25
REMARK                            x       y       z     vdW  Elec       q    Type
REMARK                         _______ _______ _______ _____ _____    ______ ____
ROOT
ATOM      1  S   UNL     1      47.641 -41.866  49.000  0.00  0.00    +0.000 S 
ENDROOT
BRANCH   1   2
ATOM      2  C   UNL     1      47.899 -43.256  50.112  0.00  0.00    +0.000 A 
ATOM      3  C   UNL     1      48.433 -44.481  49.642  0.00  0.00    +0.000 A 
ATOM      4  C   UNL     1      48.642 -45.535  50.562  0.00  0.00    +0.000 A 
ATOM      5  C   UNL     1      48.785 -44.711  48.300  0.00  0.00    +0.000 A 
ATOM      6  C   UNL     1      48.312 -45.377  51.906  0.00  0.00    +0.000 A 
ATOM      7  C   UNL     1      49.189 -46.746  50.140  0.00  0.00    +0.000 A 
ATOM      8  C   UNL     1      47.773 -44.181  52.362  0.00  0.00    +0.000 A 
ATOM      9  C   UNL     1      47.571 -43.131  51.472  0.00  0.00    +0.000 A 
ATOM     10  C   UNL     1      49.534 -46.940  48.805  0.00  0.00    +0.000 A 
ATOM     11  C   UNL     1      49.331 -45.922  47.883  0.00  0.00    +0.000 A 
BRANCH   9  12
ATOM     12  O   UNL     1      47.045 -41.980  51.996  0.00  0.00    +0.000 OA
ATOM     13  H   UNL     1      47.680 -41.260  51.827  0.00  0.00    +0.000 HD
ENDBRANCH   9  12
ENDBRANCH   1   2
BRANCH   1  14
ATOM     14  S   UNL     1      49.547 -41.096  48.849  0.00  0.00    +0.000 S 
BRANCH  14  15
ATOM     15  C   UNL     1      49.274 -39.367  49.259  0.00  0.00    +0.000 A 
ATOM     16  C   UNL     1      49.265 -38.369  48.255  0.00  0.00    +0.000 A 
ATOM     17  C   UNL     1      49.019 -37.026  48.625  0.00  0.00    +0.000 A 
ATOM     18  C   UNL     1      49.478 -38.638  46.890  0.00  0.00    +0.000 A 
ATOM     19  C   UNL     1      48.806 -36.689  49.958  0.00  0.00    +0.000 A 
ATOM     20  C   UNL     1      48.980 -36.020  47.660  0.00  0.00    +0.000 A 
ATOM     21  C   UNL     1      48.830 -37.667  50.945  0.00  0.00    +0.000 A 
ATOM     22  C   UNL     1      49.061 -38.992  50.596  0.00  0.00    +0.000 A 
ATOM     23  C   UNL     1      49.184 -36.320  46.315  0.00  0.00    +0.000 A 
ATOM     24  C   UNL     1      49.436 -37.631  45.929  0.00  0.00    +0.000 A 
BRANCH  22  25
ATOM     25  O   UNL     1      49.061 -39.901  51.621  0.00  0.00    +0.000 OA
ATOM     26  H   UNL     1      49.171 -39.407  52.454  0.00  0.00    +0.000 HD
ENDBRANCH  22  25
ENDBRANCH  14  15
ENDBRANCH   1  14
TORSDOF 5
ENDMDL
MODEL 2
REMARK VINA RESULT:      -6.9      5.350      7.055
REMARK  Name = IPA3.pdbqt.pdb
REMARK  5 active torsions:
REMARK  status: ('A' for Active; 'I' for Inactive)
REMARK    1  A    between atoms: S_1  and  S_2
REMARK    2  A    between atoms: S_1  and  C_15
REMARK    3  A    between atoms: S_2  and  C_3
REMARK    4  A    between atoms: C_10  and  O_13
REMARK    5  A    between atoms: C_22  and  O_25
REMARK                            x       y       z     vdW  Elec       q    Type
REMARK                         _______ _______ _______ _____ _____    ______ ____
ROOT
ATOM      1  S   UNL     1      47.434 -49.337  48.728  0.00  0.00    +0.000 S 
ENDROOT
BRANCH   1   2
ATOM      2  C   UNL     1      48.822 -48.716  49.689  0.00  0.00    +0.000 A 
ATOM      3  C   UNL     1      49.803 -47.881  49.102  0.00  0.00    +0.000 A 
ATOM      4  C   UNL     1      50.860 -47.395  49.908  0.00  0.00    +0.000 A 
ATOM      5  C   UNL     1      49.783 -47.489  47.752  0.00  0.00    +0.000 A 
ATOM      6  C   UNL     1      50.944 -47.747  51.253  0.00  0.00    +0.000 A 
ATOM      7  C   UNL     1      51.831 -46.551  49.370  0.00  0.00    +0.000 A 
ATOM      8  C   UNL     1      49.989 -48.580  51.822  0.00  0.00    +0.000 A 
ATOM      9  C   UNL     1      48.937 -49.057  51.047  0.00  0.00    +0.000 A 
ATOM     10  C   UNL     1      51.779 -46.175  48.031  0.00  0.00    +0.000 A 
ATOM     11  C   UNL     1      50.754 -46.645  47.219  0.00  0.00    +0.000 A 
BRANCH   9  12
ATOM     12  O   UNL     1      48.030 -49.864  51.680  0.00  0.00    +0.000 OA
ATOM     13  H   UNL     1      47.612 -49.342  52.388  0.00  0.00    +0.000 HD
ENDBRANCH   9  12
ENDBRANCH   1   2
BRANCH   1  14
ATOM     14  S   UNL     1      46.235 -47.667  48.601  0.00  0.00    +0.000 S 
BRANCH  14  15
ATOM     15  C   UNL     1      46.372 -46.992  50.262  0.00  0.00    +0.000 A 
ATOM     16  C   UNL     1      47.122 -45.819  50.516  0.00  0.00    +0.000 A 
ATOM     17  C   UNL     1      47.177 -45.313  51.836  0.00  0.00    +0.000 A 
ATOM     18  C   UNL     1      47.816 -45.109  49.520  0.00  0.00    +0.000 A 
ATOM     19  C   UNL     1      46.517 -45.968  52.872  0.00  0.00    +0.000 A 
ATOM     20  C   UNL     1      47.887 -44.147  52.120  0.00  0.00    +0.000 A 
ATOM     21  C   UNL     1      45.794 -47.129  52.624  0.00  0.00    +0.000 A 
ATOM     22  C   UNL     1      45.722 -47.633  51.331  0.00  0.00    +0.000 A 
ATOM     23  C   UNL     1      48.556 -43.462  51.109  0.00  0.00    +0.000 A 
ATOM     24  C   UNL     1      48.523 -43.945  49.806  0.00  0.00    +0.000 A 
BRANCH  22  25
ATOM     25  O   UNL     1      44.983 -48.774  51.162  0.00  0.00    +0.000 OA
ATOM     26  H   UNL     1      45.372 -49.270  50.418  0.00  0.00    +0.000 HD
ENDBRANCH  22  25
ENDBRANCH  14  15
ENDBRANCH   1  14
TORSDOF 5
ENDMDL
MODEL 3
REMARK VINA RESULT:      -6.8      1.561      2.709
REMARK  Name = IPA3.pdbqt.pdb
REMARK  5 active torsions:
REMARK  status: ('A' for Active; 'I' for Inactive)
REMARK    1  A    between atoms: S_1  and  S_2
REMARK    2  A    between atoms: S_1  and  C_15
REMARK    3  A    between atoms: S_2  and  C_3
REMARK    4  A    between atoms: C_10  and  O_13
REMARK    5  A    between atoms: C_22  and  O_25
REMARK                            x       y       z     vdW  Elec       q    Type
REMARK                         _______ _______ _______ _____ _____    ______ ____
ROOT
ATOM      1  S   UNL     1      47.751 -41.560  47.857  0.00  0.00    +0.000 S 
ENDROOT
BRANCH   1   2
ATOM      2  C   UNL     1      47.909 -42.525  49.366  0.00  0.00    +0.000 A 
ATOM      3  C   UNL     1      48.446 -43.836  49.345  0.00  0.00    +0.000 A 
ATOM      4  C   UNL     1      48.575 -44.543  50.563  0.00  0.00    +0.000 A 
ATOM      5  C   UNL     1      48.877 -44.479  48.171  0.00  0.00    +0.000 A 
ATOM      6  C   UNL     1      48.164 -43.967  51.762  0.00  0.00    +0.000 A 
ATOM      7  C   UNL     1      49.121 -45.826  50.583  0.00  0.00    +0.000 A 
ATOM      8  C   UNL     1      47.622 -42.688  51.779  0.00  0.00    +0.000 A 
ATOM      9  C   UNL     1      47.498 -41.975  50.591  0.00  0.00    +0.000 A 
ATOM     10  C   UNL     1      49.547 -46.433  49.405  0.00  0.00    +0.000 A 
ATOM     11  C   UNL     1      49.423 -45.760  48.197  0.00  0.00    +0.000 A 
BRANCH   9  12
ATOM     12  O   UNL     1      46.965 -40.717  50.687  0.00  0.00    +0.000 OA
ATOM     13  H   UNL     1      46.034 -40.809  50.959  0.00  0.00    +0.000 HD
ENDBRANCH   9  12
ENDBRANCH   1   2
BRANCH   1  14
ATOM     14  S   UNL     1      49.632 -40.734  47.693  0.00  0.00    +0.000 S 
BRANCH  14  15
ATOM     15  C   UNL     1      49.269 -38.977  47.802  0.00  0.00    +0.000 A 
ATOM     16  C   UNL     1      49.294 -38.300  49.044  0.00  0.00    +0.000 A 
ATOM     17  C   UNL     1      49.029 -36.910  49.074  0.00  0.00    +0.000 A 
ATOM     18  C   UNL     1      49.584 -38.931  50.268  0.00  0.00    +0.000 A 
ATOM     19  C   UNL     1      48.730 -36.223  47.901  0.00  0.00    +0.000 A 
ATOM     20  C   UNL     1      49.067 -36.206  50.277  0.00  0.00    +0.000 A 
ATOM     21  C   UNL     1      48.689 -36.892  46.683  0.00  0.00    +0.000 A 
ATOM     22  C   UNL     1      48.958 -38.255  46.637  0.00  0.00    +0.000 A 
ATOM     23  C   UNL     1      49.367 -36.858  51.470  0.00  0.00    +0.000 A 
ATOM     24  C   UNL     1      49.624 -38.224  51.466  0.00  0.00    +0.000 A 
BRANCH  22  25
ATOM     25  O   UNL     1      48.909 -38.844  45.401  0.00  0.00    +0.000 OA
ATOM     26  H   UNL     1      47.981 -39.086  45.225  0.00  0.00    +0.000 HD
ENDBRANCH  22  25
ENDBRANCH  14  15
ENDBRANCH   1  14
TORSDOF 5
ENDMDL
MODEL 4
REMARK VINA RESULT:      -6.8     16.509     18.366
REMARK  Name = IPA3.pdbqt.pdb
REMARK  5 active torsions:
REMARK  status: ('A' for Active; 'I' for Inactive)
REMARK    1  A    between atoms: S_1  and  S_2
REMARK    2  A    between atoms: S_1  and  C_15
REMARK    3  A    between atoms: S_2  and  C_3
REMARK    4  A    between atoms: C_10  and  O_13
REMARK    5  A    between atoms: C_22  and  O_25
REMARK                            x       y       z     vdW  Elec       q    Type
REMARK                         _______ _______ _______ _____ _____    ______ ____
ROOT
ATOM      1  S   UNL     1      63.240 -46.923  58.864  0.00  0.00    +0.000 S 
ENDROOT
BRANCH   1   2
ATOM      2  C   UNL     1      64.135 -45.376  58.659  0.00  0.00    +0.000 A 
ATOM      3  C   UNL     1      64.674 -45.004  57.403  0.00  0.00    +0.000 A 
ATOM      4  C   UNL     1      65.346 -43.764  57.287  0.00  0.00    +0.000 A 
ATOM      5  C   UNL     1      64.569 -45.796  56.247  0.00  0.00    +0.000 A 
ATOM      6  C   UNL     1      65.490 -42.931  58.394  0.00  0.00    +0.000 A 
ATOM      7  C   UNL     1      65.868 -43.353  56.061  0.00  0.00    +0.000 A 
ATOM      8  C   UNL     1      64.974 -43.306  59.628  0.00  0.00    +0.000 A 
ATOM      9  C   UNL     1      64.302 -44.517  59.757  0.00  0.00    +0.000 A 
ATOM     10  C   UNL     1      65.741 -44.157  54.932  0.00  0.00    +0.000 A 
ATOM     11  C   UNL     1      65.092 -45.381  55.024  0.00  0.00    +0.000 A 
BRANCH   9  12
ATOM     12  O   UNL     1      63.813 -44.814  61.001  0.00  0.00    +0.000 OA
ATOM     13  H   UNL     1      64.573 -45.011  61.579  0.00  0.00    +0.000 HD
ENDBRANCH   9  12
ENDBRANCH   1   2
BRANCH   1  14
ATOM     14  S   UNL     1      61.363 -46.410  58.185  0.00  0.00    +0.000 S 
BRANCH  14  15
ATOM     15  C   UNL     1      60.344 -46.781  59.620  0.00  0.00    +0.000 A 
ATOM     16  C   UNL     1      59.576 -47.969  59.685  0.00  0.00    +0.000 A 
ATOM     17  C   UNL     1      58.812 -48.228  60.847  0.00  0.00    +0.000 A 
ATOM     18  C   UNL     1      59.536 -48.926  58.655  0.00  0.00    +0.000 A 
ATOM     19  C   UNL     1      58.801 -47.321  61.902  0.00  0.00    +0.000 A 
ATOM     20  C   UNL     1      58.062 -49.399  60.955  0.00  0.00    +0.000 A 
ATOM     21  C   UNL     1      59.543 -46.148  61.831  0.00  0.00    +0.000 A 
ATOM     22  C   UNL     1      60.307 -45.884  60.700  0.00  0.00    +0.000 A 
ATOM     23  C   UNL     1      58.051 -50.332  59.922  0.00  0.00    +0.000 A 
ATOM     24  C   UNL     1      58.788 -50.094  58.768  0.00  0.00    +0.000 A 
BRANCH  22  25
ATOM     25  O   UNL     1      61.019 -44.713  60.705  0.00  0.00    +0.000 OA
ATOM     26  H   UNL     1      60.379 -43.978  60.661  0.00  0.00    +0.000 HD
ENDBRANCH  22  25
ENDBRANCH  14  15
ENDBRANCH   1  14
TORSDOF 5
ENDMDL
MODEL 5
REMARK VINA RESULT:      -6.6      1.688      2.884
REMARK  Name = IPA3.pdbqt.pdb
REMARK  5 active torsions:
REMARK  status: ('A' for Active; 'I' for Inactive)
REMARK    1  A    between atoms: S_1  and  S_2
REMARK    2  A    between atoms: S_1  and  C_15
REMARK    3  A    between atoms: S_2  and  C_3
REMARK    4  A    between atoms: C_10  and  O_13
REMARK    5  A    between atoms: C_22  and  O_25
REMARK                            x       y       z     vdW  Elec       q    Type
REMARK                         _______ _______ _______ _____ _____    ______ ____
ROOT
ATOM      1  S   UNL     1      49.483 -43.104  49.839  0.00  0.00    +0.000 S 
ENDROOT
BRANCH   1   2
ATOM      2  C   UNL     1      48.642 -44.467  50.658  0.00  0.00    +0.000 A 
ATOM      3  C   UNL     1      48.928 -45.812  50.319  0.00  0.00    +0.000 A 
ATOM      4  C   UNL     1      48.260 -46.849  51.012  0.00  0.00    +0.000 A 
ATOM      5  C   UNL     1      49.857 -46.184  49.331  0.00  0.00    +0.000 A 
ATOM      6  C   UNL     1      47.324 -46.552  51.999  0.00  0.00    +0.000 A 
ATOM      7  C   UNL     1      48.533 -48.186  50.721  0.00  0.00    +0.000 A 
ATOM      8  C   UNL     1      47.034 -45.232  52.318  0.00  0.00    +0.000 A 
ATOM      9  C   UNL     1      47.689 -44.201  51.654  0.00  0.00    +0.000 A 
ATOM     10  C   UNL     1      49.465 -48.521  49.743  0.00  0.00    +0.000 A 
ATOM     11  C   UNL     1      50.128 -47.520  49.046  0.00  0.00    +0.000 A 
BRANCH   9  12
ATOM     12  O   UNL     1      47.359 -42.926  52.030  0.00  0.00    +0.000 OA
ATOM     13  H   UNL     1      47.177 -42.936  52.987  0.00  0.00    +0.000 HD
ENDBRANCH   9  12
ENDBRANCH   1   2
BRANCH   1  14
ATOM     14  S   UNL     1      47.953 -42.273  48.737  0.00  0.00    +0.000 S 
BRANCH  14  15
ATOM     15  C   UNL     1      48.685 -40.716  48.214  0.00  0.00    +0.000 A 
ATOM     16  C   UNL     1      48.683 -39.584  49.063  0.00  0.00    +0.000 A 
ATOM     17  C   UNL     1      49.296 -38.390  48.616  0.00  0.00    +0.000 A 
ATOM     18  C   UNL     1      48.110 -39.577  50.348  0.00  0.00    +0.000 A 
ATOM     19  C   UNL     1      49.878 -38.325  47.354  0.00  0.00    +0.000 A 
ATOM     20  C   UNL     1      49.333 -37.262  49.435  0.00  0.00    +0.000 A 
ATOM     21  C   UNL     1      49.866 -39.433  46.514  0.00  0.00    +0.000 A 
ATOM     22  C   UNL     1      49.276 -40.616  46.943  0.00  0.00    +0.000 A 
ATOM     23  C   UNL     1      48.765 -37.291  50.706  0.00  0.00    +0.000 A 
ATOM     24  C   UNL     1      48.150 -38.450  51.163  0.00  0.00    +0.000 A 
BRANCH  22  25
ATOM     25  O   UNL     1      49.311 -41.668  46.066  0.00  0.00    +0.000 OA
ATOM     26  H   UNL     1      50.053 -41.514  45.451  0.00  0.00    +0.000 HD
ENDBRANCH  22  25
ENDBRANCH  14  15
ENDBRANCH   1  14
TORSDOF 5
ENDMDL
MODEL 6
REMARK VINA RESULT:      -6.5      2.121      3.701
REMARK  Name = IPA3.pdbqt.pdb
REMARK  5 active torsions:
REMARK  status: ('A' for Active; 'I' for Inactive)
REMARK    1  A    between atoms: S_1  and  S_2
REMARK    2  A    between atoms: S_1  and  C_15
REMARK    3  A    between atoms: S_2  and  C_3
REMARK    4  A    between atoms: C_10  and  O_13
REMARK    5  A    between atoms: C_22  and  O_25
REMARK                            x       y       z     vdW  Elec       q    Type
REMARK                         _______ _______ _______ _____ _____    ______ ____
ROOT
ATOM      1  S   UNL     1      48.693 -42.940  50.940  0.00  0.00    +0.000 S 
ENDROOT
BRANCH   1   2
ATOM      2  C   UNL     1      48.732 -44.683  50.497  0.00  0.00    +0.000 A 
ATOM      3  C   UNL     1      47.921 -45.628  51.171  0.00  0.00    +0.000 A 
ATOM      4  C   UNL     1      47.968 -46.983  50.766  0.00  0.00    +0.000 A 
ATOM      5  C   UNL     1      47.051 -45.295  52.223  0.00  0.00    +0.000 A 
ATOM      6  C   UNL     1      48.811 -47.384  49.732  0.00  0.00    +0.000 A 
ATOM      7  C   UNL     1      47.165 -47.937  51.390  0.00  0.00    +0.000 A 
ATOM      8  C   UNL     1      49.618 -46.458  49.084  0.00  0.00    +0.000 A 
ATOM      9  C   UNL     1      49.576 -45.120  49.463  0.00  0.00    +0.000 A 
ATOM     10  C   UNL     1      46.307 -47.574  52.424  0.00  0.00    +0.000 A 
ATOM     11  C   UNL     1      46.250 -46.251  52.843  0.00  0.00    +0.000 A 
BRANCH   9  12
ATOM     12  O   UNL     1      50.392 -44.264  48.772  0.00  0.00    +0.000 OA
ATOM     13  H   UNL     1      51.276 -44.672  48.722  0.00  0.00    +0.000 HD
ENDBRANCH   9  12
ENDBRANCH   1   2
BRANCH   1  14
ATOM     14  S   UNL     1      47.418 -42.176  49.513  0.00  0.00    +0.000 S 
BRANCH  14  15
ATOM     15  C   UNL     1      48.415 -40.858  48.803  0.00  0.00    +0.000 A 
ATOM     16  C   UNL     1      48.517 -39.596  49.437  0.00  0.00    +0.000 A 
ATOM     17  C   UNL     1      49.335 -38.601  48.853  0.00  0.00    +0.000 A 
ATOM     18  C   UNL     1      47.854 -39.271  50.634  0.00  0.00    +0.000 A 
ATOM     19  C   UNL     1      50.016 -38.852  47.666  0.00  0.00    +0.000 A 
ATOM     20  C   UNL     1      49.478 -37.354  49.461  0.00  0.00    +0.000 A 
ATOM     21  C   UNL     1      49.903 -40.087  47.037  0.00  0.00    +0.000 A 
ATOM     22  C   UNL     1      49.110 -41.078  47.603  0.00  0.00    +0.000 A 
ATOM     23  C   UNL     1      48.816 -37.067  50.652  0.00  0.00    +0.000 A 
ATOM     24  C   UNL     1      48.000 -38.026  51.239  0.00  0.00    +0.000 A 
BRANCH  22  25
ATOM     25  O   UNL     1      49.055 -42.271  46.932  0.00  0.00    +0.000 OA
ATOM     26  H   UNL     1      49.757 -42.845  47.291  0.00  0.00    +0.000 HD
ENDBRANCH  22  25
ENDBRANCH  14  15
ENDBRANCH   1  14
TORSDOF 5
ENDMDL
MODEL 7
REMARK VINA RESULT:      -6.5     16.628     18.456
REMARK  Name = IPA3.pdbqt.pdb
REMARK  5 active torsions:
REMARK  status: ('A' for Active; 'I' for Inactive)
REMARK    1  A    between atoms: S_1  and  S_2
REMARK    2  A    between atoms: S_1  and  C_15
REMARK    3  A    between atoms: S_2  and  C_3
REMARK    4  A    between atoms: C_10  and  O_13
REMARK    5  A    between atoms: C_22  and  O_25
REMARK                            x       y       z     vdW  Elec       q    Type
REMARK                         _______ _______ _______ _____ _____    ______ ____
ROOT
ATOM      1  S   UNL     1      63.230 -47.140  59.106  0.00  0.00    +0.000 S 
ENDROOT
BRANCH   1   2
ATOM      2  C   UNL     1      64.286 -47.154  57.650  0.00  0.00    +0.000 A 
ATOM      3  C   UNL     1      64.793 -45.951  57.102  0.00  0.00    +0.000 A 
ATOM      4  C   UNL     1      65.643 -46.017  55.973  0.00  0.00    +0.000 A 
ATOM      5  C   UNL     1      64.511 -44.678  57.628  0.00  0.00    +0.000 A 
ATOM      6  C   UNL     1      65.962 -47.245  55.398  0.00  0.00    +0.000 A 
ATOM      7  C   UNL     1      66.180 -44.855  55.421  0.00  0.00    +0.000 A 
ATOM      8  C   UNL     1      65.449 -48.423  55.927  0.00  0.00    +0.000 A 
ATOM      9  C   UNL     1      64.621 -48.376  57.044  0.00  0.00    +0.000 A 
ATOM     10  C   UNL     1      65.888 -43.610  55.970  0.00  0.00    +0.000 A 
ATOM     11  C   UNL     1      65.051 -43.519  57.074  0.00  0.00    +0.000 A 
BRANCH   9  12
ATOM     12  O   UNL     1      64.163 -49.578  57.515  0.00  0.00    +0.000 OA
ATOM     13  H   UNL     1      63.189 -49.549  57.504  0.00  0.00    +0.000 HD
ENDBRANCH   9  12
ENDBRANCH   1   2
BRANCH   1  14
ATOM     14  S   UNL     1      61.371 -46.840  58.268  0.00  0.00    +0.000 S 
BRANCH  14  15
ATOM     15  C   UNL     1      60.307 -46.889  59.717  0.00  0.00    +0.000 A 
ATOM     16  C   UNL     1      59.435 -47.980  59.947  0.00  0.00    +0.000 A 
ATOM     17  C   UNL     1      58.638 -47.986  61.116  0.00  0.00    +0.000 A 
ATOM     18  C   UNL     1      59.320 -49.081  59.079  0.00  0.00    +0.000 A 
ATOM     19  C   UNL     1      58.698 -46.926  62.017  0.00  0.00    +0.000 A 
ATOM     20  C   UNL     1      57.785 -49.054  61.388  0.00  0.00    +0.000 A 
ATOM     21  C   UNL     1      59.543 -45.848  61.781  0.00  0.00    +0.000 A 
ATOM     22  C   UNL     1      60.340 -45.833  60.642  0.00  0.00    +0.000 A 
ATOM     23  C   UNL     1      57.701 -50.134  60.513  0.00  0.00    +0.000 A 
ATOM     24  C   UNL     1      58.469 -50.147  59.355  0.00  0.00    +0.000 A 
BRANCH  22  25
ATOM     25  O   UNL     1      61.154 -44.743  60.483  0.00  0.00    +0.000 OA
ATOM     26  H   UNL     1      60.983 -44.135  61.226  0.00  0.00    +0.000 HD
ENDBRANCH  22  25
ENDBRANCH  14  15
ENDBRANCH   1  14
TORSDOF 5
ENDMDL
MODEL 8
REMARK VINA RESULT:      -6.4      2.238      7.160
REMARK  Name = IPA3.pdbqt.pdb
REMARK  5 active torsions:
REMARK  status: ('A' for Active; 'I' for Inactive)
REMARK    1  A    between atoms: S_1  and  S_2
REMARK    2  A    between atoms: S_1  and  C_15
REMARK    3  A    between atoms: S_2  and  C_3
REMARK    4  A    between atoms: C_10  and  O_13
REMARK    5  A    between atoms: C_22  and  O_25
REMARK                            x       y       z     vdW  Elec       q    Type
REMARK                         _______ _______ _______ _____ _____    ______ ____
ROOT
ATOM      1  S   UNL     1      49.924 -40.159  46.111  0.00  0.00    +0.000 S 
ENDROOT
BRANCH   1   2
ATOM      2  C   UNL     1      49.432 -38.549  46.745  0.00  0.00    +0.000 A 
ATOM      3  C   UNL     1      49.489 -38.259  48.129  0.00  0.00    +0.000 A 
ATOM      4  C   UNL     1      49.118 -36.969  48.575  0.00  0.00    +0.000 A 
ATOM      5  C   UNL     1      49.911 -39.184  49.100  0.00  0.00    +0.000 A 
ATOM      6  C   UNL     1      48.686 -36.004  47.667  0.00  0.00    +0.000 A 
ATOM      7  C   UNL     1      49.184 -36.640  49.928  0.00  0.00    +0.000 A 
ATOM      8  C   UNL     1      48.615 -36.297  46.311  0.00  0.00    +0.000 A 
ATOM      9  C   UNL     1      48.987 -37.557  45.856  0.00  0.00    +0.000 A 
ATOM     10  C   UNL     1      49.615 -37.576  50.864  0.00  0.00    +0.000 A 
ATOM     11  C   UNL     1      49.977 -38.851  50.451  0.00  0.00    +0.000 A 
BRANCH   9  12
ATOM     12  O   UNL     1      48.900 -37.768  44.505  0.00  0.00    +0.000 OA
ATOM     13  H   UNL     1      48.130 -38.343  44.344  0.00  0.00    +0.000 HD
ENDBRANCH   9  12
ENDBRANCH   1   2
BRANCH   1  14
ATOM     14  S   UNL     1      48.164 -41.221  46.260  0.00  0.00    +0.000 S 
BRANCH  14  15
ATOM     15  C   UNL     1      48.375 -42.056  47.838  0.00  0.00    +0.000 A 
ATOM     16  C   UNL     1      49.275 -43.140  47.977  0.00  0.00    +0.000 A 
ATOM     17  C   UNL     1      49.426 -43.746  49.246  0.00  0.00    +0.000 A 
ATOM     18  C   UNL     1      50.048 -43.650  46.918  0.00  0.00    +0.000 A 
ATOM     19  C   UNL     1      48.689 -43.295  50.337  0.00  0.00    +0.000 A 
ATOM     20  C   UNL     1      50.320 -44.802  49.427  0.00  0.00    +0.000 A 
ATOM     21  C   UNL     1      47.794 -42.241  50.195  0.00  0.00    +0.000 A 
ATOM     22  C   UNL     1      47.642 -41.628  48.957  0.00  0.00    +0.000 A 
ATOM     23  C   UNL     1      51.078 -45.277  48.360  0.00  0.00    +0.000 A 
ATOM     24  C   UNL     1      50.941 -44.703  47.103  0.00  0.00    +0.000 A 
BRANCH  22  25
ATOM     25  O   UNL     1      46.750 -40.590  48.896  0.00  0.00    +0.000 OA
ATOM     26  H   UNL     1      46.661 -40.224  49.795  0.00  0.00    +0.000 HD
ENDBRANCH  22  25
ENDBRANCH  14  15
ENDBRANCH   1  14
TORSDOF 5
ENDMDL
MODEL 9
REMARK VINA RESULT:      -6.1     15.198     17.989
REMARK  Name = IPA3.pdbqt.pdb
REMARK  5 active torsions:
REMARK  status: ('A' for Active; 'I' for Inactive)
REMARK    1  A    between atoms: S_1  and  S_2
REMARK    2  A    between atoms: S_1  and  C_15
REMARK    3  A    between atoms: S_2  and  C_3
REMARK    4  A    between atoms: C_10  and  O_13
REMARK    5  A    between atoms: C_22  and  O_25
REMARK                            x       y       z     vdW  Elec       q    Type
REMARK                         _______ _______ _______ _____ _____    ______ ____
ROOT
ATOM      1  S   UNL     1      48.486 -23.268  47.768  0.00  0.00    +0.000 S 
ENDROOT
BRANCH   1   2
ATOM      2  C   UNL     1      49.386 -24.823  47.852  0.00  0.00    +0.000 A 
ATOM      3  C   UNL     1      50.782 -24.849  48.088  0.00  0.00    +0.000 A 
ATOM      4  C   UNL     1      51.439 -26.099  48.174  0.00  0.00    +0.000 A 
ATOM      5  C   UNL     1      51.563 -23.692  48.259  0.00  0.00    +0.000 A 
ATOM      6  C   UNL     1      50.728 -27.285  48.011  0.00  0.00    +0.000 A 
ATOM      7  C   UNL     1      52.809 -26.163  48.429  0.00  0.00    +0.000 A 
ATOM      8  C   UNL     1      49.361 -27.256  47.763  0.00  0.00    +0.000 A 
ATOM      9  C   UNL     1      48.698 -26.036  47.687  0.00  0.00    +0.000 A 
ATOM     10  C   UNL     1      53.553 -25.000  48.601  0.00  0.00    +0.000 A 
ATOM     11  C   UNL     1      52.930 -23.761  48.515  0.00  0.00    +0.000 A 
BRANCH   9  12
ATOM     12  O   UNL     1      47.350 -26.088  47.450  0.00  0.00    +0.000 OA
ATOM     13  H   UNL     1      47.057 -25.191  47.206  0.00  0.00    +0.000 HD
ENDBRANCH   9  12
ENDBRANCH   1   2
BRANCH   1  14
ATOM     14  S   UNL     1      47.845 -23.053  49.715  0.00  0.00    +0.000 S 
BRANCH  14  15
ATOM     15  C   UNL     1      49.298 -22.343  50.501  0.00  0.00    +0.000 A 
ATOM     16  C   UNL     1      50.185 -23.146  51.257  0.00  0.00    +0.000 A 
ATOM     17  C   UNL     1      51.330 -22.546  51.832  0.00  0.00    +0.000 A 
ATOM     18  C   UNL     1      50.002 -24.525  51.465  0.00  0.00    +0.000 A 
ATOM     19  C   UNL     1      51.571 -21.184  51.672  0.00  0.00    +0.000 A 
ATOM     20  C   UNL     1      52.239 -23.309  52.565  0.00  0.00    +0.000 A 
ATOM     21  C   UNL     1      50.690 -20.395  50.941  0.00  0.00    +0.000 A 
ATOM     22  C   UNL     1      49.566 -20.972  50.361  0.00  0.00    +0.000 A 
ATOM     23  C   UNL     1      52.034 -24.675  52.744  0.00  0.00    +0.000 A 
ATOM     24  C   UNL     1      50.912 -25.284  52.195  0.00  0.00    +0.000 A 
BRANCH  22  25
ATOM     25  O   UNL     1      48.750 -20.133  49.649  0.00  0.00    +0.000 OA
ATOM     26  H   UNL     1      47.831 -20.425  49.790  0.00  0.00    +0.000 HD
ENDBRANCH  22  25
ENDBRANCH  14  15
ENDBRANCH   1  14
TORSDOF 5
ENDMDL
