MODEL 1
REMARK VINA RESULT:      -8.0      0.000      0.000
REMARK  Name = 
REMARK  8 active torsions:
REMARK  status: ('A' for Active; 'I' for Inactive)
REMARK    1  A    between atoms: O_1  and  C_21
REMARK    2  A    between atoms: O_1  and  C_38
REMARK    3  A    between atoms: O_4  and  C_26
REMARK    4  A    between atoms: N_7  and  C_11
REMARK    5  A    between atoms: C_26  and  C_33
REMARK    6  A    between atoms: C_29  and  C_37
REMARK    7  A    between atoms: C_33  and  C_42
REMARK    8  A    between atoms: C_37  and  C_43
REMARK                            x       y       z     vdW  Elec       q    Type
REMARK                         _______ _______ _______ _____ _____    ______ ____
ROOT
ATOM      1  O   UNL     1      46.218 -47.785  49.870  0.00  0.00    +0.000 OA
ATOM      2  O   UNL     1      43.727 -50.985  51.010  0.00  0.00    +0.000 OA
ATOM      3  O   UNL     1      47.595 -46.257  50.776  0.00  0.00    +0.000 OA
ATOM      4  N   UNL     1      45.025 -51.452  52.844  0.00  0.00    +0.000 N 
ATOM      5  N   UNL     1      47.063 -52.234  55.690  0.00  0.00    +0.000 NA
ATOM      6  C   UNL     1      46.159 -51.232  53.599  0.00  0.00    +0.000 A 
ATOM      7  C   UNL     1      44.968 -52.898  54.654  0.00  0.00    +0.000 A 
ATOM      8  C   UNL     1      44.189 -52.502  53.433  0.00  0.00    +0.000 C 
ATOM      9  C   UNL     1      46.837 -49.531  52.033  0.00  0.00    +0.000 A 
ATOM     10  C   UNL     1      47.864 -48.521  51.585  0.00  0.00    +0.000 C 
ATOM     11  C   UNL     1      46.130 -52.141  54.739  0.00  0.00    +0.000 A 
ATOM     12  C   UNL     1      45.732 -49.741  51.290  0.00  0.00    +0.000 A 
ATOM     13  C   UNL     1      44.706 -53.850  55.630  0.00  0.00    +0.000 A 
ATOM     14  C   UNL     1      47.063 -50.314  53.243  0.00  0.00    +0.000 A 
ATOM     15  C   UNL     1      44.726 -50.776  51.690  0.00  0.00    +0.000 A 
ATOM     16  C   UNL     1      45.678 -54.001  56.661  0.00  0.00    +0.000 A 
ATOM     17  C   UNL     1      45.444 -48.991  50.037  0.00  0.00    +0.000 C 
ATOM     18  C   UNL     1      46.836 -53.158  56.637  0.00  0.00    +0.000 A 
ATOM     19  C   UNL     1      47.197 -47.422  50.727  0.00  0.00    +0.000 C 
ATOM     20  C   UNL     1      46.552 -55.048  58.680  0.00  0.00    +0.000 A 
ATOM     21  C   UNL     1      45.560 -54.941  57.708  0.00  0.00    +0.000 A 
ATOM     22  C   UNL     1      47.789 -53.285  57.640  0.00  0.00    +0.000 A 
ATOM     23  C   UNL     1      47.660 -54.217  58.670  0.00  0.00    +0.000 A 
ENDROOT
BRANCH  10  24
ATOM     24  O   UNL     1      48.437 -47.903  52.745  0.00  0.00    +0.000 OA
ATOM     25  H   UNL     1      47.976 -48.289  53.517  0.00  0.00    +0.000 HD
ENDBRANCH  10  24
BRANCH  10  26
ATOM     26  C   UNL     1      48.985 -49.211  50.779  0.00  0.00    +0.000 C 
ATOM     27  C   UNL     1      49.730 -48.292  49.815  0.00  0.00    +0.000 C 
ENDBRANCH  10  26
BRANCH  13  28
ATOM     28  C   UNL     1      43.454 -54.689  55.543  0.00  0.00    +0.000 C 
ATOM     29  C   UNL     1      42.246 -53.980  56.136  0.00  0.00    +0.000 C 
ENDBRANCH  13  28
BRANCH  20  30
ATOM     30  O   UNL     1      46.385 -55.957  59.726  0.00  0.00    +0.000 OA
BRANCH  30  38
ATOM     31  O   UNL     1      47.241 -57.949  58.911  0.00  0.00    +0.000 OA
ATOM     32  N   UNL     1      44.995 -57.771  59.385  0.00  0.00    +0.000 N 
ATOM     33  C   UNL     1      42.290 -58.522  58.560  0.00  0.00    +0.000 C 
ATOM     34  C   UNL     1      42.683 -57.073  58.941  0.00  0.00    +0.000 C 
ATOM     35  C   UNL     1      43.559 -59.255  58.058  0.00  0.00    +0.000 C 
ATOM     36  C   UNL     1      43.865 -57.019  59.905  0.00  0.00    +0.000 C 
ATOM     37  C   UNL     1      44.720 -59.153  59.042  0.00  0.00    +0.000 C 
ATOM     38  C   UNL     1      46.290 -57.282  59.309  0.00  0.00    +0.000 C 
BRANCH  33  39
ATOM     39  N   UNL     1      41.189 -58.558  57.546  0.00  0.00    +0.000 NA
ATOM     40  C   UNL     1      41.507 -57.746  56.353  0.00  0.00    +0.000 C 
ATOM     41  C   UNL     1      40.848 -59.937  57.140  0.00  0.00    +0.000 C 
ATOM     42  C   UNL     1      40.380 -57.745  55.317  0.00  0.00    +0.000 C 
ATOM     43  C   UNL     1      39.706 -59.992  56.123  0.00  0.00    +0.000 C 
ATOM     44  C   UNL     1      40.013 -59.156  54.893  0.00  0.00    +0.000 C 
ENDBRANCH  33  39
ENDBRANCH  30  38
ENDBRANCH  20  30
TORSDOF 6
ENDMDL
MODEL 2
REMARK VINA RESULT:      -7.8      3.349      6.017
REMARK  Name = 
REMARK  8 active torsions:
REMARK  status: ('A' for Active; 'I' for Inactive)
REMARK    1  A    between atoms: O_1  and  C_21
REMARK    2  A    between atoms: O_1  and  C_38
REMARK    3  A    between atoms: O_4  and  C_26
REMARK    4  A    between atoms: N_7  and  C_11
REMARK    5  A    between atoms: C_26  and  C_33
REMARK    6  A    between atoms: C_29  and  C_37
REMARK    7  A    between atoms: C_33  and  C_42
REMARK    8  A    between atoms: C_37  and  C_43
REMARK                            x       y       z     vdW  Elec       q    Type
REMARK                         _______ _______ _______ _____ _____    ______ ____
ROOT
ATOM      1  O   UNL     1      45.862 -45.502  50.014  0.00  0.00    +0.000 OA
ATOM      2  O   UNL     1      43.956 -49.259  49.953  0.00  0.00    +0.000 OA
ATOM      3  O   UNL     1      46.773 -44.050  51.466  0.00  0.00    +0.000 OA
ATOM      4  N   UNL     1      45.085 -49.955  51.827  0.00  0.00    +0.000 N 
ATOM      5  N   UNL     1      46.871 -51.087  54.724  0.00  0.00    +0.000 NA
ATOM      6  C   UNL     1      46.047 -49.749  52.794  0.00  0.00    +0.000 A 
ATOM      7  C   UNL     1      45.101 -51.806  53.222  0.00  0.00    +0.000 A 
ATOM      8  C   UNL     1      44.415 -51.246  52.010  0.00  0.00    +0.000 C 
ATOM      9  C   UNL     1      46.551 -47.615  51.795  0.00  0.00    +0.000 A 
ATOM     10  C   UNL     1      47.398 -46.367  51.771  0.00  0.00    +0.000 C 
ATOM     11  C   UNL     1      46.064 -50.912  53.675  0.00  0.00    +0.000 A 
ATOM     12  C   UNL     1      45.613 -47.810  50.847  0.00  0.00    +0.000 A 
ATOM     13  C   UNL     1      44.920 -53.006  53.896  0.00  0.00    +0.000 A 
ATOM     14  C   UNL     1      46.781 -48.632  52.815  0.00  0.00    +0.000 A 
ATOM     15  C   UNL     1      44.799 -49.067  50.823  0.00  0.00    +0.000 A 
ATOM     16  C   UNL     1      45.767 -53.250  55.016  0.00  0.00    +0.000 A 
ATOM     17  C   UNL     1      45.336 -46.823  49.768  0.00  0.00    +0.000 C 
ATOM     18  C   UNL     1      46.722 -52.247  55.382  0.00  0.00    +0.000 A 
ATOM     19  C   UNL     1      46.632 -45.213  51.085  0.00  0.00    +0.000 C 
ATOM     20  C   UNL     1      46.580 -54.618  56.862  0.00  0.00    +0.000 A 
ATOM     21  C   UNL     1      45.715 -54.433  55.785  0.00  0.00    +0.000 A 
ATOM     22  C   UNL     1      47.549 -52.466  56.477  0.00  0.00    +0.000 A 
ATOM     23  C   UNL     1      47.487 -53.638  57.230  0.00  0.00    +0.000 A 
ENDROOT
BRANCH  10  24
ATOM     24  O   UNL     1      47.684 -45.979  53.122  0.00  0.00    +0.000 OA
ATOM     25  H   UNL     1      48.549 -45.521  53.097  0.00  0.00    +0.000 HD
ENDBRANCH  10  24
BRANCH  10  26
ATOM     26  C   UNL     1      48.727 -46.629  51.032  0.00  0.00    +0.000 C 
ATOM     27  C   UNL     1      49.762 -47.401  51.846  0.00  0.00    +0.000 C 
ENDBRANCH  10  26
BRANCH  13  28
ATOM     28  C   UNL     1      43.887 -53.992  53.408  0.00  0.00    +0.000 C 
ATOM     29  C   UNL     1      42.542 -53.799  54.092  0.00  0.00    +0.000 C 
ENDBRANCH  13  28
BRANCH  20  30
ATOM     30  O   UNL     1      46.474 -55.779  57.628  0.00  0.00    +0.000 OA
BRANCH  30  38
ATOM     31  O   UNL     1      47.250 -55.473  59.789  0.00  0.00    +0.000 OA
ATOM     32  N   UNL     1      48.602 -56.466  58.211  0.00  0.00    +0.000 N 
ATOM     33  C   UNL     1      51.334 -56.727  57.197  0.00  0.00    +0.000 C 
ATOM     34  C   UNL     1      50.114 -56.476  56.276  0.00  0.00    +0.000 C 
ATOM     35  C   UNL     1      51.006 -56.166  58.604  0.00  0.00    +0.000 C 
ATOM     36  C   UNL     1      48.810 -56.997  56.874  0.00  0.00    +0.000 C 
ATOM     37  C   UNL     1      49.683 -56.696  59.149  0.00  0.00    +0.000 C 
ATOM     38  C   UNL     1      47.424 -55.873  58.641  0.00  0.00    +0.000 C 
BRANCH  33  39
ATOM     39  N   UNL     1      52.590 -56.132  56.641  0.00  0.00    +0.000 NA
ATOM     40  C   UNL     1      53.788 -56.560  57.395  0.00  0.00    +0.000 C 
ATOM     41  C   UNL     1      52.765 -56.437  55.205  0.00  0.00    +0.000 C 
ATOM     42  C   UNL     1      55.080 -55.938  56.860  0.00  0.00    +0.000 C 
ATOM     43  C   UNL     1      54.032 -55.813  54.615  0.00  0.00    +0.000 C 
ATOM     44  C   UNL     1      55.272 -56.236  55.383  0.00  0.00    +0.000 C 
ENDBRANCH  33  39
ENDBRANCH  30  38
ENDBRANCH  20  30
TORSDOF 6
ENDMDL
MODEL 3
REMARK VINA RESULT:      -7.8      5.483     14.036
REMARK  Name = 
REMARK  8 active torsions:
REMARK  status: ('A' for Active; 'I' for Inactive)
REMARK    1  A    between atoms: O_1  and  C_21
REMARK    2  A    between atoms: O_1  and  C_38
REMARK    3  A    between atoms: O_4  and  C_26
REMARK    4  A    between atoms: N_7  and  C_11
REMARK    5  A    between atoms: C_26  and  C_33
REMARK    6  A    between atoms: C_29  and  C_37
REMARK    7  A    between atoms: C_33  and  C_42
REMARK    8  A    between atoms: C_37  and  C_43
REMARK                            x       y       z     vdW  Elec       q    Type
REMARK                         _______ _______ _______ _____ _____    ______ ____
ROOT
ATOM      1  O   UNL     1      45.437 -55.831  55.848  0.00  0.00    +0.000 OA
ATOM      2  O   UNL     1      48.651 -54.112  53.735  0.00  0.00    +0.000 OA
ATOM      3  O   UNL     1      43.655 -55.227  57.076  0.00  0.00    +0.000 OA
ATOM      4  N   UNL     1      47.444 -52.213  53.279  0.00  0.00    +0.000 N 
ATOM      5  N   UNL     1      45.566 -49.256  52.510  0.00  0.00    +0.000 NA
ATOM      6  C   UNL     1      46.259 -51.507  53.314  0.00  0.00    +0.000 A 
ATOM      7  C   UNL     1      47.809 -50.158  52.270  0.00  0.00    +0.000 A 
ATOM      8  C   UNL     1      48.506 -51.438  52.632  0.00  0.00    +0.000 C 
ATOM      9  C   UNL     1      45.218 -53.368  54.436  0.00  0.00    +0.000 A 
ATOM     10  C   UNL     1      43.976 -53.995  55.019  0.00  0.00    +0.000 C 
ATOM     11  C   UNL     1      46.481 -50.213  52.678  0.00  0.00    +0.000 A 
ATOM     12  C   UNL     1      46.372 -54.063  54.406  0.00  0.00    +0.000 A 
ATOM     13  C   UNL     1      48.274 -49.019  51.628  0.00  0.00    +0.000 A 
ATOM     14  C   UNL     1      45.157 -52.028  53.862  0.00  0.00    +0.000 A 
ATOM     15  C   UNL     1      47.602 -53.478  53.783  0.00  0.00    +0.000 A 
ATOM     16  C   UNL     1      47.332 -47.972  51.410  0.00  0.00    +0.000 A 
ATOM     17  C   UNL     1      46.503 -55.439  54.958  0.00  0.00    +0.000 C 
ATOM     18  C   UNL     1      45.991 -48.151  51.880  0.00  0.00    +0.000 A 
ATOM     19  C   UNL     1      44.358 -55.054  56.079  0.00  0.00    +0.000 C 
ATOM     20  C   UNL     1      46.683 -45.783  50.559  0.00  0.00    +0.000 A 
ATOM     21  C   UNL     1      47.653 -46.764  50.753  0.00  0.00    +0.000 A 
ATOM     22  C   UNL     1      45.063 -47.136  51.683  0.00  0.00    +0.000 A 
ATOM     23  C   UNL     1      45.393 -45.946  51.034  0.00  0.00    +0.000 A 
ENDROOT
BRANCH  10  24
ATOM     24  O   UNL     1      43.201 -52.973  55.661  0.00  0.00    +0.000 OA
ATOM     25  H   UNL     1      43.804 -52.213  55.788  0.00  0.00    +0.000 HD
ENDBRANCH  10  24
BRANCH  10  26
ATOM     26  C   UNL     1      43.126 -54.646  53.907  0.00  0.00    +0.000 C 
ATOM     27  C   UNL     1      42.817 -53.728  52.728  0.00  0.00    +0.000 C 
ENDBRANCH  10  26
BRANCH  13  28
ATOM     28  C   UNL     1      49.710 -48.951  51.168  0.00  0.00    +0.000 C 
ATOM     29  C   UNL     1      50.528 -47.961  51.984  0.00  0.00    +0.000 C 
ENDBRANCH  13  28
BRANCH  20  30
ATOM     30  O   UNL     1      47.043 -44.583  49.944  0.00  0.00    +0.000 OA
BRANCH  30  38
ATOM     31  O   UNL     1      46.970 -43.517  51.999  0.00  0.00    +0.000 OA
ATOM     32  N   UNL     1      48.195 -42.608  50.275  0.00  0.00    +0.000 N 
ATOM     33  C   UNL     1      49.025 -40.134  48.949  0.00  0.00    +0.000 C 
ATOM     34  C   UNL     1      48.488 -41.366  48.177  0.00  0.00    +0.000 C 
ATOM     35  C   UNL     1      48.441 -40.168  50.385  0.00  0.00    +0.000 C 
ATOM     36  C   UNL     1      48.724 -42.676  48.923  0.00  0.00    +0.000 C 
ATOM     37  C   UNL     1      48.681 -41.504  51.081  0.00  0.00    +0.000 C 
ATOM     38  C   UNL     1      47.369 -43.568  50.839  0.00  0.00    +0.000 C 
BRANCH  33  39
ATOM     39  N   UNL     1      48.707 -38.850  48.250  0.00  0.00    +0.000 NA
ATOM     40  C   UNL     1      49.324 -37.685  48.920  0.00  0.00    +0.000 C 
ATOM     41  C   UNL     1      49.100 -38.876  46.825  0.00  0.00    +0.000 C 
ATOM     42  C   UNL     1      48.985 -36.358  48.237  0.00  0.00    +0.000 C 
ATOM     43  C   UNL     1      48.757 -37.579  46.089  0.00  0.00    +0.000 C 
ATOM     44  C   UNL     1      49.377 -36.371  46.770  0.00  0.00    +0.000 C 
ENDBRANCH  33  39
ENDBRANCH  30  38
ENDBRANCH  20  30
TORSDOF 6
ENDMDL
MODEL 4
REMARK VINA RESULT:      -7.8      3.431     11.925
REMARK  Name = 
REMARK  8 active torsions:
REMARK  status: ('A' for Active; 'I' for Inactive)
REMARK    1  A    between atoms: O_1  and  C_21
REMARK    2  A    between atoms: O_1  and  C_38
REMARK    3  A    between atoms: O_4  and  C_26
REMARK    4  A    between atoms: N_7  and  C_11
REMARK    5  A    between atoms: C_26  and  C_33
REMARK    6  A    between atoms: C_29  and  C_37
REMARK    7  A    between atoms: C_33  and  C_42
REMARK    8  A    between atoms: C_37  and  C_43
REMARK                            x       y       z     vdW  Elec       q    Type
REMARK                         _______ _______ _______ _____ _____    ______ ____
ROOT
ATOM      1  O   UNL     1      41.147 -59.998  57.161  0.00  0.00    +0.000 OA
ATOM      2  O   UNL     1      44.643 -58.118  58.574  0.00  0.00    +0.000 OA
ATOM      3  O   UNL     1      39.215 -59.502  56.127  0.00  0.00    +0.000 OA
ATOM      4  N   UNL     1      44.500 -56.470  56.983  0.00  0.00    +0.000 N 
ATOM      5  N   UNL     1      44.330 -53.910  54.477  0.00  0.00    +0.000 NA
ATOM      6  C   UNL     1      43.903 -55.934  55.861  0.00  0.00    +0.000 A 
ATOM      7  C   UNL     1      45.628 -54.520  56.439  0.00  0.00    +0.000 A 
ATOM      8  C   UNL     1      45.619 -55.640  57.438  0.00  0.00    +0.000 C 
ATOM      9  C   UNL     1      42.346 -57.773  55.847  0.00  0.00    +0.000 A 
ATOM     10  C   UNL     1      41.199 -58.491  55.181  0.00  0.00    +0.000 C 
ATOM     11  C   UNL     1      44.609 -54.707  55.512  0.00  0.00    +0.000 A 
ATOM     12  C   UNL     1      42.925 -58.303  56.943  0.00  0.00    +0.000 A 
ATOM     13  C   UNL     1      46.455 -53.412  56.321  0.00  0.00    +0.000 A 
ATOM     14  C   UNL     1      42.859 -56.532  55.278  0.00  0.00    +0.000 A 
ATOM     15  C   UNL     1      44.099 -57.633  57.588  0.00  0.00    +0.000 A 
ATOM     16  C   UNL     1      46.210 -52.537  55.224  0.00  0.00    +0.000 A 
ATOM     17  C   UNL     1      42.464 -59.572  57.568  0.00  0.00    +0.000 C 
ATOM     18  C   UNL     1      45.127 -52.840  54.337  0.00  0.00    +0.000 A 
ATOM     19  C   UNL     1      40.435 -59.354  56.212  0.00  0.00    +0.000 C 
ATOM     20  C   UNL     1      46.699 -50.574  53.865  0.00  0.00    +0.000 A 
ATOM     21  C   UNL     1      46.982 -51.383  54.964  0.00  0.00    +0.000 A 
ATOM     22  C   UNL     1      44.869 -51.992  53.267  0.00  0.00    +0.000 A 
ATOM     23  C   UNL     1      45.637 -50.854  53.022  0.00  0.00    +0.000 A 
ENDROOT
BRANCH  10  24
ATOM     24  O   UNL     1      40.292 -57.515  54.649  0.00  0.00    +0.000 OA
ATOM     25  H   UNL     1      40.192 -57.725  53.699  0.00  0.00    +0.000 HD
ENDBRANCH  10  24
BRANCH  10  26
ATOM     26  C   UNL     1      41.713 -59.379  54.028  0.00  0.00    +0.000 C 
ATOM     27  C   UNL     1      41.141 -59.029  52.657  0.00  0.00    +0.000 C 
ENDBRANCH  10  26
BRANCH  13  28
ATOM     28  C   UNL     1      47.574 -53.203  57.313  0.00  0.00    +0.000 C 
ATOM     29  C   UNL     1      48.858 -53.897  56.885  0.00  0.00    +0.000 C 
ENDBRANCH  13  28
BRANCH  20  30
ATOM     30  O   UNL     1      47.453 -49.418  53.660  0.00  0.00    +0.000 OA
BRANCH  30  38
ATOM     31  O   UNL     1      48.692 -50.117  51.833  0.00  0.00    +0.000 OA
ATOM     32  N   UNL     1      47.532 -48.129  51.744  0.00  0.00    +0.000 N 
ATOM     33  C   UNL     1      47.555 -45.366  50.783  0.00  0.00    +0.000 C 
ATOM     34  C   UNL     1      47.167 -45.751  52.233  0.00  0.00    +0.000 C 
ATOM     35  C   UNL     1      48.497 -46.461  50.223  0.00  0.00    +0.000 C 
ATOM     36  C   UNL     1      46.615 -47.170  52.335  0.00  0.00    +0.000 C 
ATOM     37  C   UNL     1      47.914 -47.863  50.370  0.00  0.00    +0.000 C 
ATOM     38  C   UNL     1      47.953 -49.294  52.367  0.00  0.00    +0.000 C 
BRANCH  33  39
ATOM     39  N   UNL     1      48.177 -44.006  50.710  0.00  0.00    +0.000 NA
ATOM     40  C   UNL     1      48.248 -43.502  49.322  0.00  0.00    +0.000 C 
ATOM     41  C   UNL     1      47.479 -43.025  51.566  0.00  0.00    +0.000 C 
ATOM     42  C   UNL     1      48.910 -42.125  49.223  0.00  0.00    +0.000 C 
ATOM     43  C   UNL     1      48.121 -41.636  51.523  0.00  0.00    +0.000 C 
ATOM     44  C   UNL     1      48.208 -41.106  50.103  0.00  0.00    +0.000 C 
ENDBRANCH  33  39
ENDBRANCH  30  38
ENDBRANCH  20  30
TORSDOF 6
ENDMDL
MODEL 5
REMARK VINA RESULT:      -7.6      2.735     11.865
REMARK  Name = 
REMARK  8 active torsions:
REMARK  status: ('A' for Active; 'I' for Inactive)
REMARK    1  A    between atoms: O_1  and  C_21
REMARK    2  A    between atoms: O_1  and  C_38
REMARK    3  A    between atoms: O_4  and  C_26
REMARK    4  A    between atoms: N_7  and  C_11
REMARK    5  A    between atoms: C_26  and  C_33
REMARK    6  A    between atoms: C_29  and  C_37
REMARK    7  A    between atoms: C_33  and  C_42
REMARK    8  A    between atoms: C_37  and  C_43
REMARK                            x       y       z     vdW  Elec       q    Type
REMARK                         _______ _______ _______ _____ _____    ______ ____
ROOT
ATOM      1  O   UNL     1      45.748 -58.276  62.107  0.00  0.00    +0.000 OA
ATOM      2  O   UNL     1      49.012 -57.286  59.634  0.00  0.00    +0.000 OA
ATOM      3  O   UNL     1      43.805 -57.412  62.835  0.00  0.00    +0.000 OA
ATOM      4  N   UNL     1      47.709 -55.934  58.314  0.00  0.00    +0.000 N 
ATOM      5  N   UNL     1      45.686 -53.854  56.205  0.00  0.00    +0.000 NA
ATOM      6  C   UNL     1      46.473 -55.429  57.964  0.00  0.00    +0.000 A 
ATOM      7  C   UNL     1      48.008 -54.498  56.519  0.00  0.00    +0.000 A 
ATOM      8  C   UNL     1      48.766 -55.400  57.451  0.00  0.00    +0.000 C 
ATOM      9  C   UNL     1      45.476 -56.722  59.736  0.00  0.00    +0.000 A 
ATOM     10  C   UNL     1      44.236 -57.173  60.467  0.00  0.00    +0.000 C 
ATOM     11  C   UNL     1      46.654 -54.526  56.833  0.00  0.00    +0.000 A 
ATOM     12  C   UNL     1      46.680 -57.219  60.084  0.00  0.00    +0.000 A 
ATOM     13  C   UNL     1      48.443 -53.708  55.465  0.00  0.00    +0.000 A 
ATOM     14  C   UNL     1      45.367 -55.785  58.624  0.00  0.00    +0.000 A 
ATOM     15  C   UNL     1      47.916 -56.823  59.336  0.00  0.00    +0.000 A 
ATOM     16  C   UNL     1      47.447 -52.980  54.751  0.00  0.00    +0.000 A 
ATOM     17  C   UNL     1      46.864 -58.190  61.197  0.00  0.00    +0.000 C 
ATOM     18  C   UNL     1      46.083 -53.093  55.174  0.00  0.00    +0.000 A 
ATOM     19  C   UNL     1      44.591 -57.610  61.906  0.00  0.00    +0.000 C 
ATOM     20  C   UNL     1      46.714 -51.476  52.979  0.00  0.00    +0.000 A 
ATOM     21  C   UNL     1      47.735 -52.152  53.644  0.00  0.00    +0.000 A 
ATOM     22  C   UNL     1      45.101 -52.383  54.495  0.00  0.00    +0.000 A 
ATOM     23  C   UNL     1      45.399 -51.566  53.403  0.00  0.00    +0.000 A 
ENDROOT
BRANCH  10  24
ATOM     24  O   UNL     1      43.319 -56.073  60.541  0.00  0.00    +0.000 OA
ATOM     25  H   UNL     1      43.404 -55.707  61.445  0.00  0.00    +0.000 HD
ENDBRANCH  10  24
BRANCH  10  26
ATOM     26  C   UNL     1      43.560 -58.339  59.714  0.00  0.00    +0.000 C 
ATOM     27  C   UNL     1      42.274 -57.960  58.985  0.00  0.00    +0.000 C 
ENDBRANCH  10  26
BRANCH  13  28
ATOM     28  C   UNL     1      49.908 -53.678  55.104  0.00  0.00    +0.000 C 
ATOM     29  C   UNL     1      50.275 -54.761  54.101  0.00  0.00    +0.000 C 
ENDBRANCH  13  28
BRANCH  20  30
ATOM     30  O   UNL     1      47.037 -50.631  51.917  0.00  0.00    +0.000 OA
BRANCH  30  38
ATOM     31  O   UNL     1      45.145 -50.450  50.593  0.00  0.00    +0.000 OA
ATOM     32  N   UNL     1      45.855 -48.647  51.838  0.00  0.00    +0.000 N 
ATOM     33  C   UNL     1      46.162 -45.738  51.911  0.00  0.00    +0.000 C 
ATOM     34  C   UNL     1      47.291 -46.716  52.324  0.00  0.00    +0.000 C 
ATOM     35  C   UNL     1      45.233 -46.464  50.905  0.00  0.00    +0.000 C 
ATOM     36  C   UNL     1      46.755 -48.058  52.814  0.00  0.00    +0.000 C 
ATOM     37  C   UNL     1      44.744 -47.810  51.428  0.00  0.00    +0.000 C 
ATOM     38  C   UNL     1      45.943 -49.955  51.384  0.00  0.00    +0.000 C 
BRANCH  33  39
ATOM     39  N   UNL     1      46.702 -44.461  51.348  0.00  0.00    +0.000 NA
ATOM     40  C   UNL     1      47.826 -43.932  52.151  0.00  0.00    +0.000 C 
ATOM     41  C   UNL     1      47.116 -44.603  49.937  0.00  0.00    +0.000 C 
ATOM     42  C   UNL     1      48.372 -42.609  51.609  0.00  0.00    +0.000 C 
ATOM     43  C   UNL     1      47.646 -43.297  49.339  0.00  0.00    +0.000 C 
ATOM     44  C   UNL     1      48.796 -42.736  50.156  0.00  0.00    +0.000 C 
ENDBRANCH  33  39
ENDBRANCH  30  38
ENDBRANCH  20  30
TORSDOF 6
ENDMDL
MODEL 6
REMARK VINA RESULT:      -7.6      4.315     12.969
REMARK  Name = 
REMARK  8 active torsions:
REMARK  status: ('A' for Active; 'I' for Inactive)
REMARK    1  A    between atoms: O_1  and  C_21
REMARK    2  A    between atoms: O_1  and  C_38
REMARK    3  A    between atoms: O_4  and  C_26
REMARK    4  A    between atoms: N_7  and  C_11
REMARK    5  A    between atoms: C_26  and  C_33
REMARK    6  A    between atoms: C_29  and  C_37
REMARK    7  A    between atoms: C_33  and  C_42
REMARK    8  A    between atoms: C_37  and  C_43
REMARK                            x       y       z     vdW  Elec       q    Type
REMARK                         _______ _______ _______ _____ _____    ______ ____
ROOT
ATOM      1  O   UNL     1      44.093 -57.396  56.370  0.00  0.00    +0.000 OA
ATOM      2  O   UNL     1      42.032 -55.094  53.506  0.00  0.00    +0.000 OA
ATOM      3  O   UNL     1      46.190 -57.849  57.040  0.00  0.00    +0.000 OA
ATOM      4  N   UNL     1      43.695 -53.513  53.457  0.00  0.00    +0.000 N 
ATOM      5  N   UNL     1      46.256 -51.002  53.398  0.00  0.00    +0.000 NA
ATOM      6  C   UNL     1      44.881 -53.002  53.946  0.00  0.00    +0.000 A 
ATOM      7  C   UNL     1      44.183 -51.582  52.271  0.00  0.00    +0.000 A 
ATOM      8  C   UNL     1      43.163 -52.678  52.377  0.00  0.00    +0.000 C 
ATOM      9  C   UNL     1      44.992 -54.835  55.507  0.00  0.00    +0.000 A 
ATOM     10  C   UNL     1      45.694 -55.513  56.657  0.00  0.00    +0.000 C 
ATOM     11  C   UNL     1      45.193 -51.786  53.205  0.00  0.00    +0.000 A 
ATOM     12  C   UNL     1      43.835 -55.339  55.035  0.00  0.00    +0.000 A 
ATOM     13  C   UNL     1      44.247 -50.476  51.435  0.00  0.00    +0.000 A 
ATOM     14  C   UNL     1      45.541 -53.609  54.938  0.00  0.00    +0.000 A 
ATOM     15  C   UNL     1      43.095 -54.651  53.928  0.00  0.00    +0.000 A 
ATOM     16  C   UNL     1      45.355 -49.598  51.610  0.00  0.00    +0.000 A 
ATOM     17  C   UNL     1      43.210 -56.576  55.577  0.00  0.00    +0.000 C 
ATOM     18  C   UNL     1      46.330 -49.919  52.609  0.00  0.00    +0.000 A 
ATOM     19  C   UNL     1      45.352 -57.020  56.681  0.00  0.00    +0.000 C 
ATOM     20  C   UNL     1      46.642 -47.598  51.078  0.00  0.00    +0.000 A 
ATOM     21  C   UNL     1      45.542 -48.423  50.849  0.00  0.00    +0.000 A 
ATOM     22  C   UNL     1      47.422 -49.078  52.786  0.00  0.00    +0.000 A 
ATOM     23  C   UNL     1      47.597 -47.922  52.027  0.00  0.00    +0.000 A 
ENDROOT
BRANCH  10  24
ATOM     24  O   UNL     1      47.111 -55.373  56.478  0.00  0.00    +0.000 OA
ATOM     25  H   UNL     1      47.500 -56.243  56.700  0.00  0.00    +0.000 HD
ENDBRANCH  10  24
BRANCH  10  26
ATOM     26  C   UNL     1      45.292 -54.859  57.996  0.00  0.00    +0.000 C 
ATOM     27  C   UNL     1      45.615 -55.696  59.231  0.00  0.00    +0.000 C 
ENDBRANCH  10  26
BRANCH  13  28
ATOM     28  C   UNL     1      43.151 -50.236  50.425  0.00  0.00    +0.000 C 
ATOM     29  C   UNL     1      42.068 -49.311  50.962  0.00  0.00    +0.000 C 
ENDBRANCH  13  28
BRANCH  20  30
ATOM     30  O   UNL     1      46.821 -46.468  50.279  0.00  0.00    +0.000 OA
BRANCH  30  38
ATOM     31  O   UNL     1      45.684 -44.970  51.631  0.00  0.00    +0.000 OA
ATOM     32  N   UNL     1      47.765 -44.426  50.808  0.00  0.00    +0.000 N 
ATOM     33  C   UNL     1      49.454 -42.285  49.745  0.00  0.00    +0.000 C 
ATOM     34  C   UNL     1      49.340 -43.679  49.078  0.00  0.00    +0.000 C 
ATOM     35  C   UNL     1      48.149 -42.017  50.538  0.00  0.00    +0.000 C 
ATOM     36  C   UNL     1      48.967 -44.777  50.070  0.00  0.00    +0.000 C 
ATOM     37  C   UNL     1      47.806 -43.151  51.498  0.00  0.00    +0.000 C 
ATOM     38  C   UNL     1      46.672 -45.266  50.965  0.00  0.00    +0.000 C 
BRANCH  33  39
ATOM     39  N   UNL     1      49.730 -41.205  48.747  0.00  0.00    +0.000 NA
ATOM     40  C   UNL     1      49.137 -41.504  47.426  0.00  0.00    +0.000 C 
ATOM     41  C   UNL     1      49.271 -39.880  49.215  0.00  0.00    +0.000 C 
ATOM     42  C   UNL     1      49.435 -40.425  46.382  0.00  0.00    +0.000 C 
ATOM     43  C   UNL     1      49.571 -38.760  48.217  0.00  0.00    +0.000 C 
ATOM     44  C   UNL     1      48.975 -39.055  46.852  0.00  0.00    +0.000 C 
ENDBRANCH  33  39
ENDBRANCH  30  38
ENDBRANCH  20  30
TORSDOF 6
ENDMDL
MODEL 7
REMARK VINA RESULT:      -7.4      3.568     12.255
REMARK  Name = 
REMARK  8 active torsions:
REMARK  status: ('A' for Active; 'I' for Inactive)
REMARK    1  A    between atoms: O_1  and  C_21
REMARK    2  A    between atoms: O_1  and  C_38
REMARK    3  A    between atoms: O_4  and  C_26
REMARK    4  A    between atoms: N_7  and  C_11
REMARK    5  A    between atoms: C_26  and  C_33
REMARK    6  A    between atoms: C_29  and  C_37
REMARK    7  A    between atoms: C_33  and  C_42
REMARK    8  A    between atoms: C_37  and  C_43
REMARK                            x       y       z     vdW  Elec       q    Type
REMARK                         _______ _______ _______ _____ _____    ______ ____
ROOT
ATOM      1  O   UNL     1      44.835 -58.890  57.834  0.00  0.00    +0.000 OA
ATOM      2  O   UNL     1      42.430 -56.744  55.120  0.00  0.00    +0.000 OA
ATOM      3  O   UNL     1      47.000 -59.229  58.331  0.00  0.00    +0.000 OA
ATOM      4  N   UNL     1      44.003 -55.087  54.907  0.00  0.00    +0.000 N 
ATOM      5  N   UNL     1      46.423 -52.458  54.594  0.00  0.00    +0.000 NA
ATOM      6  C   UNL     1      45.199 -54.511  55.286  0.00  0.00    +0.000 A 
ATOM      7  C   UNL     1      44.294 -53.158  53.655  0.00  0.00    +0.000 A 
ATOM      8  C   UNL     1      43.341 -54.299  53.864  0.00  0.00    +0.000 C 
ATOM      9  C   UNL     1      45.531 -56.306  56.859  0.00  0.00    +0.000 A 
ATOM     10  C   UNL     1      46.359 -56.927  57.956  0.00  0.00    +0.000 C 
ATOM     11  C   UNL     1      45.387 -53.295  54.503  0.00  0.00    +0.000 A 
ATOM     12  C   UNL     1      44.364 -56.874  56.494  0.00  0.00    +0.000 A 
ATOM     13  C   UNL     1      44.233 -52.067  52.800  0.00  0.00    +0.000 A 
ATOM     14  C   UNL     1      45.968 -55.066  56.228  0.00  0.00    +0.000 A 
ATOM     15  C   UNL     1      43.502 -56.243  55.445  0.00  0.00    +0.000 A 
ATOM     16  C   UNL     1      45.307 -51.133  52.868  0.00  0.00    +0.000 A 
ATOM     17  C   UNL     1      43.849 -58.128  57.106  0.00  0.00    +0.000 C 
ATOM     18  C   UNL     1      46.378 -51.388  53.785  0.00  0.00    +0.000 A 
ATOM     19  C   UNL     1      46.095 -58.448  58.032  0.00  0.00    +0.000 C 
ATOM     20  C   UNL     1      46.445 -49.085  52.198  0.00  0.00    +0.000 A 
ATOM     21  C   UNL     1      45.372 -49.966  52.076  0.00  0.00    +0.000 A 
ATOM     22  C   UNL     1      47.437 -50.493  53.857  0.00  0.00    +0.000 A 
ATOM     23  C   UNL     1      47.491 -49.344  53.068  0.00  0.00    +0.000 A 
ENDROOT
BRANCH  10  24
ATOM     24  O   UNL     1      47.747 -56.724  57.656  0.00  0.00    +0.000 OA
ATOM     25  H   UNL     1      48.242 -57.364  58.206  0.00  0.00    +0.000 HD
ENDBRANCH  10  24
BRANCH  10  26
ATOM     26  C   UNL     1      46.039 -56.268  59.315  0.00  0.00    +0.000 C 
ATOM     27  C   UNL     1      47.153 -55.385  59.869  0.00  0.00    +0.000 C 
ENDBRANCH  10  26
BRANCH  13  28
ATOM     28  C   UNL     1      43.046 -51.898  51.883  0.00  0.00    +0.000 C 
ATOM     29  C   UNL     1      43.277 -52.537  50.522  0.00  0.00    +0.000 C 
ENDBRANCH  13  28
BRANCH  20  30
ATOM     30  O   UNL     1      46.501 -47.963  51.370  0.00  0.00    +0.000 OA
BRANCH  30  38
ATOM     31  O   UNL     1      45.569 -46.445  52.851  0.00  0.00    +0.000 OA
ATOM     32  N   UNL     1      47.520 -45.923  51.745  0.00  0.00    +0.000 N 
ATOM     33  C   UNL     1      49.059 -43.803  50.441  0.00  0.00    +0.000 C 
ATOM     34  C   UNL     1      48.847 -45.202  49.809  0.00  0.00    +0.000 C 
ATOM     35  C   UNL     1      47.877 -43.519  51.402  0.00  0.00    +0.000 C 
ATOM     36  C   UNL     1      48.607 -46.288  50.853  0.00  0.00    +0.000 C 
ATOM     37  C   UNL     1      47.662 -44.642  52.411  0.00  0.00    +0.000 C 
ATOM     38  C   UNL     1      46.454 -46.754  52.058  0.00  0.00    +0.000 C 
BRANCH  33  39
ATOM     39  N   UNL     1      49.202 -42.733  49.404  0.00  0.00    +0.000 NA
ATOM     40  C   UNL     1      48.767 -43.193  48.068  0.00  0.00    +0.000 C 
ATOM     41  C   UNL     1      48.478 -41.499  49.770  0.00  0.00    +0.000 C 
ATOM     42  C   UNL     1      48.935 -42.123  46.987  0.00  0.00    +0.000 C 
ATOM     43  C   UNL     1      48.637 -40.385  48.732  0.00  0.00    +0.000 C 
ATOM     44  C   UNL     1      48.201 -40.844  47.352  0.00  0.00    +0.000 C 
ENDBRANCH  33  39
ENDBRANCH  30  38
ENDBRANCH  20  30
TORSDOF 6
ENDMDL
MODEL 8
REMARK VINA RESULT:      -7.3      5.049     11.813
REMARK  Name = 
REMARK  8 active torsions:
REMARK  status: ('A' for Active; 'I' for Inactive)
REMARK    1  A    between atoms: O_1  and  C_21
REMARK    2  A    between atoms: O_1  and  C_38
REMARK    3  A    between atoms: O_4  and  C_26
REMARK    4  A    between atoms: N_7  and  C_11
REMARK    5  A    between atoms: C_26  and  C_33
REMARK    6  A    between atoms: C_29  and  C_37
REMARK    7  A    between atoms: C_33  and  C_42
REMARK    8  A    between atoms: C_37  and  C_43
REMARK                            x       y       z     vdW  Elec       q    Type
REMARK                         _______ _______ _______ _____ _____    ______ ____
ROOT
ATOM      1  O   UNL     1      55.510 -59.700  60.044  0.00  0.00    +0.000 OA
ATOM      2  O   UNL     1      54.845 -57.851  56.317  0.00  0.00    +0.000 OA
ATOM      3  O   UNL     1      55.061 -59.404  62.225  0.00  0.00    +0.000 OA
ATOM      4  N   UNL     1      52.880 -56.911  57.040  0.00  0.00    +0.000 N 
ATOM      5  N   UNL     1      49.780 -55.470  58.128  0.00  0.00    +0.000 NA
ATOM      6  C   UNL     1      51.901 -56.766  58.002  0.00  0.00    +0.000 A 
ATOM      7  C   UNL     1      51.280 -55.450  56.216  0.00  0.00    +0.000 A 
ATOM      8  C   UNL     1      52.580 -56.107  55.852  0.00  0.00    +0.000 C 
ATOM      9  C   UNL     1      53.118 -58.282  59.426  0.00  0.00    +0.000 A 
ATOM     10  C   UNL     1      53.202 -59.057  60.717  0.00  0.00    +0.000 C 
ATOM     11  C   UNL     1      50.890 -55.849  57.489  0.00  0.00    +0.000 A 
ATOM     12  C   UNL     1      54.078 -58.429  58.490  0.00  0.00    +0.000 A 
ATOM     13  C   UNL     1      50.475 -54.571  55.505  0.00  0.00    +0.000 A 
ATOM     14  C   UNL     1      51.976 -57.412  59.170  0.00  0.00    +0.000 A 
ATOM     15  C   UNL     1      53.985 -57.709  57.180  0.00  0.00    +0.000 A 
ATOM     16  C   UNL     1      49.270 -54.146  56.136  0.00  0.00    +0.000 A 
ATOM     17  C   UNL     1      55.262 -59.311  58.677  0.00  0.00    +0.000 C 
ATOM     18  C   UNL     1      48.981 -54.630  57.453  0.00  0.00    +0.000 A 
ATOM     19  C   UNL     1      54.676 -59.378  61.055  0.00  0.00    +0.000 C 
ATOM     20  C   UNL     1      47.175 -52.903  56.194  0.00  0.00    +0.000 A 
ATOM     21  C   UNL     1      48.343 -53.271  55.528  0.00  0.00    +0.000 A 
ATOM     22  C   UNL     1      47.815 -54.218  58.086  0.00  0.00    +0.000 A 
ATOM     23  C   UNL     1      46.907 -53.352  57.476  0.00  0.00    +0.000 A 
ENDROOT
BRANCH  10  24
ATOM     24  O   UNL     1      52.661 -58.251  61.773  0.00  0.00    +0.000 OA
ATOM     25  H   UNL     1      51.939 -58.776  62.175  0.00  0.00    +0.000 HD
ENDBRANCH  10  24
BRANCH  10  26
ATOM     26  C   UNL     1      52.388 -60.365  60.617  0.00  0.00    +0.000 C 
ATOM     27  C   UNL     1      51.624 -60.733  61.885  0.00  0.00    +0.000 C 
ENDBRANCH  10  26
BRANCH  13  28
ATOM     28  C   UNL     1      50.880 -54.140  54.116  0.00  0.00    +0.000 C 
ATOM     29  C   UNL     1      50.629 -55.227  53.082  0.00  0.00    +0.000 C 
ENDBRANCH  13  28
BRANCH  20  30
ATOM     30  O   UNL     1      46.300 -52.003  55.584  0.00  0.00    +0.000 OA
BRANCH  30  38
ATOM     31  O   UNL     1      45.666 -53.367  53.822  0.00  0.00    +0.000 OA
ATOM     32  N   UNL     1      46.301 -51.190  53.421  0.00  0.00    +0.000 N 
ATOM     33  C   UNL     1      47.716 -49.388  51.601  0.00  0.00    +0.000 C 
ATOM     34  C   UNL     1      47.925 -49.370  53.136  0.00  0.00    +0.000 C 
ATOM     35  C   UNL     1      47.248 -50.807  51.189  0.00  0.00    +0.000 C 
ATOM     36  C   UNL     1      46.706 -49.880  53.900  0.00  0.00    +0.000 C 
ATOM     37  C   UNL     1      46.045 -51.282  51.996  0.00  0.00    +0.000 C 
ATOM     38  C   UNL     1      46.053 -52.280  54.242  0.00  0.00    +0.000 C 
BRANCH  33  39
ATOM     39  N   UNL     1      48.949 -48.972  50.861  0.00  0.00    +0.000 NA
ATOM     40  C   UNL     1      48.630 -48.317  49.574  0.00  0.00    +0.000 C 
ATOM     41  C   UNL     1      49.817 -48.091  51.671  0.00  0.00    +0.000 C 
ATOM     42  C   UNL     1      49.879 -47.912  48.788  0.00  0.00    +0.000 C 
ATOM     43  C   UNL     1      51.095 -47.678  50.937  0.00  0.00    +0.000 C 
ATOM     44  C   UNL     1      50.785 -47.011  49.609  0.00  0.00    +0.000 C 
ENDBRANCH  33  39
ENDBRANCH  30  38
ENDBRANCH  20  30
TORSDOF 6
ENDMDL
MODEL 9
REMARK VINA RESULT:      -7.2      4.786     11.335
REMARK  Name = 
REMARK  8 active torsions:
REMARK  status: ('A' for Active; 'I' for Inactive)
REMARK    1  A    between atoms: O_1  and  C_21
REMARK    2  A    between atoms: O_1  and  C_38
REMARK    3  A    between atoms: O_4  and  C_26
REMARK    4  A    between atoms: N_7  and  C_11
REMARK    5  A    between atoms: C_26  and  C_33
REMARK    6  A    between atoms: C_29  and  C_37
REMARK    7  A    between atoms: C_33  and  C_42
REMARK    8  A    between atoms: C_37  and  C_43
REMARK                            x       y       z     vdW  Elec       q    Type
REMARK                         _______ _______ _______ _____ _____    ______ ____
ROOT
ATOM      1  O   UNL     1      55.230 -58.635  57.691  0.00  0.00    +0.000 OA
ATOM      2  O   UNL     1      51.977 -56.795  59.637  0.00  0.00    +0.000 OA
ATOM      3  O   UNL     1      55.818 -59.415  55.668  0.00  0.00    +0.000 OA
ATOM      4  N   UNL     1      51.273 -55.796  57.695  0.00  0.00    +0.000 N 
ATOM      5  N   UNL     1      50.177 -54.183  54.684  0.00  0.00    +0.000 NA
ATOM      6  C   UNL     1      51.462 -55.500  56.360  0.00  0.00    +0.000 A 
ATOM      7  C   UNL     1      49.489 -54.491  56.994  0.00  0.00    +0.000 A 
ATOM      8  C   UNL     1      50.034 -55.198  58.201  0.00  0.00    +0.000 C 
ATOM      9  C   UNL     1      53.512 -56.766  56.401  0.00  0.00    +0.000 A 
ATOM     10  C   UNL     1      54.750 -57.244  55.684  0.00  0.00    +0.000 C 
ATOM     11  C   UNL     1      50.343 -54.677  55.913  0.00  0.00    +0.000 A 
ATOM     12  C   UNL     1      53.333 -57.058  57.704  0.00  0.00    +0.000 A 
ATOM     13  C   UNL     1      48.340 -53.732  56.826  0.00  0.00    +0.000 A 
ATOM     14  C   UNL     1      52.532 -55.947  55.695  0.00  0.00    +0.000 A 
ATOM     15  C   UNL     1      52.137 -56.548  58.446  0.00  0.00    +0.000 A 
ATOM     16  C   UNL     1      48.122 -53.167  55.536  0.00  0.00    +0.000 A 
ATOM     17  C   UNL     1      54.299 -57.874  58.490  0.00  0.00    +0.000 C 
ATOM     18  C   UNL     1      49.079 -53.434  54.503  0.00  0.00    +0.000 A 
ATOM     19  C   UNL     1      55.288 -58.533  56.346  0.00  0.00    +0.000 C 
ATOM     20  C   UNL     1      46.861 -51.823  53.943  0.00  0.00    +0.000 A 
ATOM     21  C   UNL     1      47.010 -52.356  55.222  0.00  0.00    +0.000 A 
ATOM     22  C   UNL     1      48.877 -52.899  53.237  0.00  0.00    +0.000 A 
ATOM     23  C   UNL     1      47.773 -52.100  52.939  0.00  0.00    +0.000 A 
ENDROOT
BRANCH  10  24
ATOM     24  O   UNL     1      54.408 -57.544  54.324  0.00  0.00    +0.000 OA
ATOM     25  H   UNL     1      53.496 -57.215  54.193  0.00  0.00    +0.000 HD
ENDBRANCH  10  24
BRANCH  10  26
ATOM     26  C   UNL     1      55.839 -56.150  55.698  0.00  0.00    +0.000 C 
ATOM     27  C   UNL     1      56.457 -55.855  54.335  0.00  0.00    +0.000 C 
ENDBRANCH  10  26
BRANCH  13  28
ATOM     28  C   UNL     1      47.410 -53.511  57.995  0.00  0.00    +0.000 C 
ATOM     29  C   UNL     1      46.366 -54.610  58.113  0.00  0.00    +0.000 C 
ENDBRANCH  13  28
BRANCH  20  30
ATOM     30  O   UNL     1      45.729 -51.060  53.652  0.00  0.00    +0.000 OA
BRANCH  30  38
ATOM     31  O   UNL     1      45.098 -51.670  51.508  0.00  0.00    +0.000 OA
ATOM     32  N   UNL     1      45.907 -49.552  51.910  0.00  0.00    +0.000 N 
ATOM     33  C   UNL     1      47.546 -47.360  50.874  0.00  0.00    +0.000 C 
ATOM     34  C   UNL     1      47.670 -47.893  52.324  0.00  0.00    +0.000 C 
ATOM     35  C   UNL     1      47.002 -48.503  49.980  0.00  0.00    +0.000 C 
ATOM     36  C   UNL     1      46.378 -48.529  52.828  0.00  0.00    +0.000 C 
ATOM     37  C   UNL     1      45.724 -49.123  50.537  0.00  0.00    +0.000 C 
ATOM     38  C   UNL     1      45.538 -50.833  52.292  0.00  0.00    +0.000 C 
BRANCH  33  39
ATOM     39  N   UNL     1      48.844 -46.821  50.360  0.00  0.00    +0.000 NA
ATOM     40  C   UNL     1      49.969 -47.748  50.612  0.00  0.00    +0.000 C 
ATOM     41  C   UNL     1      48.781 -46.488  48.922  0.00  0.00    +0.000 C 
ATOM     42  C   UNL     1      51.311 -47.201  50.121  0.00  0.00    +0.000 C 
ATOM     43  C   UNL     1      50.094 -45.911  48.387  0.00  0.00    +0.000 C 
ATOM     44  C   UNL     1      51.261 -46.847  48.645  0.00  0.00    +0.000 C 
ENDBRANCH  33  39
ENDBRANCH  30  38
ENDBRANCH  20  30
TORSDOF 6
ENDMDL
