MODEL 1
REMARK VINA RESULT:      -9.0      0.000      0.000
REMARK  Name = 
REMARK  8 active torsions:
REMARK  status: ('A' for Active; 'I' for Inactive)
REMARK    1  A    between atoms: O_1  and  C_21
REMARK    2  A    between atoms: O_1  and  C_38
REMARK    3  A    between atoms: O_4  and  C_26
REMARK    4  A    between atoms: N_7  and  C_11
REMARK    5  A    between atoms: C_26  and  C_33
REMARK    6  A    between atoms: C_29  and  C_37
REMARK    7  A    between atoms: C_33  and  C_42
REMARK    8  A    between atoms: C_37  and  C_43
REMARK                            x       y       z     vdW  Elec       q    Type
REMARK                         _______ _______ _______ _____ _____    ______ ____
ROOT
ATOM      1  O   UNL     1      48.113 -46.035  50.430  0.00  0.00    +0.000 OA
ATOM      2  O   UNL     1      48.146 -42.288  52.357  0.00  0.00    +0.000 OA
ATOM      3  O   UNL     1      47.620 -46.950  48.438  0.00  0.00    +0.000 OA
ATOM      4  N   UNL     1      48.524 -41.182  50.381  0.00  0.00    +0.000 N 
ATOM      5  N   UNL     1      49.163 -39.432  47.316  0.00  0.00    +0.000 NA
ATOM      6  C   UNL     1      48.792 -41.200  49.028  0.00  0.00    +0.000 A 
ATOM      7  C   UNL     1      48.688 -38.986  49.657  0.00  0.00    +0.000 A 
ATOM      8  C   UNL     1      48.434 -39.809  50.887  0.00  0.00    +0.000 C 
ATOM      9  C   UNL     1      48.757 -43.609  49.084  0.00  0.00    +0.000 A 
ATOM     10  C   UNL     1      48.937 -44.921  48.363  0.00  0.00    +0.000 C 
ATOM     11  C   UNL     1      48.899 -39.821  48.566  0.00  0.00    +0.000 A 
ATOM     12  C   UNL     1      48.495 -43.599  50.406  0.00  0.00    +0.000 A 
ATOM     13  C   UNL     1      48.741 -37.611  49.479  0.00  0.00    +0.000 A 
ATOM     14  C   UNL     1      48.915 -42.352  48.361  0.00  0.00    +0.000 A 
ATOM     15  C   UNL     1      48.366 -42.305  51.150  0.00  0.00    +0.000 A 
ATOM     16  C   UNL     1      49.035 -37.142  48.166  0.00  0.00    +0.000 A 
ATOM     17  C   UNL     1      48.337 -44.841  51.209  0.00  0.00    +0.000 C 
ATOM     18  C   UNL     1      49.232 -38.106  47.124  0.00  0.00    +0.000 A 
ATOM     19  C   UNL     1      48.147 -46.040  49.080  0.00  0.00    +0.000 C 
ATOM     20  C   UNL     1      49.446 -35.379  46.534  0.00  0.00    +0.000 A 
ATOM     21  C   UNL     1      49.143 -35.773  47.836  0.00  0.00    +0.000 A 
ATOM     22  C   UNL     1      49.510 -37.665  45.836  0.00  0.00    +0.000 A 
ATOM     23  C   UNL     1      49.613 -36.310  45.523  0.00  0.00    +0.000 A 
ENDROOT
BRANCH  10  24
ATOM     24  O   UNL     1      48.422 -44.789  47.030  0.00  0.00    +0.000 OA
ATOM     25  H   UNL     1      47.497 -44.483  47.124  0.00  0.00    +0.000 HD
ENDBRANCH  10  24
BRANCH  10  26
ATOM     26  C   UNL     1      50.432 -45.297  48.287  0.00  0.00    +0.000 C 
ATOM     27  C   UNL     1      50.776 -46.311  47.200  0.00  0.00    +0.000 C 
ENDBRANCH  10  26
BRANCH  13  28
ATOM     28  C   UNL     1      48.527 -36.693  50.657  0.00  0.00    +0.000 C 
ATOM     29  C   UNL     1      47.057 -36.361  50.866  0.00  0.00    +0.000 C 
ENDBRANCH  13  28
BRANCH  20  30
ATOM     30  O   UNL     1      49.503 -34.018  46.232  0.00  0.00    +0.000 OA
BRANCH  30  38
ATOM     31  O   UNL     1      51.811 -34.205  46.224  0.00  0.00    +0.000 OA
ATOM     32  N   UNL     1      50.818 -32.196  45.694  0.00  0.00    +0.000 N 
ATOM     33  C   UNL     1      50.991 -29.285  45.932  0.00  0.00    +0.000 C 
ATOM     34  C   UNL     1      49.689 -30.077  46.208  0.00  0.00    +0.000 C 
ATOM     35  C   UNL     1      52.196 -30.225  46.186  0.00  0.00    +0.000 C 
ATOM     36  C   UNL     1      49.631 -31.397  45.443  0.00  0.00    +0.000 C 
ATOM     37  C   UNL     1      52.082 -31.540  45.420  0.00  0.00    +0.000 C 
ATOM     38  C   UNL     1      50.797 -33.533  46.062  0.00  0.00    +0.000 C 
BRANCH  33  39
ATOM     39  N   UNL     1      51.075 -28.038  46.756  0.00  0.00    +0.000 NA
ATOM     40  C   UNL     1      49.757 -27.637  47.293  0.00  0.00    +0.000 C 
ATOM     41  C   UNL     1      52.050 -28.162  47.860  0.00  0.00    +0.000 C 
ATOM     42  C   UNL     1      49.817 -26.346  48.113  0.00  0.00    +0.000 C 
ATOM     43  C   UNL     1      52.168 -26.885  48.696  0.00  0.00    +0.000 C 
ATOM     44  C   UNL     1      50.821 -26.454  49.248  0.00  0.00    +0.000 C 
ENDBRANCH  33  39
ENDBRANCH  30  38
ENDBRANCH  20  30
TORSDOF 6
ENDMDL
MODEL 2
REMARK VINA RESULT:      -8.9      2.500      3.024
REMARK  Name = 
REMARK  8 active torsions:
REMARK  status: ('A' for Active; 'I' for Inactive)
REMARK    1  A    between atoms: O_1  and  C_21
REMARK    2  A    between atoms: O_1  and  C_38
REMARK    3  A    between atoms: O_4  and  C_26
REMARK    4  A    between atoms: N_7  and  C_11
REMARK    5  A    between atoms: C_26  and  C_33
REMARK    6  A    between atoms: C_29  and  C_37
REMARK    7  A    between atoms: C_33  and  C_42
REMARK    8  A    between atoms: C_37  and  C_43
REMARK                            x       y       z     vdW  Elec       q    Type
REMARK                         _______ _______ _______ _____ _____    ______ ____
ROOT
ATOM      1  O   UNL     1      48.691 -47.132  50.807  0.00  0.00    +0.000 OA
ATOM      2  O   UNL     1      47.781 -43.501  52.740  0.00  0.00    +0.000 OA
ATOM      3  O   UNL     1      48.771 -48.020  48.744  0.00  0.00    +0.000 OA
ATOM      4  N   UNL     1      48.411 -42.271  50.908  0.00  0.00    +0.000 N 
ATOM      5  N   UNL     1      49.436 -40.322  48.076  0.00  0.00    +0.000 NA
ATOM      6  C   UNL     1      48.963 -42.196  49.645  0.00  0.00    +0.000 A 
ATOM      7  C   UNL     1      48.413 -40.045  50.263  0.00  0.00    +0.000 A 
ATOM      8  C   UNL     1      48.022 -40.946  51.398  0.00  0.00    +0.000 C 
ATOM      9  C   UNL     1      49.258 -44.587  49.663  0.00  0.00    +0.000 A 
ATOM     10  C   UNL     1      49.772 -45.831  48.982  0.00  0.00    +0.000 C 
ATOM     11  C   UNL     1      48.969 -40.796  49.234  0.00  0.00    +0.000 A 
ATOM     12  C   UNL     1      48.721 -44.668  50.896  0.00  0.00    +0.000 A 
ATOM     13  C   UNL     1      48.308 -38.669  50.117  0.00  0.00    +0.000 A 
ATOM     14  C   UNL     1      49.387 -43.290  49.006  0.00  0.00    +0.000 A 
ATOM     15  C   UNL     1      48.254 -43.437  51.610  0.00  0.00    +0.000 A 
ATOM     16  C   UNL     1      48.806 -38.109  48.905  0.00  0.00    +0.000 A 
ATOM     17  C   UNL     1      48.573 -45.954  51.631  0.00  0.00    +0.000 C 
ATOM     18  C   UNL     1      49.356 -38.992  47.920  0.00  0.00    +0.000 A 
ATOM     19  C   UNL     1      49.014 -47.076  49.497  0.00  0.00    +0.000 C 
ATOM     20  C   UNL     1      49.302 -36.238  47.424  0.00  0.00    +0.000 A 
ATOM     21  C   UNL     1      48.787 -36.725  48.624  0.00  0.00    +0.000 A 
ATOM     22  C   UNL     1      49.837 -38.463  46.729  0.00  0.00    +0.000 A 
ATOM     23  C   UNL     1      49.811 -37.094  46.462  0.00  0.00    +0.000 A 
ENDROOT
BRANCH  10  24
ATOM     24  O   UNL     1      49.540 -45.713  47.571  0.00  0.00    +0.000 OA
ATOM     25  H   UNL     1      49.999 -46.470  47.155  0.00  0.00    +0.000 HD
ENDBRANCH  10  24
BRANCH  10  26
ATOM     26  C   UNL     1      51.286 -45.996  49.229  0.00  0.00    +0.000 C 
ATOM     27  C   UNL     1      52.070 -46.517  48.027  0.00  0.00    +0.000 C 
ENDBRANCH  10  26
BRANCH  13  28
ATOM     28  C   UNL     1      47.719 -37.839  51.232  0.00  0.00    +0.000 C 
ATOM     29  C   UNL     1      48.789 -37.115  52.035  0.00  0.00    +0.000 C 
ENDBRANCH  13  28
BRANCH  20  30
ATOM     30  O   UNL     1      49.228 -34.871  47.157  0.00  0.00    +0.000 OA
BRANCH  30  38
ATOM     31  O   UNL     1      48.982 -35.162  44.873  0.00  0.00    +0.000 OA
ATOM     32  N   UNL     1      50.284 -33.442  45.679  0.00  0.00    +0.000 N 
ATOM     33  C   UNL     1      52.721 -31.873  45.282  0.00  0.00    +0.000 C 
ATOM     34  C   UNL     1      52.317 -32.469  46.653  0.00  0.00    +0.000 C 
ATOM     35  C   UNL     1      52.085 -32.741  44.167  0.00  0.00    +0.000 C 
ATOM     36  C   UNL     1      50.810 -32.664  46.788  0.00  0.00    +0.000 C 
ATOM     37  C   UNL     1      50.584 -32.927  44.357  0.00  0.00    +0.000 C 
ATOM     38  C   UNL     1      49.455 -34.544  45.823  0.00  0.00    +0.000 C 
BRANCH  33  39
ATOM     39  N   UNL     1      54.207 -31.771  45.128  0.00  0.00    +0.000 NA
ATOM     40  C   UNL     1      54.590 -30.954  43.957  0.00  0.00    +0.000 C 
ATOM     41  C   UNL     1      54.860 -31.243  46.345  0.00  0.00    +0.000 C 
ATOM     42  C   UNL     1      56.106 -30.863  43.765  0.00  0.00    +0.000 C 
ATOM     43  C   UNL     1      56.383 -31.158  46.213  0.00  0.00    +0.000 C 
ATOM     44  C   UNL     1      56.793 -30.328  45.010  0.00  0.00    +0.000 C 
ENDBRANCH  33  39
ENDBRANCH  30  38
ENDBRANCH  20  30
TORSDOF 6
ENDMDL
MODEL 3
REMARK VINA RESULT:      -8.8      9.690     18.292
REMARK  Name = 
REMARK  8 active torsions:
REMARK  status: ('A' for Active; 'I' for Inactive)
REMARK    1  A    between atoms: O_1  and  C_21
REMARK    2  A    between atoms: O_1  and  C_38
REMARK    3  A    between atoms: O_4  and  C_26
REMARK    4  A    between atoms: N_7  and  C_11
REMARK    5  A    between atoms: C_26  and  C_33
REMARK    6  A    between atoms: C_29  and  C_37
REMARK    7  A    between atoms: C_33  and  C_42
REMARK    8  A    between atoms: C_37  and  C_43
REMARK                            x       y       z     vdW  Elec       q    Type
REMARK                         _______ _______ _______ _____ _____    ______ ____
ROOT
ATOM      1  O   UNL     1      51.919 -44.292  46.236  0.00  0.00    +0.000 OA
ATOM      2  O   UNL     1      48.558 -43.713  48.710  0.00  0.00    +0.000 OA
ATOM      3  O   UNL     1      53.865 -45.415  46.198  0.00  0.00    +0.000 OA
ATOM      4  N   UNL     1      48.778 -45.801  49.639  0.00  0.00    +0.000 N 
ATOM      5  N   UNL     1      49.068 -49.076  51.071  0.00  0.00    +0.000 NA
ATOM      6  C   UNL     1      49.392 -47.036  49.684  0.00  0.00    +0.000 A 
ATOM      7  C   UNL     1      47.761 -47.042  51.311  0.00  0.00    +0.000 A 
ATOM      8  C   UNL     1      47.716 -45.698  50.644  0.00  0.00    +0.000 C 
ATOM      9  C   UNL     1      50.838 -46.349  47.882  0.00  0.00    +0.000 A 
ATOM     10  C   UNL     1      51.932 -46.690  46.902  0.00  0.00    +0.000 C 
ATOM     11  C   UNL     1      48.755 -47.823  50.733  0.00  0.00    +0.000 A 
ATOM     12  C   UNL     1      50.242 -45.141  47.832  0.00  0.00    +0.000 A 
ATOM     13  C   UNL     1      46.998 -47.571  52.343  0.00  0.00    +0.000 A 
ATOM     14  C   UNL     1      50.391 -47.344  48.851  0.00  0.00    +0.000 A 
ATOM     15  C   UNL     1      49.117 -44.804  48.762  0.00  0.00    +0.000 A 
ATOM     16  C   UNL     1      47.281 -48.912  52.733  0.00  0.00    +0.000 A 
ATOM     17  C   UNL     1      50.634 -44.085  46.860  0.00  0.00    +0.000 C 
ATOM     18  C   UNL     1      48.334 -49.612  52.058  0.00  0.00    +0.000 A 
ATOM     19  C   UNL     1      52.656 -45.405  46.439  0.00  0.00    +0.000 C 
ATOM     20  C   UNL     1      46.893 -50.907  54.076  0.00  0.00    +0.000 A 
ATOM     21  C   UNL     1      46.576 -49.590  53.751  0.00  0.00    +0.000 A 
ATOM     22  C   UNL     1      48.629 -50.917  52.432  0.00  0.00    +0.000 A 
ATOM     23  C   UNL     1      47.925 -51.575  53.441  0.00  0.00    +0.000 A 
ENDROOT
BRANCH  10  24
ATOM     24  O   UNL     1      52.888 -47.537  47.555  0.00  0.00    +0.000 OA
ATOM     25  H   UNL     1      53.595 -46.946  47.886  0.00  0.00    +0.000 HD
ENDBRANCH  10  24
BRANCH  10  26
ATOM     26  C   UNL     1      51.353 -47.436  45.682  0.00  0.00    +0.000 C 
ATOM     27  C   UNL     1      51.745 -48.908  45.595  0.00  0.00    +0.000 C 
ENDBRANCH  10  26
BRANCH  13  28
ATOM     28  C   UNL     1      45.907 -46.739  52.971  0.00  0.00    +0.000 C 
ATOM     29  C   UNL     1      44.636 -46.735  52.135  0.00  0.00    +0.000 C 
ENDBRANCH  13  28
BRANCH  20  30
ATOM     30  O   UNL     1      46.206 -51.534  55.117  0.00  0.00    +0.000 OA
BRANCH  30  38
ATOM     31  O   UNL     1      44.504 -52.277  53.732  0.00  0.00    +0.000 OA
ATOM     32  N   UNL     1      45.236 -53.603  55.467  0.00  0.00    +0.000 N 
ATOM     33  C   UNL     1      44.446 -55.491  57.558  0.00  0.00    +0.000 C 
ATOM     34  C   UNL     1      45.391 -54.291  57.819  0.00  0.00    +0.000 C 
ATOM     35  C   UNL     1      43.541 -55.144  56.348  0.00  0.00    +0.000 C 
ATOM     36  C   UNL     1      46.150 -53.858  56.567  0.00  0.00    +0.000 C 
ATOM     37  C   UNL     1      44.343 -54.694  55.130  0.00  0.00    +0.000 C 
ATOM     38  C   UNL     1      45.254 -52.455  54.688  0.00  0.00    +0.000 C 
BRANCH  33  39
ATOM     39  N   UNL     1      43.642 -55.847  58.769  0.00  0.00    +0.000 NA
ATOM     40  C   UNL     1      42.496 -56.720  58.438  0.00  0.00    +0.000 C 
ATOM     41  C   UNL     1      44.466 -56.477  59.822  0.00  0.00    +0.000 C 
ATOM     42  C   UNL     1      41.643 -57.071  59.659  0.00  0.00    +0.000 C 
ATOM     43  C   UNL     1      43.663 -56.823  61.078  0.00  0.00    +0.000 C 
ATOM     44  C   UNL     1      42.477 -57.714  60.754  0.00  0.00    +0.000 C 
ENDBRANCH  33  39
ENDBRANCH  30  38
ENDBRANCH  20  30
TORSDOF 6
ENDMDL
MODEL 4
REMARK VINA RESULT:      -8.6     12.517     21.433
REMARK  Name = 
REMARK  8 active torsions:
REMARK  status: ('A' for Active; 'I' for Inactive)
REMARK    1  A    between atoms: O_1  and  C_21
REMARK    2  A    between atoms: O_1  and  C_38
REMARK    3  A    between atoms: O_4  and  C_26
REMARK    4  A    between atoms: N_7  and  C_11
REMARK    5  A    between atoms: C_26  and  C_33
REMARK    6  A    between atoms: C_29  and  C_37
REMARK    7  A    between atoms: C_33  and  C_42
REMARK    8  A    between atoms: C_37  and  C_43
REMARK                            x       y       z     vdW  Elec       q    Type
REMARK                         _______ _______ _______ _____ _____    ______ ____
ROOT
ATOM      1  O   UNL     1      46.752 -47.121  49.676  0.00  0.00    +0.000 OA
ATOM      2  O   UNL     1      44.153 -50.341  50.469  0.00  0.00    +0.000 OA
ATOM      3  O   UNL     1      48.068 -45.655  50.757  0.00  0.00    +0.000 OA
ATOM      4  N   UNL     1      45.303 -50.909  52.372  0.00  0.00    +0.000 N 
ATOM      5  N   UNL     1      47.110 -51.849  55.325  0.00  0.00    +0.000 NA
ATOM      6  C   UNL     1      46.378 -50.739  53.221  0.00  0.00    +0.000 A 
ATOM      7  C   UNL     1      45.095 -52.439  54.102  0.00  0.00    +0.000 A 
ATOM      8  C   UNL     1      44.416 -51.975  52.846  0.00  0.00    +0.000 C 
ATOM      9  C   UNL     1      47.188 -48.974  51.794  0.00  0.00    +0.000 A 
ATOM     10  C   UNL     1      48.255 -47.957  51.474  0.00  0.00    +0.000 C 
ATOM     11  C   UNL     1      46.254 -51.700  54.311  0.00  0.00    +0.000 A 
ATOM     12  C   UNL     1      46.141 -49.135  50.961  0.00  0.00    +0.000 A 
ATOM     13  C   UNL     1      44.751 -53.432  55.008  0.00  0.00    +0.000 A 
ATOM     14  C   UNL     1      47.314 -49.816  52.979  0.00  0.00    +0.000 A 
ATOM     15  C   UNL     1      45.099 -50.176  51.233  0.00  0.00    +0.000 A 
ATOM     16  C   UNL     1      45.640 -53.643  56.102  0.00  0.00    +0.000 A 
ATOM     17  C   UNL     1      45.957 -48.324  49.727  0.00  0.00    +0.000 C 
ATOM     18  C   UNL     1      46.804 -52.814  56.206  0.00  0.00    +0.000 A 
ATOM     19  C   UNL     1      47.665 -46.811  50.622  0.00  0.00    +0.000 C 
ATOM     20  C   UNL     1      46.348 -54.794  58.129  0.00  0.00    +0.000 A 
ATOM     21  C   UNL     1      45.434 -54.630  57.090  0.00  0.00    +0.000 A 
ATOM     22  C   UNL     1      47.676 -53.000  57.271  0.00  0.00    +0.000 A 
ATOM     23  C   UNL     1      47.460 -53.977  58.243  0.00  0.00    +0.000 A 
ENDROOT
BRANCH  10  24
ATOM     24  O   UNL     1      48.743 -47.401  52.703  0.00  0.00    +0.000 OA
ATOM     25  H   UNL     1      48.651 -48.104  53.377  0.00  0.00    +0.000 HD
ENDBRANCH  10  24
BRANCH  10  26
ATOM     26  C   UNL     1      49.428 -48.623  50.724  0.00  0.00    +0.000 C 
ATOM     27  C   UNL     1      50.551 -47.667  50.331  0.00  0.00    +0.000 C 
ENDBRANCH  10  26
BRANCH  13  28
ATOM     28  C   UNL     1      43.503 -54.250  54.786  0.00  0.00    +0.000 C 
ATOM     29  C   UNL     1      42.313 -53.705  55.562  0.00  0.00    +0.000 C 
ENDBRANCH  13  28
BRANCH  20  30
ATOM     30  O   UNL     1      46.093 -55.749  59.114  0.00  0.00    +0.000 OA
BRANCH  30  38
ATOM     31  O   UNL     1      46.972 -57.667  58.158  0.00  0.00    +0.000 OA
ATOM     32  N   UNL     1      44.742 -57.584  58.727  0.00  0.00    +0.000 N 
ATOM     33  C   UNL     1      42.029 -58.370  57.965  0.00  0.00    +0.000 C 
ATOM     34  C   UNL     1      42.396 -56.932  58.411  0.00  0.00    +0.000 C 
ATOM     35  C   UNL     1      43.298 -59.036  57.375  0.00  0.00    +0.000 C 
ATOM     36  C   UNL     1      43.614 -56.895  59.330  0.00  0.00    +0.000 C 
ATOM     37  C   UNL     1      44.493 -58.953  58.319  0.00  0.00    +0.000 C 
ATOM     38  C   UNL     1      46.020 -57.052  58.629  0.00  0.00    +0.000 C 
BRANCH  33  39
ATOM     39  N   UNL     1      40.890 -58.384  56.993  0.00  0.00    +0.000 NA
ATOM     40  C   UNL     1      41.198 -57.618  55.767  0.00  0.00    +0.000 C 
ATOM     41  C   UNL     1      40.475 -59.757  56.638  0.00  0.00    +0.000 C 
ATOM     42  C   UNL     1      40.034 -57.595  54.773  0.00  0.00    +0.000 C 
ATOM     43  C   UNL     1      39.294 -59.788  55.665  0.00  0.00    +0.000 C 
ATOM     44  C   UNL     1      39.591 -59.000  54.402  0.00  0.00    +0.000 C 
ENDBRANCH  33  39
ENDBRANCH  30  38
ENDBRANCH  20  30
TORSDOF 6
ENDMDL
MODEL 5
REMARK VINA RESULT:      -8.4      7.321     13.007
REMARK  Name = 
REMARK  8 active torsions:
REMARK  status: ('A' for Active; 'I' for Inactive)
REMARK    1  A    between atoms: O_1  and  C_21
REMARK    2  A    between atoms: O_1  and  C_38
REMARK    3  A    between atoms: O_4  and  C_26
REMARK    4  A    between atoms: N_7  and  C_11
REMARK    5  A    between atoms: C_26  and  C_33
REMARK    6  A    between atoms: C_29  and  C_37
REMARK    7  A    between atoms: C_33  and  C_42
REMARK    8  A    between atoms: C_37  and  C_43
REMARK                            x       y       z     vdW  Elec       q    Type
REMARK                         _______ _______ _______ _____ _____    ______ ____
ROOT
ATOM      1  O   UNL     1      48.261 -56.409  57.100  0.00  0.00    +0.000 OA
ATOM      2  O   UNL     1      49.457 -54.903  53.352  0.00  0.00    +0.000 OA
ATOM      3  O   UNL     1      47.730 -55.692  59.162  0.00  0.00    +0.000 OA
ATOM      4  N   UNL     1      48.360 -52.918  53.706  0.00  0.00    +0.000 N 
ATOM      5  N   UNL     1      46.613 -49.827  54.211  0.00  0.00    +0.000 NA
ATOM      6  C   UNL     1      47.521 -52.130  54.467  0.00  0.00    +0.000 A 
ATOM      7  C   UNL     1      48.114 -50.885  52.621  0.00  0.00    +0.000 A 
ATOM      8  C   UNL     1      48.800 -52.215  52.498  0.00  0.00    +0.000 C 
ATOM      9  C   UNL     1      47.335 -53.923  56.066  0.00  0.00    +0.000 A 
ATOM     10  C   UNL     1      46.726 -54.466  57.334  0.00  0.00    +0.000 C 
ATOM     11  C   UNL     1      47.361 -50.849  53.788  0.00  0.00    +0.000 A 
ATOM     12  C   UNL     1      48.154 -54.698  55.328  0.00  0.00    +0.000 A 
ATOM     13  C   UNL     1      48.125 -49.776  51.787  0.00  0.00    +0.000 A 
ATOM     14  C   UNL     1      47.002 -52.577  55.615  0.00  0.00    +0.000 A 
ATOM     15  C   UNL     1      48.727 -54.196  54.038  0.00  0.00    +0.000 A 
ATOM     16  C   UNL     1      47.331 -48.662  52.185  0.00  0.00    +0.000 A 
ATOM     17  C   UNL     1      48.524 -56.086  55.719  0.00  0.00    +0.000 C 
ATOM     18  C   UNL     1      46.598 -48.748  53.413  0.00  0.00    +0.000 A 
ATOM     19  C   UNL     1      47.634 -55.559  57.941  0.00  0.00    +0.000 C 
ATOM     20  C   UNL     1      46.421 -46.423  51.867  0.00  0.00    +0.000 A 
ATOM     21  C   UNL     1      47.226 -47.473  51.429  0.00  0.00    +0.000 A 
ATOM     22  C   UNL     1      45.826 -47.668  53.821  0.00  0.00    +0.000 A 
ATOM     23  C   UNL     1      45.733 -46.498  53.066  0.00  0.00    +0.000 A 
ENDROOT
BRANCH  10  24
ATOM     24  O   UNL     1      46.610 -53.397  58.284  0.00  0.00    +0.000 OA
ATOM     25  H   UNL     1      47.334 -52.771  58.080  0.00  0.00    +0.000 HD
ENDBRANCH  10  24
BRANCH  10  26
ATOM     26  C   UNL     1      45.321 -55.042  57.055  0.00  0.00    +0.000 C 
ATOM     27  C   UNL     1      44.255 -54.628  58.066  0.00  0.00    +0.000 C 
ENDBRANCH  10  26
BRANCH  13  28
ATOM     28  C   UNL     1      48.928 -49.806  50.509  0.00  0.00    +0.000 C 
ATOM     29  C   UNL     1      48.149 -50.418  49.355  0.00  0.00    +0.000 C 
ENDBRANCH  13  28
BRANCH  20  30
ATOM     30  O   UNL     1      46.373 -45.246  51.120  0.00  0.00    +0.000 OA
BRANCH  30  38
ATOM     31  O   UNL     1      47.820 -43.967  52.399  0.00  0.00    +0.000 OA
ATOM     32  N   UNL     1      48.139 -44.136  50.124  0.00  0.00    +0.000 N 
ATOM     33  C   UNL     1      48.937 -42.722  47.690  0.00  0.00    +0.000 C 
ATOM     34  C   UNL     1      47.667 -43.605  47.773  0.00  0.00    +0.000 C 
ATOM     35  C   UNL     1      49.264 -42.203  49.113  0.00  0.00    +0.000 C 
ATOM     36  C   UNL     1      47.780 -44.698  48.833  0.00  0.00    +0.000 C 
ATOM     37  C   UNL     1      49.343 -43.328  50.141  0.00  0.00    +0.000 C 
ATOM     38  C   UNL     1      47.473 -44.414  51.309  0.00  0.00    +0.000 C 
BRANCH  33  39
ATOM     39  N   UNL     1      48.779 -41.600  46.711  0.00  0.00    +0.000 NA
ATOM     40  C   UNL     1      47.412 -41.038  46.729  0.00  0.00    +0.000 C 
ATOM     41  C   UNL     1      49.768 -40.524  46.930  0.00  0.00    +0.000 C 
ATOM     42  C   UNL     1      47.221 -39.909  45.712  0.00  0.00    +0.000 C 
ATOM     43  C   UNL     1      49.636 -39.381  45.920  0.00  0.00    +0.000 C 
ATOM     44  C   UNL     1      48.235 -38.797  45.919  0.00  0.00    +0.000 C 
ENDBRANCH  33  39
ENDBRANCH  30  38
ENDBRANCH  20  30
TORSDOF 6
ENDMDL
MODEL 6
REMARK VINA RESULT:      -8.2      3.058      4.815
REMARK  Name = 
REMARK  8 active torsions:
REMARK  status: ('A' for Active; 'I' for Inactive)
REMARK    1  A    between atoms: O_1  and  C_21
REMARK    2  A    between atoms: O_1  and  C_38
REMARK    3  A    between atoms: O_4  and  C_26
REMARK    4  A    between atoms: N_7  and  C_11
REMARK    5  A    between atoms: C_26  and  C_33
REMARK    6  A    between atoms: C_29  and  C_37
REMARK    7  A    between atoms: C_33  and  C_42
REMARK    8  A    between atoms: C_37  and  C_43
REMARK                            x       y       z     vdW  Elec       q    Type
REMARK                         _______ _______ _______ _____ _____    ______ ____
ROOT
ATOM      1  O   UNL     1      47.579 -46.157  50.823  0.00  0.00    +0.000 OA
ATOM      2  O   UNL     1      47.759 -42.400  52.722  0.00  0.00    +0.000 OA
ATOM      3  O   UNL     1      47.100 -47.062  48.823  0.00  0.00    +0.000 OA
ATOM      4  N   UNL     1      48.258 -41.335  50.752  0.00  0.00    +0.000 N 
ATOM      5  N   UNL     1      49.089 -39.650  47.696  0.00  0.00    +0.000 NA
ATOM      6  C   UNL     1      48.568 -41.380  49.408  0.00  0.00    +0.000 A 
ATOM      7  C   UNL     1      48.566 -39.158  50.017  0.00  0.00    +0.000 A 
ATOM      8  C   UNL     1      48.229 -39.955  51.244  0.00  0.00    +0.000 C 
ATOM      9  C   UNL     1      48.399 -43.783  49.480  0.00  0.00    +0.000 A 
ATOM     10  C   UNL     1      48.528 -45.109  48.774  0.00  0.00    +0.000 C 
ATOM     11  C   UNL     1      48.765 -40.013  48.939  0.00  0.00    +0.000 A 
ATOM     12  C   UNL     1      48.096 -43.746  50.793  0.00  0.00    +0.000 A 
ATOM     13  C   UNL     1      48.701 -37.789  49.830  0.00  0.00    +0.000 A 
ATOM     14  C   UNL     1      48.648 -42.543  48.753  0.00  0.00    +0.000 A 
ATOM     15  C   UNL     1      48.015 -42.441  51.523  0.00  0.00    +0.000 A 
ATOM     16  C   UNL     1      49.061 -37.349  48.524  0.00  0.00    +0.000 A 
ATOM     17  C   UNL     1      47.845 -44.971  51.600  0.00  0.00    +0.000 C 
ATOM     18  C   UNL     1      49.237 -38.332  47.496  0.00  0.00    +0.000 A 
ATOM     19  C   UNL     1      47.656 -46.176  49.475  0.00  0.00    +0.000 C 
ATOM     20  C   UNL     1      49.619 -35.626  46.893  0.00  0.00    +0.000 A 
ATOM     21  C   UNL     1      49.255 -35.991  48.188  0.00  0.00    +0.000 A 
ATOM     22  C   UNL     1      49.579 -37.919  46.214  0.00  0.00    +0.000 A 
ATOM     23  C   UNL     1      49.766 -36.574  45.895  0.00  0.00    +0.000 A 
ENDROOT
BRANCH  10  24
ATOM     24  O   UNL     1      48.063 -44.961  47.425  0.00  0.00    +0.000 OA
ATOM     25  H   UNL     1      47.425 -44.219  47.437  0.00  0.00    +0.000 HD
ENDBRANCH  10  24
BRANCH  10  26
ATOM     26  C   UNL     1      50.002 -45.567  48.749  0.00  0.00    +0.000 C 
ATOM     27  C   UNL     1      50.294 -46.805  49.592  0.00  0.00    +0.000 C 
ENDBRANCH  10  26
BRANCH  13  28
ATOM     28  C   UNL     1      48.501 -36.850  50.995  0.00  0.00    +0.000 C 
ATOM     29  C   UNL     1      47.043 -36.450  51.166  0.00  0.00    +0.000 C 
ENDBRANCH  13  28
BRANCH  20  30
ATOM     30  O   UNL     1      49.760 -34.273  46.583  0.00  0.00    +0.000 OA
BRANCH  30  38
ATOM     31  O   UNL     1      47.868 -33.867  45.311  0.00  0.00    +0.000 OA
ATOM     32  N   UNL     1      49.957 -33.536  44.402  0.00  0.00    +0.000 N 
ATOM     33  C   UNL     1      51.604 -33.770  41.994  0.00  0.00    +0.000 C 
ATOM     34  C   UNL     1      52.074 -34.257  43.388  0.00  0.00    +0.000 C 
ATOM     35  C   UNL     1      50.055 -33.804  41.964  0.00  0.00    +0.000 C 
ATOM     36  C   UNL     1      51.404 -33.501  44.531  0.00  0.00    +0.000 C 
ATOM     37  C   UNL     1      49.432 -33.056  43.138  0.00  0.00    +0.000 C 
ATOM     38  C   UNL     1      49.090 -33.889  45.425  0.00  0.00    +0.000 C 
BRANCH  33  39
ATOM     39  N   UNL     1      52.200 -34.580  40.885  0.00  0.00    +0.000 NA
ATOM     40  C   UNL     1      51.167 -35.282  40.093  0.00  0.00    +0.000 C 
ATOM     41  C   UNL     1      53.049 -33.765  39.992  0.00  0.00    +0.000 C 
ATOM     42  C   UNL     1      51.758 -36.140  38.972  0.00  0.00    +0.000 C 
ATOM     43  C   UNL     1      53.688 -34.584  38.867  0.00  0.00    +0.000 C 
ATOM     44  C   UNL     1      52.640 -35.318  38.049  0.00  0.00    +0.000 C 
ENDBRANCH  33  39
ENDBRANCH  30  38
ENDBRANCH  20  30
TORSDOF 6
ENDMDL
MODEL 7
REMARK VINA RESULT:      -8.2      1.957      2.826
REMARK  Name = 
REMARK  8 active torsions:
REMARK  status: ('A' for Active; 'I' for Inactive)
REMARK    1  A    between atoms: O_1  and  C_21
REMARK    2  A    between atoms: O_1  and  C_38
REMARK    3  A    between atoms: O_4  and  C_26
REMARK    4  A    between atoms: N_7  and  C_11
REMARK    5  A    between atoms: C_26  and  C_33
REMARK    6  A    between atoms: C_29  and  C_37
REMARK    7  A    between atoms: C_33  and  C_42
REMARK    8  A    between atoms: C_37  and  C_43
REMARK                            x       y       z     vdW  Elec       q    Type
REMARK                         _______ _______ _______ _____ _____    ______ ____
ROOT
ATOM      1  O   UNL     1      47.453 -46.315  52.079  0.00  0.00    +0.000 OA
ATOM      2  O   UNL     1      47.561 -42.128  52.536  0.00  0.00    +0.000 OA
ATOM      3  O   UNL     1      47.109 -47.873  50.498  0.00  0.00    +0.000 OA
ATOM      4  N   UNL     1      48.229 -41.824  50.361  0.00  0.00    +0.000 N 
ATOM      5  N   UNL     1      49.320 -41.323  46.981  0.00  0.00    +0.000 NA
ATOM      6  C   UNL     1      48.638 -42.340  49.148  0.00  0.00    +0.000 A 
ATOM      7  C   UNL     1      48.633 -40.046  48.930  0.00  0.00    +0.000 A 
ATOM      8  C   UNL     1      48.189 -40.360  50.330  0.00  0.00    +0.000 C 
ATOM      9  C   UNL     1      48.417 -44.563  50.052  0.00  0.00    +0.000 A 
ATOM     10  C   UNL     1      48.574 -46.052  49.873  0.00  0.00    +0.000 C 
ATOM     11  C   UNL     1      48.896 -41.225  48.243  0.00  0.00    +0.000 A 
ATOM     12  C   UNL     1      48.017 -44.066  51.239  0.00  0.00    +0.000 A 
ATOM     13  C   UNL     1      48.808 -38.831  48.283  0.00  0.00    +0.000 A 
ATOM     14  C   UNL     1      48.745 -43.658  48.955  0.00  0.00    +0.000 A 
ATOM     15  C   UNL     1      47.907 -42.588  51.452  0.00  0.00    +0.000 A 
ATOM     16  C   UNL     1      49.274 -38.879  46.937  0.00  0.00    +0.000 A 
ATOM     17  C   UNL     1      47.682 -44.928  52.405  0.00  0.00    +0.000 C 
ATOM     18  C   UNL     1      49.509 -40.160  46.340  0.00  0.00    +0.000 A 
ATOM     19  C   UNL     1      47.631 -46.809  50.836  0.00  0.00    +0.000 C 
ATOM     20  C   UNL     1      49.987 -37.840  44.851  0.00  0.00    +0.000 A 
ATOM     21  C   UNL     1      49.519 -37.726  46.159  0.00  0.00    +0.000 A 
ATOM     22  C   UNL     1      49.955 -40.225  45.026  0.00  0.00    +0.000 A 
ATOM     23  C   UNL     1      50.191 -39.078  44.267  0.00  0.00    +0.000 A 
ENDROOT
BRANCH  10  24
ATOM     24  O   UNL     1      48.216 -46.395  48.527  0.00  0.00    +0.000 OA
ATOM     25  H   UNL     1      47.496 -47.054  48.596  0.00  0.00    +0.000 HD
ENDBRANCH  10  24
BRANCH  10  26
ATOM     26  C   UNL     1      50.036 -46.476  50.126  0.00  0.00    +0.000 C 
ATOM     27  C   UNL     1      50.853 -46.717  48.860  0.00  0.00    +0.000 C 
ENDBRANCH  10  26
BRANCH  13  28
ATOM     28  C   UNL     1      48.539 -37.542  49.021  0.00  0.00    +0.000 C 
ATOM     29  C   UNL     1      49.516 -37.321  50.165  0.00  0.00    +0.000 C 
ENDBRANCH  13  28
BRANCH  20  30
ATOM     30  O   UNL     1      50.178 -36.683  44.094  0.00  0.00    +0.000 OA
BRANCH  30  38
ATOM     31  O   UNL     1      48.096 -35.862  43.496  0.00  0.00    +0.000 OA
ATOM     32  N   UNL     1      49.351 -34.768  45.087  0.00  0.00    +0.000 N 
ATOM     33  C   UNL     1      50.140 -32.163  46.162  0.00  0.00    +0.000 C 
ATOM     34  C   UNL     1      51.156 -33.292  45.859  0.00  0.00    +0.000 C 
ATOM     35  C   UNL     1      48.906 -32.359  45.246  0.00  0.00    +0.000 C 
ATOM     36  C   UNL     1      50.529 -34.682  45.933  0.00  0.00    +0.000 C 
ATOM     37  C   UNL     1      48.330 -33.768  45.336  0.00  0.00    +0.000 C 
ATOM     38  C   UNL     1      49.120 -35.781  44.169  0.00  0.00    +0.000 C 
BRANCH  33  39
ATOM     39  N   UNL     1      50.745 -30.803  45.997  0.00  0.00    +0.000 NA
ATOM     40  C   UNL     1      52.166 -30.775  46.406  0.00  0.00    +0.000 C 
ATOM     41  C   UNL     1      50.609 -30.294  44.617  0.00  0.00    +0.000 C 
ATOM     42  C   UNL     1      52.794 -29.385  46.274  0.00  0.00    +0.000 C 
ATOM     43  C   UNL     1      51.199 -28.894  44.439  0.00  0.00    +0.000 C 
ATOM     44  C   UNL     1      52.657 -28.845  44.861  0.00  0.00    +0.000 C 
ENDBRANCH  33  39
ENDBRANCH  30  38
ENDBRANCH  20  30
TORSDOF 6
ENDMDL
MODEL 8
REMARK VINA RESULT:      -8.1     10.939     17.073
REMARK  Name = 
REMARK  8 active torsions:
REMARK  status: ('A' for Active; 'I' for Inactive)
REMARK    1  A    between atoms: O_1  and  C_21
REMARK    2  A    between atoms: O_1  and  C_38
REMARK    3  A    between atoms: O_4  and  C_26
REMARK    4  A    between atoms: N_7  and  C_11
REMARK    5  A    between atoms: C_26  and  C_33
REMARK    6  A    between atoms: C_29  and  C_37
REMARK    7  A    between atoms: C_33  and  C_42
REMARK    8  A    between atoms: C_37  and  C_43
REMARK                            x       y       z     vdW  Elec       q    Type
REMARK                         _______ _______ _______ _____ _____    ______ ____
ROOT
ATOM      1  O   UNL     1      41.545 -60.103  57.535  0.00  0.00    +0.000 OA
ATOM      2  O   UNL     1      45.059 -58.134  58.771  0.00  0.00    +0.000 OA
ATOM      3  O   UNL     1      39.554 -59.658  56.595  0.00  0.00    +0.000 OA
ATOM      4  N   UNL     1      44.801 -56.498  57.183  0.00  0.00    +0.000 N 
ATOM      5  N   UNL     1      44.448 -53.955  54.678  0.00  0.00    +0.000 NA
ATOM      6  C   UNL     1      44.136 -55.981  56.089  0.00  0.00    +0.000 A 
ATOM      7  C   UNL     1      45.853 -54.523  56.577  0.00  0.00    +0.000 A 
ATOM      8  C   UNL     1      45.919 -55.639  57.580  0.00  0.00    +0.000 C 
ATOM      9  C   UNL     1      42.625 -57.857  56.158  0.00  0.00    +0.000 A 
ATOM     10  C   UNL     1      41.465 -58.605  55.551  0.00  0.00    +0.000 C 
ATOM     11  C   UNL     1      44.795 -54.739  55.701  0.00  0.00    +0.000 A 
ATOM     12  C   UNL     1      43.269 -58.367  57.226  0.00  0.00    +0.000 A 
ATOM     13  C   UNL     1      46.647 -53.397  56.416  0.00  0.00    +0.000 A 
ATOM     14  C   UNL     1      43.080 -56.607  55.560  0.00  0.00    +0.000 A 
ATOM     15  C   UNL     1      44.457 -57.667  57.810  0.00  0.00    +0.000 A 
ATOM     16  C   UNL     1      46.328 -52.533  55.328  0.00  0.00    +0.000 A 
ATOM     17  C   UNL     1      42.870 -59.645  57.877  0.00  0.00    +0.000 C 
ATOM     18  C   UNL     1      45.211 -52.866  54.496  0.00  0.00    +0.000 A 
ATOM     19  C   UNL     1      40.773 -59.480  56.620  0.00  0.00    +0.000 C 
ATOM     20  C   UNL     1      46.703 -50.566  53.940  0.00  0.00    +0.000 A 
ATOM     21  C   UNL     1      47.059 -51.363  55.026  0.00  0.00    +0.000 A 
ATOM     22  C   UNL     1      44.881 -52.030  53.437  0.00  0.00    +0.000 A 
ATOM     23  C   UNL     1      45.609 -50.875  53.150  0.00  0.00    +0.000 A 
ENDROOT
BRANCH  10  24
ATOM     24  O   UNL     1      40.510 -57.653  55.059  0.00  0.00    +0.000 OA
ATOM     25  H   UNL     1      39.677 -58.148  54.923  0.00  0.00    +0.000 HD
ENDBRANCH  10  24
BRANCH  10  26
ATOM     26  C   UNL     1      41.943 -59.486  54.377  0.00  0.00    +0.000 C 
ATOM     27  C   UNL     1      40.912 -59.680  53.269  0.00  0.00    +0.000 C 
ENDBRANCH  10  26
BRANCH  13  28
ATOM     28  C   UNL     1      47.807 -53.157  57.351  0.00  0.00    +0.000 C 
ATOM     29  C   UNL     1      49.103 -53.756  56.825  0.00  0.00    +0.000 C 
ENDBRANCH  13  28
BRANCH  20  30
ATOM     30  O   UNL     1      47.418 -49.393  53.695  0.00  0.00    +0.000 OA
BRANCH  30  38
ATOM     31  O   UNL     1      48.690 -50.116  51.899  0.00  0.00    +0.000 OA
ATOM     32  N   UNL     1      47.462 -48.176  51.731  0.00  0.00    +0.000 N 
ATOM     33  C   UNL     1      47.393 -45.451  50.666  0.00  0.00    +0.000 C 
ATOM     34  C   UNL     1      47.011 -45.795  52.128  0.00  0.00    +0.000 C 
ATOM     35  C   UNL     1      48.375 -46.534  50.152  0.00  0.00    +0.000 C 
ATOM     36  C   UNL     1      46.509 -47.228  52.282  0.00  0.00    +0.000 C 
ATOM     37  C   UNL     1      47.841 -47.948  50.350  0.00  0.00    +0.000 C 
ATOM     38  C   UNL     1      47.921 -49.301  52.400  0.00  0.00    +0.000 C 
BRANCH  33  39
ATOM     39  N   UNL     1      47.968 -44.074  50.544  0.00  0.00    +0.000 NA
ATOM     40  C   UNL     1      47.636 -43.447  49.247  0.00  0.00    +0.000 C 
ATOM     41  C   UNL     1      47.546 -43.192  51.652  0.00  0.00    +0.000 C 
ATOM     42  C   UNL     1      48.241 -42.050  49.090  0.00  0.00    +0.000 C 
ATOM     43  C   UNL     1      48.148 -41.788  51.556  0.00  0.00    +0.000 C 
ATOM     44  C   UNL     1      47.822 -41.132  50.226  0.00  0.00    +0.000 C 
ENDBRANCH  33  39
ENDBRANCH  30  38
ENDBRANCH  20  30
TORSDOF 6
ENDMDL
MODEL 9
REMARK VINA RESULT:      -8.1      3.037     13.403
REMARK  Name = 
REMARK  8 active torsions:
REMARK  status: ('A' for Active; 'I' for Inactive)
REMARK    1  A    between atoms: O_1  and  C_21
REMARK    2  A    between atoms: O_1  and  C_38
REMARK    3  A    between atoms: O_4  and  C_26
REMARK    4  A    between atoms: N_7  and  C_11
REMARK    5  A    between atoms: C_26  and  C_33
REMARK    6  A    between atoms: C_29  and  C_37
REMARK    7  A    between atoms: C_33  and  C_42
REMARK    8  A    between atoms: C_37  and  C_43
REMARK                            x       y       z     vdW  Elec       q    Type
REMARK                         _______ _______ _______ _____ _____    ______ ____
ROOT
ATOM      1  O   UNL     1      50.944 -31.608  43.539  0.00  0.00    +0.000 OA
ATOM      2  O   UNL     1      49.181 -35.245  42.349  0.00  0.00    +0.000 OA
ATOM      3  O   UNL     1      51.111 -30.276  45.340  0.00  0.00    +0.000 OA
ATOM      4  N   UNL     1      49.281 -36.088  44.482  0.00  0.00    +0.000 N 
ATOM      5  N   UNL     1      49.469 -37.448  47.795  0.00  0.00    +0.000 NA
ATOM      6  C   UNL     1      49.684 -35.980  45.797  0.00  0.00    +0.000 A 
ATOM      7  C   UNL     1      48.588 -37.997  45.599  0.00  0.00    +0.000 A 
ATOM      8  C   UNL     1      48.566 -37.345  44.246  0.00  0.00    +0.000 C 
ATOM      9  C   UNL     1      50.658 -33.835  45.291  0.00  0.00    +0.000 A 
ATOM     10  C   UNL     1      51.453 -32.636  45.747  0.00  0.00    +0.000 C 
ATOM     11  C   UNL     1      49.253 -37.180  46.505  0.00  0.00    +0.000 A 
ATOM     12  C   UNL     1      50.267 -33.933  44.005  0.00  0.00    +0.000 A 
ATOM     13  C   UNL     1      48.079 -39.214  46.030  0.00  0.00    +0.000 A 
ATOM     14  C   UNL     1      50.354 -34.908  46.231  0.00  0.00    +0.000 A 
ATOM     15  C   UNL     1      49.523 -35.140  43.522  0.00  0.00    +0.000 A 
ATOM     16  C   UNL     1      48.296 -39.556  47.396  0.00  0.00    +0.000 A 
ATOM     17  C   UNL     1      50.556 -32.885  42.989  0.00  0.00    +0.000 C 
ATOM     18  C   UNL     1      48.997 -38.626  48.231  0.00  0.00    +0.000 A 
ATOM     19  C   UNL     1      51.131 -31.411  44.861  0.00  0.00    +0.000 C 
ATOM     20  C   UNL     1      48.110 -41.049  49.313  0.00  0.00    +0.000 A 
ATOM     21  C   UNL     1      47.856 -40.768  47.972  0.00  0.00    +0.000 A 
ATOM     22  C   UNL     1      49.209 -38.939  49.567  0.00  0.00    +0.000 A 
ATOM     23  C   UNL     1      48.767 -40.139  50.125  0.00  0.00    +0.000 A 
ENDROOT
BRANCH  10  24
ATOM     24  O   UNL     1      51.085 -32.326  47.098  0.00  0.00    +0.000 OA
ATOM     25  H   UNL     1      51.049 -33.180  47.574  0.00  0.00    +0.000 HD
ENDBRANCH  10  24
BRANCH  10  26
ATOM     26  C   UNL     1      52.966 -32.940  45.696  0.00  0.00    +0.000 C 
ATOM     27  C   UNL     1      53.848 -31.868  46.331  0.00  0.00    +0.000 C 
ENDBRANCH  10  26
BRANCH  13  28
ATOM     28  C   UNL     1      47.366 -40.117  45.053  0.00  0.00    +0.000 C 
ATOM     29  C   UNL     1      45.890 -39.774  44.926  0.00  0.00    +0.000 C 
ENDBRANCH  13  28
BRANCH  20  30
ATOM     30  O   UNL     1      47.624 -42.235  49.863  0.00  0.00    +0.000 OA
BRANCH  30  38
ATOM     31  O   UNL     1      48.875 -43.507  48.385  0.00  0.00    +0.000 OA
ATOM     32  N   UNL     1      48.379 -44.331  50.477  0.00  0.00    +0.000 N 
ATOM     33  C   UNL     1      47.668 -46.711  52.025  0.00  0.00    +0.000 C 
ATOM     34  C   UNL     1      46.925 -45.360  52.168  0.00  0.00    +0.000 C 
ATOM     35  C   UNL     1      48.283 -46.781  50.603  0.00  0.00    +0.000 C 
ATOM     36  C   UNL     1      47.801 -44.166  51.800  0.00  0.00    +0.000 C 
ATOM     37  C   UNL     1      49.129 -45.556  50.273  0.00  0.00    +0.000 C 
ATOM     38  C   UNL     1      48.340 -43.367  49.482  0.00  0.00    +0.000 C 
BRANCH  33  39
ATOM     39  N   UNL     1      46.772 -47.878  52.301  0.00  0.00    +0.000 NA
ATOM     40  C   UNL     1      45.863 -48.160  51.170  0.00  0.00    +0.000 C 
ATOM     41  C   UNL     1      47.533 -49.097  52.651  0.00  0.00    +0.000 C 
ATOM     42  C   UNL     1      44.917 -49.332  51.446  0.00  0.00    +0.000 C 
ATOM     43  C   UNL     1      46.629 -50.292  52.962  0.00  0.00    +0.000 C 
ATOM     44  C   UNL     1      45.683 -50.591  51.813  0.00  0.00    +0.000 C 
ENDBRANCH  33  39
ENDBRANCH  30  38
ENDBRANCH  20  30
TORSDOF 6
ENDMDL
