MODEL 1
REMARK VINA RESULT:      -5.7      0.000      0.000
REMARK  Name = 
REMARK  4 active torsions:
REMARK  status: ('A' for Active; 'I' for Inactive)
REMARK    1  A    between atoms: C_1  and  C_6
REMARK    2  A    between atoms: C_1  and  C_7
REMARK    3  A    between atoms: C_9  and  C_14
REMARK    4  A    between atoms: C_11  and  C_15
REMARK                            x       y       z     vdW  Elec       q    Type
REMARK                         _______ _______ _______ _____ _____    ______ ____
ROOT
ATOM      1  C   UNL     1      49.610 -48.125  50.997  0.00  0.00    +0.000 C 
ATOM      2  C   UNL     1      48.764 -47.171  50.160  0.00  0.00    +0.000 C 
ATOM      3  C   UNL     1      50.084 -47.666  49.628  0.00  0.00    +0.000 C 
ATOM      4  C   UNL     1      48.557 -45.793  50.603  0.00  0.00    +0.000 C 
ATOM      5  C   UNL     1      51.227 -46.729  49.393  0.00  0.00    +0.000 C 
ATOM      6  C   UNL     1      50.323 -47.650  52.242  0.00  0.00    +0.000 C 
ATOM      7  C   UNL     1      49.125 -49.551  51.111  0.00  0.00    +0.000 C 
ATOM      8  C   UNL     1      49.136 -44.643  50.208  0.00  0.00    +0.000 C 
ATOM      9  C   UNL     1      47.528 -45.541  51.688  0.00  0.00    +0.000 C 
ATOM     10  C   UNL     1      50.804 -45.604  48.449  0.00  0.00    +0.000 C 
ATOM     11  C   UNL     1      50.206 -44.382  49.173  0.00  0.00    +0.000 C 
ATOM     12  C   UNL     1      48.605 -43.478  51.004  0.00  0.00    +0.000 C 
ATOM     13  C   UNL     1      47.921 -44.150  52.188  0.00  0.00    +0.000 C 
ATOM     14  C   UNL     1      46.100 -45.578  51.149  0.00  0.00    +0.000 C 
ATOM     15  C   UNL     1      49.708 -43.386  48.115  0.00  0.00    +0.000 C 
ENDROOT
TORSDOF 0
ENDMDL
MODEL 2
REMARK VINA RESULT:      -5.5      2.163      4.934
REMARK  Name = 
REMARK  4 active torsions:
REMARK  status: ('A' for Active; 'I' for Inactive)
REMARK    1  A    between atoms: C_1  and  C_6
REMARK    2  A    between atoms: C_1  and  C_7
REMARK    3  A    between atoms: C_9  and  C_14
REMARK    4  A    between atoms: C_11  and  C_15
REMARK                            x       y       z     vdW  Elec       q    Type
REMARK                         _______ _______ _______ _____ _____    ______ ____
ROOT
ATOM      1  C   UNL     1      45.390 -47.227  51.307  0.00  0.00    +0.000 C 
ATOM      2  C   UNL     1      46.547 -47.474  52.271  0.00  0.00    +0.000 C 
ATOM      3  C   UNL     1      46.636 -46.359  51.259  0.00  0.00    +0.000 C 
ATOM      4  C   UNL     1      47.338 -48.698  52.170  0.00  0.00    +0.000 C 
ATOM      5  C   UNL     1      47.652 -46.388  50.161  0.00  0.00    +0.000 C 
ATOM      6  C   UNL     1      45.095 -48.189  50.180  0.00  0.00    +0.000 C 
ATOM      7  C   UNL     1      44.141 -46.601  51.882  0.00  0.00    +0.000 C 
ATOM      8  C   UNL     1      48.551 -48.923  51.629  0.00  0.00    +0.000 C 
ATOM      9  C   UNL     1      46.758 -49.972  52.753  0.00  0.00    +0.000 C 
ATOM     10  C   UNL     1      49.059 -46.522  50.743  0.00  0.00    +0.000 C 
ATOM     11  C   UNL     1      49.511 -47.984  50.934  0.00  0.00    +0.000 C 
ATOM     12  C   UNL     1      48.923 -50.379  51.740  0.00  0.00    +0.000 C 
ATOM     13  C   UNL     1      47.596 -51.052  52.069  0.00  0.00    +0.000 C 
ATOM     14  C   UNL     1      46.885 -50.020  54.274  0.00  0.00    +0.000 C 
ATOM     15  C   UNL     1      50.875 -47.982  51.638  0.00  0.00    +0.000 C 
ENDROOT
TORSDOF 0
ENDMDL
MODEL 3
REMARK VINA RESULT:      -5.5      2.367      3.837
REMARK  Name = 
REMARK  4 active torsions:
REMARK  status: ('A' for Active; 'I' for Inactive)
REMARK    1  A    between atoms: C_1  and  C_6
REMARK    2  A    between atoms: C_1  and  C_7
REMARK    3  A    between atoms: C_9  and  C_14
REMARK    4  A    between atoms: C_11  and  C_15
REMARK                            x       y       z     vdW  Elec       q    Type
REMARK                         _______ _______ _______ _____ _____    ______ ____
ROOT
ATOM      1  C   UNL     1      46.330 -50.397  52.843  0.00  0.00    +0.000 C 
ATOM      2  C   UNL     1      46.362 -49.441  51.655  0.00  0.00    +0.000 C 
ATOM      3  C   UNL     1      47.369 -50.559  51.746  0.00  0.00    +0.000 C 
ATOM      4  C   UNL     1      46.719 -48.038  51.851  0.00  0.00    +0.000 C 
ATOM      5  C   UNL     1      48.829 -50.277  51.908  0.00  0.00    +0.000 C 
ATOM      6  C   UNL     1      46.751 -49.944  54.222  0.00  0.00    +0.000 C 
ATOM      7  C   UNL     1      45.210 -51.409  52.879  0.00  0.00    +0.000 C 
ATOM      8  C   UNL     1      47.872 -47.380  51.622  0.00  0.00    +0.000 C 
ATOM      9  C   UNL     1      45.660 -47.103  52.403  0.00  0.00    +0.000 C 
ATOM     10  C   UNL     1      49.324 -49.375  50.777  0.00  0.00    +0.000 C 
ATOM     11  C   UNL     1      49.198 -47.870  51.087  0.00  0.00    +0.000 C 
ATOM     12  C   UNL     1      47.751 -45.934  52.029  0.00  0.00    +0.000 C 
ATOM     13  C   UNL     1      46.495 -45.920  52.892  0.00  0.00    +0.000 C 
ATOM     14  C   UNL     1      44.644 -46.692  51.340  0.00  0.00    +0.000 C 
ATOM     15  C   UNL     1      49.604 -47.081  49.834  0.00  0.00    +0.000 C 
ENDROOT
TORSDOF 0
ENDMDL
MODEL 4
REMARK VINA RESULT:      -5.4      6.931     10.110
REMARK  Name = 
REMARK  4 active torsions:
REMARK  status: ('A' for Active; 'I' for Inactive)
REMARK    1  A    between atoms: C_1  and  C_6
REMARK    2  A    between atoms: C_1  and  C_7
REMARK    3  A    between atoms: C_9  and  C_14
REMARK    4  A    between atoms: C_11  and  C_15
REMARK                            x       y       z     vdW  Elec       q    Type
REMARK                         _______ _______ _______ _____ _____    ______ ____
ROOT
ATOM      1  C   UNL     1      48.202 -53.856  56.491  0.00  0.00    +0.000 C 
ATOM      2  C   UNL     1      47.021 -52.890  56.441  0.00  0.00    +0.000 C 
ATOM      3  C   UNL     1      46.928 -54.150  57.265  0.00  0.00    +0.000 C 
ATOM      4  C   UNL     1      46.278 -52.703  55.197  0.00  0.00    +0.000 C 
ATOM      5  C   UNL     1      45.953 -55.231  56.921  0.00  0.00    +0.000 C 
ATOM      6  C   UNL     1      48.570 -54.700  55.293  0.00  0.00    +0.000 C 
ATOM      7  C   UNL     1      49.406 -53.424  57.293  0.00  0.00    +0.000 C 
ATOM      8  C   UNL     1      45.093 -53.201  54.793  0.00  0.00    +0.000 C 
ATOM      9  C   UNL     1      46.882 -51.806  54.134  0.00  0.00    +0.000 C 
ATOM     10  C   UNL     1      44.532 -54.670  56.874  0.00  0.00    +0.000 C 
ATOM     11  C   UNL     1      44.126 -54.132  55.487  0.00  0.00    +0.000 C 
ATOM     12  C   UNL     1      44.770 -52.741  53.395  0.00  0.00    +0.000 C 
ATOM     13  C   UNL     1      46.107 -52.221  52.883  0.00  0.00    +0.000 C 
ATOM     14  C   UNL     1      46.703 -50.325  54.459  0.00  0.00    +0.000 C 
ATOM     15  C   UNL     1      42.738 -53.486  55.605  0.00  0.00    +0.000 C 
ENDROOT
TORSDOF 0
ENDMDL
MODEL 5
REMARK VINA RESULT:      -5.3      1.010      3.891
REMARK  Name = 
REMARK  4 active torsions:
REMARK  status: ('A' for Active; 'I' for Inactive)
REMARK    1  A    between atoms: C_1  and  C_6
REMARK    2  A    between atoms: C_1  and  C_7
REMARK    3  A    between atoms: C_9  and  C_14
REMARK    4  A    between atoms: C_11  and  C_15
REMARK                            x       y       z     vdW  Elec       q    Type
REMARK                         _______ _______ _______ _____ _____    ______ ____
ROOT
ATOM      1  C   UNL     1      49.360 -43.871  48.070  0.00  0.00    +0.000 C 
ATOM      2  C   UNL     1      49.777 -44.174  49.506  0.00  0.00    +0.000 C 
ATOM      3  C   UNL     1      50.619 -44.671  48.358  0.00  0.00    +0.000 C 
ATOM      4  C   UNL     1      48.966 -45.063  50.334  0.00  0.00    +0.000 C 
ATOM      5  C   UNL     1      50.778 -46.134  48.090  0.00  0.00    +0.000 C 
ATOM      6  C   UNL     1      48.162 -44.547  47.446  0.00  0.00    +0.000 C 
ATOM      7  C   UNL     1      49.547 -42.452  47.587  0.00  0.00    +0.000 C 
ATOM      8  C   UNL     1      49.133 -46.358  50.666  0.00  0.00    +0.000 C 
ATOM      9  C   UNL     1      47.705 -44.499  50.962  0.00  0.00    +0.000 C 
ATOM     10  C   UNL     1      51.320 -46.845  49.330  0.00  0.00    +0.000 C 
ATOM     11  C   UNL     1      50.218 -47.340  50.289  0.00  0.00    +0.000 C 
ATOM     12  C   UNL     1      47.989 -46.842  51.519  0.00  0.00    +0.000 C 
ATOM     13  C   UNL     1      46.929 -45.766  51.321  0.00  0.00    +0.000 C 
ATOM     14  C   UNL     1      48.006 -43.639  52.187  0.00  0.00    +0.000 C 
ATOM     15  C   UNL     1      50.890 -47.916  51.544  0.00  0.00    +0.000 C 
ENDROOT
TORSDOF 0
ENDMDL
MODEL 6
REMARK VINA RESULT:      -5.2      7.779     10.261
REMARK  Name = 
REMARK  4 active torsions:
REMARK  status: ('A' for Active; 'I' for Inactive)
REMARK    1  A    between atoms: C_1  and  C_6
REMARK    2  A    between atoms: C_1  and  C_7
REMARK    3  A    between atoms: C_9  and  C_14
REMARK    4  A    between atoms: C_11  and  C_15
REMARK                            x       y       z     vdW  Elec       q    Type
REMARK                         _______ _______ _______ _____ _____    ______ ____
ROOT
ATOM      1  C   UNL     1      46.195 -52.752  55.198  0.00  0.00    +0.000 C 
ATOM      2  C   UNL     1      47.003 -54.047  55.207  0.00  0.00    +0.000 C 
ATOM      3  C   UNL     1      46.495 -53.468  56.504  0.00  0.00    +0.000 C 
ATOM      4  C   UNL     1      48.416 -54.032  54.835  0.00  0.00    +0.000 C 
ATOM      5  C   UNL     1      47.439 -52.967  57.552  0.00  0.00    +0.000 C 
ATOM      6  C   UNL     1      46.851 -51.425  54.895  0.00  0.00    +0.000 C 
ATOM      7  C   UNL     1      44.778 -52.834  54.683  0.00  0.00    +0.000 C 
ATOM      8  C   UNL     1      49.529 -54.057  55.594  0.00  0.00    +0.000 C 
ATOM      9  C   UNL     1      48.764 -53.985  53.360  0.00  0.00    +0.000 C 
ATOM     10  C   UNL     1      48.418 -54.069  57.954  0.00  0.00    +0.000 C 
ATOM     11  C   UNL     1      49.698 -54.101  57.095  0.00  0.00    +0.000 C 
ATOM     12  C   UNL     1      50.764 -53.984  54.733  0.00  0.00    +0.000 C 
ATOM     13  C   UNL     1      50.220 -53.521  53.387  0.00  0.00    +0.000 C 
ATOM     14  C   UNL     1      48.604 -55.345  52.685  0.00  0.00    +0.000 C 
ATOM     15  C   UNL     1      50.533 -55.321  57.513  0.00  0.00    +0.000 C 
ENDROOT
TORSDOF 0
ENDMDL
MODEL 7
REMARK VINA RESULT:      -5.2      1.176      4.196
REMARK  Name = 
REMARK  4 active torsions:
REMARK  status: ('A' for Active; 'I' for Inactive)
REMARK    1  A    between atoms: C_1  and  C_6
REMARK    2  A    between atoms: C_1  and  C_7
REMARK    3  A    between atoms: C_9  and  C_14
REMARK    4  A    between atoms: C_11  and  C_15
REMARK                            x       y       z     vdW  Elec       q    Type
REMARK                         _______ _______ _______ _____ _____    ______ ____
ROOT
ATOM      1  C   UNL     1      50.208 -44.979  48.307  0.00  0.00    +0.000 C 
ATOM      2  C   UNL     1      49.020 -45.792  48.814  0.00  0.00    +0.000 C 
ATOM      3  C   UNL     1      48.998 -44.287  48.911  0.00  0.00    +0.000 C 
ATOM      4  C   UNL     1      49.168 -46.657  49.982  0.00  0.00    +0.000 C 
ATOM      5  C   UNL     1      48.986 -43.596  50.237  0.00  0.00    +0.000 C 
ATOM      6  C   UNL     1      51.526 -44.979  49.047  0.00  0.00    +0.000 C 
ATOM      7  C   UNL     1      50.379 -44.876  46.810  0.00  0.00    +0.000 C 
ATOM      8  C   UNL     1      48.802 -46.476  51.266  0.00  0.00    +0.000 C 
ATOM      9  C   UNL     1      49.836 -48.005  49.791  0.00  0.00    +0.000 C 
ATOM     10  C   UNL     1      47.801 -44.075  51.075  0.00  0.00    +0.000 C 
ATOM     11  C   UNL     1      48.117 -45.311  51.942  0.00  0.00    +0.000 C 
ATOM     12  C   UNL     1      49.214 -47.656  52.109  0.00  0.00    +0.000 C 
ATOM     13  C   UNL     1      50.218 -48.382  51.222  0.00  0.00    +0.000 C 
ATOM     14  C   UNL     1      48.898 -49.029  49.156  0.00  0.00    +0.000 C 
ATOM     15  C   UNL     1      46.822 -45.765  52.630  0.00  0.00    +0.000 C 
ENDROOT
TORSDOF 0
ENDMDL
MODEL 8
REMARK VINA RESULT:      -5.0     14.730     16.726
REMARK  Name = 
REMARK  4 active torsions:
REMARK  status: ('A' for Active; 'I' for Inactive)
REMARK    1  A    between atoms: C_1  and  C_6
REMARK    2  A    between atoms: C_1  and  C_7
REMARK    3  A    between atoms: C_9  and  C_14
REMARK    4  A    between atoms: C_11  and  C_15
REMARK                            x       y       z     vdW  Elec       q    Type
REMARK                         _______ _______ _______ _____ _____    ______ ____
ROOT
ATOM      1  C   UNL     1      61.694 -46.811  59.852  0.00  0.00    +0.000 C 
ATOM      2  C   UNL     1      61.200 -46.672  61.289  0.00  0.00    +0.000 C 
ATOM      3  C   UNL     1      62.621 -47.099  61.022  0.00  0.00    +0.000 C 
ATOM      4  C   UNL     1      60.184 -47.586  61.807  0.00  0.00    +0.000 C 
ATOM      5  C   UNL     1      63.107 -48.460  61.408  0.00  0.00    +0.000 C 
ATOM      6  C   UNL     1      61.219 -47.942  58.969  0.00  0.00    +0.000 C 
ATOM      7  C   UNL     1      61.938 -45.534  59.085  0.00  0.00    +0.000 C 
ATOM      8  C   UNL     1      60.293 -48.668  62.603  0.00  0.00    +0.000 C 
ATOM      9  C   UNL     1      58.738 -47.333  61.427  0.00  0.00    +0.000 C 
ATOM     10  C   UNL     1      62.884 -48.700  62.901  0.00  0.00    +0.000 C 
ATOM     11  C   UNL     1      61.508 -49.313  63.229  0.00  0.00    +0.000 C 
ATOM     12  C   UNL     1      58.945 -49.305  62.824  0.00  0.00    +0.000 C 
ATOM     13  C   UNL     1      58.083 -48.681  61.734  0.00  0.00    +0.000 C 
ATOM     14  C   UNL     1      58.119 -46.195  62.235  0.00  0.00    +0.000 C 
ATOM     15  C   UNL     1      61.360 -49.383  64.756  0.00  0.00    +0.000 C 
ENDROOT
TORSDOF 0
ENDMDL
MODEL 9
REMARK VINA RESULT:      -4.9      8.248     10.678
REMARK  Name = 
REMARK  4 active torsions:
REMARK  status: ('A' for Active; 'I' for Inactive)
REMARK    1  A    between atoms: C_1  and  C_6
REMARK    2  A    between atoms: C_1  and  C_7
REMARK    3  A    between atoms: C_9  and  C_14
REMARK    4  A    between atoms: C_11  and  C_15
REMARK                            x       y       z     vdW  Elec       q    Type
REMARK                         _______ _______ _______ _____ _____    ______ ____
ROOT
ATOM      1  C   UNL     1      48.096 -53.524  56.262  0.00  0.00    +0.000 C 
ATOM      2  C   UNL     1      47.081 -54.295  55.424  0.00  0.00    +0.000 C 
ATOM      3  C   UNL     1      47.500 -52.908  55.007  0.00  0.00    +0.000 C 
ATOM      4  C   UNL     1      45.756 -54.591  55.965  0.00  0.00    +0.000 C 
ATOM      5  C   UNL     1      46.525 -51.774  54.996  0.00  0.00    +0.000 C 
ATOM      6  C   UNL     1      47.730 -52.974  57.621  0.00  0.00    +0.000 C 
ATOM      7  C   UNL     1      49.535 -53.978  56.184  0.00  0.00    +0.000 C 
ATOM      8  C   UNL     1      44.563 -54.004  55.751  0.00  0.00    +0.000 C 
ATOM      9  C   UNL     1      45.627 -55.745  56.941  0.00  0.00    +0.000 C 
ATOM     10  C   UNL     1      45.322 -52.116  54.118  0.00  0.00    +0.000 C 
ATOM     11  C   UNL     1      44.186 -52.829  54.878  0.00  0.00    +0.000 C 
ATOM     12  C   UNL     1      43.490 -54.656  56.584  0.00  0.00    +0.000 C 
ATOM     13  C   UNL     1      44.284 -55.453  57.611  0.00  0.00    +0.000 C 
ATOM     14  C   UNL     1      45.637 -57.100  56.237  0.00  0.00    +0.000 C 
ATOM     15  C   UNL     1      43.102 -53.230  53.866  0.00  0.00    +0.000 C 
ENDROOT
TORSDOF 0
ENDMDL
