MODEL 1
REMARK VINA RESULT:      -8.2      0.000      0.000
REMARK  Name = JAK3_Inhibitor.pdbqt.pdb
REMARK  1 active torsions:
REMARK  status: ('A' for Active; 'I' for Inactive)
REMARK    1  A    between atoms: C_7  and  C_20
REMARK                            x       y       z     vdW  Elec       q    Type
REMARK                         _______ _______ _______ _____ _____    ______ ____
ROOT
ATOM      1  O   UNL     1      50.063 -38.168  43.744  0.00  0.00    +0.000 OA
ATOM      2  N   UNL     1      50.125 -39.036  45.919  0.00  0.00    +0.000 N 
ATOM      3  C   UNL     1      49.205 -37.294  47.095  0.00  0.00    +0.000 A 
ATOM      4  C   UNL     1      49.746 -38.578  47.182  0.00  0.00    +0.000 A 
ATOM      5  C   UNL     1      49.255 -36.940  45.686  0.00  0.00    +0.000 C 
ATOM      6  C   UNL     1      48.760 -36.631  48.221  0.00  0.00    +0.000 A 
ATOM      7  C   UNL     1      48.856 -37.271  49.469  0.00  0.00    +0.000 A 
ATOM      8  C   UNL     1      49.856 -38.087  44.940  0.00  0.00    +0.000 C 
ATOM      9  C   UNL     1      49.861 -39.246  48.381  0.00  0.00    +0.000 A 
ATOM     10  C   UNL     1      48.862 -35.839  45.129  0.00  0.00    +0.000 C 
ATOM     11  C   UNL     1      49.408 -38.573  49.518  0.00  0.00    +0.000 A 
ATOM     12  H   UNL     1      50.540 -39.935  45.716  0.00  0.00    +0.000 HD
ATOM     13  N   UNL     1      48.555 -34.450  43.121  0.00  0.00    +0.000 N 
ATOM     14  C   UNL     1      48.447 -34.653  44.472  0.00  0.00    +0.000 C 
ATOM     15  C   UNL     1      47.881 -33.527  45.025  0.00  0.00    +0.000 C 
ATOM     16  C   UNL     1      48.067 -33.210  42.806  0.00  0.00    +0.000 C 
ATOM     17  C   UNL     1      47.641 -32.615  43.971  0.00  0.00    +0.000 C 
ATOM     18  H   UNL     1      48.937 -35.115  42.461  0.00  0.00    +0.000 HD
ENDROOT
BRANCH   7  20
ATOM     19  N   UNL     1      46.549 -35.813  52.075  0.00  0.00    +0.000 NA
ATOM     20  C   UNL     1      48.394 -36.606  50.693  0.00  0.00    +0.000 A 
ATOM     21  C   UNL     1      49.281 -36.122  51.656  0.00  0.00    +0.000 A 
ATOM     22  C   UNL     1      47.044 -36.415  50.970  0.00  0.00    +0.000 A 
ATOM     23  C   UNL     1      48.824 -35.495  52.809  0.00  0.00    +0.000 A 
ATOM     24  C   UNL     1      47.456 -35.367  52.968  0.00  0.00    +0.000 A 
ENDBRANCH   7  20
TORSDOF 1
ENDMDL
MODEL 2
REMARK VINA RESULT:      -8.1      5.950      9.154
REMARK  Name = JAK3_Inhibitor.pdbqt.pdb
REMARK  1 active torsions:
REMARK  status: ('A' for Active; 'I' for Inactive)
REMARK    1  A    between atoms: C_7  and  C_20
REMARK                            x       y       z     vdW  Elec       q    Type
REMARK                         _______ _______ _______ _____ _____    ______ ____
ROOT
ATOM      1  O   UNL     1      46.715 -41.926  51.901  0.00  0.00    +0.000 OA
ATOM      2  N   UNL     1      47.572 -44.075  51.535  0.00  0.00    +0.000 N 
ATOM      3  C   UNL     1      49.236 -43.613  50.024  0.00  0.00    +0.000 A 
ATOM      4  C   UNL     1      48.592 -44.617  50.751  0.00  0.00    +0.000 A 
ATOM      5  C   UNL     1      48.568 -42.374  50.385  0.00  0.00    +0.000 C 
ATOM      6  C   UNL     1      50.283 -43.910  49.174  0.00  0.00    +0.000 A 
ATOM      7  C   UNL     1      50.698 -45.247  49.048  0.00  0.00    +0.000 A 
ATOM      8  C   UNL     1      47.489 -42.697  51.368  0.00  0.00    +0.000 C 
ATOM      9  C   UNL     1      48.962 -45.940  50.662  0.00  0.00    +0.000 A 
ATOM     10  C   UNL     1      48.824 -41.179  49.957  0.00  0.00    +0.000 C 
ATOM     11  C   UNL     1      50.022 -46.236  49.802  0.00  0.00    +0.000 A 
ATOM     12  H   UNL     1      46.961 -44.593  52.150  0.00  0.00    +0.000 HD
ATOM     13  N   UNL     1      48.348 -38.765  49.946  0.00  0.00    +0.000 N 
ATOM     14  C   UNL     1      49.066 -39.853  49.520  0.00  0.00    +0.000 C 
ATOM     15  C   UNL     1      50.016 -39.410  48.629  0.00  0.00    +0.000 C 
ATOM     16  C   UNL     1      48.829 -37.636  49.337  0.00  0.00    +0.000 C 
ATOM     17  C   UNL     1      49.866 -38.008  48.513  0.00  0.00    +0.000 C 
ATOM     18  H   UNL     1      47.584 -38.794  50.607  0.00  0.00    +0.000 HD
ENDROOT
BRANCH   7  20
ATOM     19  N   UNL     1      52.925 -45.371  46.004  0.00  0.00    +0.000 NA
ATOM     20  C   UNL     1      51.807 -45.609  48.158  0.00  0.00    +0.000 A 
ATOM     21  C   UNL     1      52.805 -46.507  48.541  0.00  0.00    +0.000 A 
ATOM     22  C   UNL     1      51.932 -45.082  46.876  0.00  0.00    +0.000 A 
ATOM     23  C   UNL     1      53.848 -46.837  47.682  0.00  0.00    +0.000 A 
ATOM     24  C   UNL     1      53.860 -46.244  46.433  0.00  0.00    +0.000 A 
ENDBRANCH   7  20
TORSDOF 1
ENDMDL
MODEL 3
REMARK VINA RESULT:      -7.5      8.998     12.968
REMARK  Name = JAK3_Inhibitor.pdbqt.pdb
REMARK  1 active torsions:
REMARK  status: ('A' for Active; 'I' for Inactive)
REMARK    1  A    between atoms: C_7  and  C_20
REMARK                            x       y       z     vdW  Elec       q    Type
REMARK                         _______ _______ _______ _____ _____    ______ ____
ROOT
ATOM      1  O   UNL     1      45.979 -46.065  53.175  0.00  0.00    +0.000 OA
ATOM      2  N   UNL     1      47.127 -44.523  51.836  0.00  0.00    +0.000 N 
ATOM      3  C   UNL     1      48.693 -45.891  50.866  0.00  0.00    +0.000 A 
ATOM      4  C   UNL     1      48.205 -44.585  50.952  0.00  0.00    +0.000 A 
ATOM      5  C   UNL     1      47.860 -46.682  51.756  0.00  0.00    +0.000 C 
ATOM      6  C   UNL     1      49.763 -46.199  50.049  0.00  0.00    +0.000 A 
ATOM      7  C   UNL     1      50.361 -45.173  49.296  0.00  0.00    +0.000 A 
ATOM      8  C   UNL     1      46.849 -45.773  52.377  0.00  0.00    +0.000 C 
ATOM      9  C   UNL     1      48.757 -43.547  50.234  0.00  0.00    +0.000 A 
ATOM     10  C   UNL     1      47.942 -47.951  52.002  0.00  0.00    +0.000 C 
ATOM     11  C   UNL     1      49.838 -43.863  49.409  0.00  0.00    +0.000 A 
ATOM     12  H   UNL     1      46.602 -43.692  52.069  0.00  0.00    +0.000 HD
ATOM     13  N   UNL     1      47.133 -49.957  53.175  0.00  0.00    +0.000 N 
ATOM     14  C   UNL     1      47.989 -49.335  52.304  0.00  0.00    +0.000 C 
ATOM     15  C   UNL     1      48.855 -50.285  51.812  0.00  0.00    +0.000 C 
ATOM     16  C   UNL     1      47.443 -51.290  53.244  0.00  0.00    +0.000 C 
ATOM     17  C   UNL     1      48.510 -51.520  52.407  0.00  0.00    +0.000 C 
ATOM     18  H   UNL     1      46.389 -49.501  53.685  0.00  0.00    +0.000 HD
ENDROOT
BRANCH   7  20
ATOM     19  N   UNL     1      52.721 -44.980  46.359  0.00  0.00    +0.000 NA
ATOM     20  C   UNL     1      51.500 -45.454  48.415  0.00  0.00    +0.000 A 
ATOM     21  C   UNL     1      52.457 -46.423  48.723  0.00  0.00    +0.000 A 
ATOM     22  C   UNL     1      51.697 -44.774  47.217  0.00  0.00    +0.000 A 
ATOM     23  C   UNL     1      53.530 -46.674  47.874  0.00  0.00    +0.000 A 
ATOM     24  C   UNL     1      53.614 -45.929  46.712  0.00  0.00    +0.000 A 
ENDBRANCH   7  20
TORSDOF 1
ENDMDL
MODEL 4
REMARK VINA RESULT:      -7.0      3.489      5.644
REMARK  Name = JAK3_Inhibitor.pdbqt.pdb
REMARK  1 active torsions:
REMARK  status: ('A' for Active; 'I' for Inactive)
REMARK    1  A    between atoms: C_7  and  C_20
REMARK                            x       y       z     vdW  Elec       q    Type
REMARK                         _______ _______ _______ _____ _____    ______ ____
ROOT
ATOM      1  O   UNL     1      49.055 -35.607  47.572  0.00  0.00    +0.000 OA
ATOM      2  N   UNL     1      48.534 -36.825  49.504  0.00  0.00    +0.000 N 
ATOM      3  C   UNL     1      48.891 -38.966  48.761  0.00  0.00    +0.000 A 
ATOM      4  C   UNL     1      48.509 -38.177  49.849  0.00  0.00    +0.000 A 
ATOM      5  C   UNL     1      49.168 -38.037  47.678  0.00  0.00    +0.000 C 
ATOM      6  C   UNL     1      48.940 -40.342  48.863  0.00  0.00    +0.000 A 
ATOM      7  C   UNL     1      48.601 -40.946  50.086  0.00  0.00    +0.000 A 
ATOM      8  C   UNL     1      48.930 -36.650  48.183  0.00  0.00    +0.000 C 
ATOM      9  C   UNL     1      48.168 -38.721  51.067  0.00  0.00    +0.000 A 
ATOM     10  C   UNL     1      49.553 -38.314  46.473  0.00  0.00    +0.000 C 
ATOM     11  C   UNL     1      48.221 -40.113  51.166  0.00  0.00    +0.000 A 
ATOM     12  H   UNL     1      48.302 -36.055  50.115  0.00  0.00    +0.000 HD
ATOM     13  N   UNL     1      50.200 -37.582  44.215  0.00  0.00    +0.000 N 
ATOM     14  C   UNL     1      49.976 -38.565  45.144  0.00  0.00    +0.000 C 
ATOM     15  C   UNL     1      50.233 -39.778  44.547  0.00  0.00    +0.000 C 
ATOM     16  C   UNL     1      50.596 -38.153  43.035  0.00  0.00    +0.000 C 
ATOM     17  C   UNL     1      50.625 -39.517  43.213  0.00  0.00    +0.000 C 
ATOM     18  H   UNL     1      50.090 -36.590  44.378  0.00  0.00    +0.000 HD
ENDROOT
BRANCH   7  20
ATOM     19  N   UNL     1      47.941 -44.400  51.455  0.00  0.00    +0.000 NA
ATOM     20  C   UNL     1      48.641 -42.404  50.241  0.00  0.00    +0.000 A 
ATOM     21  C   UNL     1      49.375 -43.224  49.381  0.00  0.00    +0.000 A 
ATOM     22  C   UNL     1      47.950 -43.063  51.254  0.00  0.00    +0.000 A 
ATOM     23  C   UNL     1      49.399 -44.604  49.544  0.00  0.00    +0.000 A 
ATOM     24  C   UNL     1      48.669 -45.138  50.591  0.00  0.00    +0.000 A 
ENDBRANCH   7  20
TORSDOF 1
ENDMDL
MODEL 5
REMARK VINA RESULT:      -7.0      3.084      6.408
REMARK  Name = JAK3_Inhibitor.pdbqt.pdb
REMARK  1 active torsions:
REMARK  status: ('A' for Active; 'I' for Inactive)
REMARK    1  A    between atoms: C_7  and  C_20
REMARK                            x       y       z     vdW  Elec       q    Type
REMARK                         _______ _______ _______ _____ _____    ______ ____
ROOT
ATOM      1  O   UNL     1      48.508 -38.936  46.368  0.00  0.00    +0.000 OA
ATOM      2  N   UNL     1      49.332 -37.299  44.908  0.00  0.00    +0.000 N 
ATOM      3  C   UNL     1      49.641 -35.553  46.365  0.00  0.00    +0.000 A 
ATOM      4  C   UNL     1      49.751 -35.974  45.038  0.00  0.00    +0.000 A 
ATOM      5  C   UNL     1      49.120 -36.695  47.098  0.00  0.00    +0.000 C 
ATOM      6  C   UNL     1      49.998 -34.273  46.737  0.00  0.00    +0.000 A 
ATOM      7  C   UNL     1      50.480 -33.389  45.756  0.00  0.00    +0.000 A 
ATOM      8  C   UNL     1      48.927 -37.819  46.132  0.00  0.00    +0.000 C 
ATOM      9  C   UNL     1      50.217 -35.146  44.041  0.00  0.00    +0.000 A 
ATOM     10  C   UNL     1      48.854 -36.772  48.363  0.00  0.00    +0.000 C 
ATOM     11  C   UNL     1      50.578 -33.851  44.422  0.00  0.00    +0.000 A 
ATOM     12  H   UNL     1      49.316 -37.832  44.051  0.00  0.00    +0.000 HD
ATOM     13  N   UNL     1      48.055 -38.055  50.305  0.00  0.00    +0.000 N 
ATOM     14  C   UNL     1      48.548 -36.907  49.741  0.00  0.00    +0.000 C 
ATOM     15  C   UNL     1      48.676 -35.967  50.738  0.00  0.00    +0.000 C 
ATOM     16  C   UNL     1      47.867 -37.858  51.647  0.00  0.00    +0.000 C 
ATOM     17  C   UNL     1      48.245 -36.569  51.943  0.00  0.00    +0.000 C 
ATOM     18  H   UNL     1      47.862 -38.913  49.805  0.00  0.00    +0.000 HD
ENDROOT
BRANCH   7  20
ATOM     19  N   UNL     1      50.265 -29.673  46.381  0.00  0.00    +0.000 NA
ATOM     20  C   UNL     1      50.872 -32.019  46.106  0.00  0.00    +0.000 A 
ATOM     21  C   UNL     1      52.173 -31.694  46.496  0.00  0.00    +0.000 A 
ATOM     22  C   UNL     1      49.973 -30.957  46.072  0.00  0.00    +0.000 A 
ATOM     23  C   UNL     1      52.525 -30.390  46.824  0.00  0.00    +0.000 A 
ATOM     24  C   UNL     1      51.539 -29.423  46.750  0.00  0.00    +0.000 A 
ENDBRANCH   7  20
TORSDOF 1
ENDMDL
MODEL 6
REMARK VINA RESULT:      -6.9     18.771     21.827
REMARK  Name = JAK3_Inhibitor.pdbqt.pdb
REMARK  1 active torsions:
REMARK  status: ('A' for Active; 'I' for Inactive)
REMARK    1  A    between atoms: C_7  and  C_20
REMARK                            x       y       z     vdW  Elec       q    Type
REMARK                         _______ _______ _______ _____ _____    ______ ____
ROOT
ATOM      1  O   UNL     1      47.932 -57.000  60.931  0.00  0.00    +0.000 OA
ATOM      2  N   UNL     1      49.324 -55.761  59.511  0.00  0.00    +0.000 N 
ATOM      3  C   UNL     1      47.780 -54.923  58.035  0.00  0.00    +0.000 A 
ATOM      4  C   UNL     1      49.133 -54.969  58.378  0.00  0.00    +0.000 A 
ATOM      5  C   UNL     1      47.095 -55.741  59.021  0.00  0.00    +0.000 C 
ATOM      6  C   UNL     1      47.348 -54.197  56.943  0.00  0.00    +0.000 A 
ATOM      7  C   UNL     1      48.293 -53.497  56.173  0.00  0.00    +0.000 A 
ATOM      8  C   UNL     1      48.118 -56.276  59.971  0.00  0.00    +0.000 C 
ATOM      9  C   UNL     1      50.097 -54.300  57.656  0.00  0.00    +0.000 A 
ATOM     10  C   UNL     1      45.828 -55.992  59.103  0.00  0.00    +0.000 C 
ATOM     11  C   UNL     1      49.655 -53.566  56.552  0.00  0.00    +0.000 A 
ATOM     12  H   UNL     1      50.210 -55.951  59.957  0.00  0.00    +0.000 HD
ATOM     13  N   UNL     1      43.935 -57.093  60.226  0.00  0.00    +0.000 N 
ATOM     14  C   UNL     1      44.449 -56.296  59.236  0.00  0.00    +0.000 C 
ATOM     15  C   UNL     1      43.405 -55.877  58.445  0.00  0.00    +0.000 C 
ATOM     16  C   UNL     1      42.577 -57.187  60.074  0.00  0.00    +0.000 C 
ATOM     17  C   UNL     1      42.221 -56.441  58.975  0.00  0.00    +0.000 C 
ATOM     18  H   UNL     1      44.476 -57.541  60.954  0.00  0.00    +0.000 HD
ENDROOT
BRANCH   7  20
ATOM     19  N   UNL     1      48.060 -52.261  52.616  0.00  0.00    +0.000 NA
ATOM     20  C   UNL     1      47.878 -52.712  55.005  0.00  0.00    +0.000 A 
ATOM     21  C   UNL     1      46.938 -51.684  55.095  0.00  0.00    +0.000 A 
ATOM     22  C   UNL     1      48.395 -52.943  53.733  0.00  0.00    +0.000 A 
ATOM     23  C   UNL     1      46.558 -50.951  53.976  0.00  0.00    +0.000 A 
ATOM     24  C   UNL     1      47.146 -51.279  52.767  0.00  0.00    +0.000 A 
ENDBRANCH   7  20
TORSDOF 1
ENDMDL
MODEL 7
REMARK VINA RESULT:      -6.8     13.672     16.058
REMARK  Name = JAK3_Inhibitor.pdbqt.pdb
REMARK  1 active torsions:
REMARK  status: ('A' for Active; 'I' for Inactive)
REMARK    1  A    between atoms: C_7  and  C_20
REMARK                            x       y       z     vdW  Elec       q    Type
REMARK                         _______ _______ _______ _____ _____    ______ ____
ROOT
ATOM      1  O   UNL     1      45.069 -49.047  50.083  0.00  0.00    +0.000 OA
ATOM      2  N   UNL     1      44.477 -50.638  51.697  0.00  0.00    +0.000 N 
ATOM      3  C   UNL     1      46.471 -50.875  52.807  0.00  0.00    +0.000 A 
ATOM      4  C   UNL     1      45.140 -51.291  52.738  0.00  0.00    +0.000 A 
ATOM      5  C   UNL     1      46.637 -49.903  51.739  0.00  0.00    +0.000 C 
ATOM      6  C   UNL     1      47.328 -51.387  53.761  0.00  0.00    +0.000 A 
ATOM      7  C   UNL     1      46.840 -52.339  54.672  0.00  0.00    +0.000 A 
ATOM      8  C   UNL     1      45.328 -49.764  51.030  0.00  0.00    +0.000 C 
ATOM      9  C   UNL     1      44.615 -52.221  53.608  0.00  0.00    +0.000 A 
ATOM     10  C   UNL     1      47.708 -49.250  51.419  0.00  0.00    +0.000 C 
ATOM     11  C   UNL     1      45.485 -52.735  54.572  0.00  0.00    +0.000 A 
ATOM     12  H   UNL     1      43.508 -50.765  51.443  0.00  0.00    +0.000 HD
ATOM     13  N   UNL     1      48.868 -47.617  49.989  0.00  0.00    +0.000 N 
ATOM     14  C   UNL     1      48.853 -48.510  51.029  0.00  0.00    +0.000 C 
ATOM     15  C   UNL     1      50.111 -48.533  51.585  0.00  0.00    +0.000 C 
ATOM     16  C   UNL     1      50.120 -47.074  49.874  0.00  0.00    +0.000 C 
ATOM     17  C   UNL     1      50.913 -47.626  50.854  0.00  0.00    +0.000 C 
ATOM     18  H   UNL     1      48.077 -47.396  49.399  0.00  0.00    +0.000 HD
ENDROOT
BRANCH   7  20
ATOM     19  N   UNL     1      48.047 -53.597  58.019  0.00  0.00    +0.000 NA
ATOM     20  C   UNL     1      47.714 -52.910  55.704  0.00  0.00    +0.000 A 
ATOM     21  C   UNL     1      49.021 -53.319  55.428  0.00  0.00    +0.000 A 
ATOM     22  C   UNL     1      47.297 -53.080  57.020  0.00  0.00    +0.000 A 
ATOM     23  C   UNL     1      49.834 -53.857  56.419  0.00  0.00    +0.000 A 
ATOM     24  C   UNL     1      49.300 -53.974  57.690  0.00  0.00    +0.000 A 
ENDBRANCH   7  20
TORSDOF 1
ENDMDL
MODEL 8
REMARK VINA RESULT:      -6.7      2.961      3.694
REMARK  Name = JAK3_Inhibitor.pdbqt.pdb
REMARK  1 active torsions:
REMARK  status: ('A' for Active; 'I' for Inactive)
REMARK    1  A    between atoms: C_7  and  C_20
REMARK                            x       y       z     vdW  Elec       q    Type
REMARK                         _______ _______ _______ _____ _____    ______ ____
ROOT
ATOM      1  O   UNL     1      50.371 -34.012  42.496  0.00  0.00    +0.000 OA
ATOM      2  N   UNL     1      49.541 -35.950  43.517  0.00  0.00    +0.000 N 
ATOM      3  C   UNL     1      49.812 -35.409  45.731  0.00  0.00    +0.000 A 
ATOM      4  C   UNL     1      49.372 -36.384  44.833  0.00  0.00    +0.000 A 
ATOM      5  C   UNL     1      50.282 -34.303  44.912  0.00  0.00    +0.000 C 
ATOM      6  C   UNL     1      49.745 -35.614  47.094  0.00  0.00    +0.000 A 
ATOM      7  C   UNL     1      49.222 -36.827  47.574  0.00  0.00    +0.000 A 
ATOM      8  C   UNL     1      50.097 -34.676  43.477  0.00  0.00    +0.000 C 
ATOM      9  C   UNL     1      48.853 -37.588  45.254  0.00  0.00    +0.000 A 
ATOM     10  C   UNL     1      50.781 -33.177  45.310  0.00  0.00    +0.000 C 
ATOM     11  C   UNL     1      48.785 -37.791  46.635  0.00  0.00    +0.000 A 
ATOM     12  H   UNL     1      49.299 -36.472  42.688  0.00  0.00    +0.000 HD
ATOM     13  N   UNL     1      51.741 -30.968  44.806  0.00  0.00    +0.000 N 
ATOM     14  C   UNL     1      51.333 -31.928  45.694  0.00  0.00    +0.000 C 
ATOM     15  C   UNL     1      51.558 -31.453  46.965  0.00  0.00    +0.000 C 
ATOM     16  C   UNL     1      52.224 -29.887  45.495  0.00  0.00    +0.000 C 
ATOM     17  C   UNL     1      52.122 -30.162  46.839  0.00  0.00    +0.000 C 
ATOM     18  H   UNL     1      51.691 -31.047  43.799  0.00  0.00    +0.000 HD
ENDROOT
BRANCH   7  20
ATOM     19  N   UNL     1      49.821 -38.399  50.952  0.00  0.00    +0.000 NA
ATOM     20  C   UNL     1      49.131 -37.089  49.015  0.00  0.00    +0.000 A 
ATOM     21  C   UNL     1      48.309 -36.336  49.857  0.00  0.00    +0.000 A 
ATOM     22  C   UNL     1      49.856 -38.103  49.634  0.00  0.00    +0.000 A 
ATOM     23  C   UNL     1      48.236 -36.599  51.220  0.00  0.00    +0.000 A 
ATOM     24  C   UNL     1      49.009 -37.635  51.713  0.00  0.00    +0.000 A 
ENDBRANCH   7  20
TORSDOF 1
ENDMDL
MODEL 9
REMARK VINA RESULT:      -6.5     20.063     22.915
REMARK  Name = JAK3_Inhibitor.pdbqt.pdb
REMARK  1 active torsions:
REMARK  status: ('A' for Active; 'I' for Inactive)
REMARK    1  A    between atoms: C_7  and  C_20
REMARK                            x       y       z     vdW  Elec       q    Type
REMARK                         _______ _______ _______ _____ _____    ______ ____
ROOT
ATOM      1  O   UNL     1      56.282 -55.097  60.501  0.00  0.00    +0.000 OA
ATOM      2  N   UNL     1      57.139 -53.555  58.960  0.00  0.00    +0.000 N 
ATOM      3  C   UNL     1      57.700 -51.826  60.361  0.00  0.00    +0.000 A 
ATOM      4  C   UNL     1      57.679 -52.270  59.037  0.00  0.00    +0.000 A 
ATOM      5  C   UNL     1      57.136 -52.909  61.149  0.00  0.00    +0.000 C 
ATOM      6  C   UNL     1      58.191 -50.578  60.685  0.00  0.00    +0.000 A 
ATOM      7  C   UNL     1      58.677 -49.750  59.658  0.00  0.00    +0.000 A 
ATOM      8  C   UNL     1      56.778 -54.023  60.218  0.00  0.00    +0.000 C 
ATOM      9  C   UNL     1      58.143 -51.497  57.996  0.00  0.00    +0.000 A 
ATOM     10  C   UNL     1      56.954 -52.948  62.430  0.00  0.00    +0.000 C 
ATOM     11  C   UNL     1      58.641 -50.235  58.328  0.00  0.00    +0.000 A 
ATOM     12  H   UNL     1      57.017 -54.095  58.115  0.00  0.00    +0.000 HD
ATOM     13  N   UNL     1      56.186 -54.135  64.444  0.00  0.00    +0.000 N 
ATOM     14  C   UNL     1      56.735 -53.041  63.828  0.00  0.00    +0.000 C 
ATOM     15  C   UNL     1      57.014 -52.105  64.796  0.00  0.00    +0.000 C 
ATOM     16  C   UNL     1      56.111 -53.907  65.793  0.00  0.00    +0.000 C 
ATOM     17  C   UNL     1      56.618 -52.652  66.039  0.00  0.00    +0.000 C 
ATOM     18  H   UNL     1      55.884 -54.978  63.975  0.00  0.00    +0.000 HD
ENDROOT
BRANCH   7  20
ATOM     19  N   UNL     1      60.353 -46.401  59.195  0.00  0.00    +0.000 NA
ATOM     20  C   UNL     1      59.210 -48.416  59.956  0.00  0.00    +0.000 A 
ATOM     21  C   UNL     1      59.116 -47.844  61.226  0.00  0.00    +0.000 A 
ATOM     22  C   UNL     1      59.841 -47.635  58.991  0.00  0.00    +0.000 A 
ATOM     23  C   UNL     1      59.627 -46.578  61.489  0.00  0.00    +0.000 A 
ATOM     24  C   UNL     1      60.232 -45.904  60.444  0.00  0.00    +0.000 A 
ENDBRANCH   7  20
TORSDOF 1
ENDMDL
