MODEL 1
REMARK VINA RESULT:      -8.1      0.000      0.000
REMARK  Name = Lobelin.pdbqt.pdb
REMARK  3 active torsions:
REMARK  status: ('A' for Active; 'I' for Inactive)
REMARK    1  A    between atoms: C_9  and  O_10
REMARK    2  A    between atoms: C_9  and  C_12
REMARK    3  A    between atoms: C_19  and  C_21
REMARK                            x       y       z     vdW  Elec       q    Type
REMARK                         _______ _______ _______ _____ _____    ______ ____
ROOT
ATOM      1  N   UNL     1      49.571 -37.907  47.244  0.00  0.00    +0.000 N 
ATOM      2  C   UNL     1      49.537 -38.416  45.877  0.00  0.00    +0.000 C 
ATOM      3  C   UNL     1      49.619 -38.836  48.370  0.00  0.00    +0.000 C 
ATOM      4  C   UNL     1      49.596 -39.839  45.766  0.00  0.00    +0.000 C 
ATOM      5  C   UNL     1      49.668 -40.216  48.006  0.00  0.00    +0.000 C 
ATOM      6  C   UNL     1      49.670 -41.018  46.719  0.00  0.00    +0.000 C 
ATOM      7  C   UNL     1      49.431 -36.489  47.492  0.00  0.00    +0.000 C 
ATOM      8  C   UNL     1      49.464 -37.562  44.744  0.00  0.00    +0.000 C 
ATOM      9  C   UNL     1      49.416 -36.701  43.617  0.00  0.00    +0.000 C 
ATOM     10  C   UNL     1      49.627 -38.394  49.718  0.00  0.00    +0.000 C 
ATOM     11  C   UNL     1      49.669 -37.945  51.084  0.00  0.00    +0.000 C 
ATOM     12  O   UNL     1      50.552 -38.358  51.821  0.00  0.00    +0.000 OA
ENDROOT
BRANCH   9  13
ATOM     13  C   UNL     1      50.463 -35.738  43.271  0.00  0.00    +0.000 A 
ATOM     14  C   UNL     1      50.890 -35.589  41.948  0.00  0.00    +0.000 A 
ATOM     15  C   UNL     1      51.886 -34.672  41.618  0.00  0.00    +0.000 A 
ATOM     16  C   UNL     1      52.468 -33.891  42.611  0.00  0.00    +0.000 A 
ATOM     17  C   UNL     1      52.055 -34.028  43.933  0.00  0.00    +0.000 A 
ATOM     18  C   UNL     1      51.059 -34.947  44.257  0.00  0.00    +0.000 A 
ENDBRANCH   9  13
BRANCH  11  19
ATOM     19  C   UNL     1      48.632 -37.007  51.549  0.00  0.00    +0.000 A 
ATOM     20  C   UNL     1      48.874 -36.124  52.601  0.00  0.00    +0.000 A 
ATOM     21  C   UNL     1      47.876 -35.245  53.013  0.00  0.00    +0.000 A 
ATOM     22  C   UNL     1      46.638 -35.247  52.373  0.00  0.00    +0.000 A 
ATOM     23  C   UNL     1      46.398 -36.127  51.319  0.00  0.00    +0.000 A 
ATOM     24  C   UNL     1      47.395 -37.007  50.905  0.00  0.00    +0.000 A 
ENDBRANCH  11  19
BRANCH   9  25
ATOM     25  O   UNL     1      48.327 -36.764  42.777  0.00  0.00    +0.000 OA
ATOM     26  H   UNL     1      47.830 -35.928  42.764  0.00  0.00    +0.000 HD
ENDBRANCH   9  25
TORSDOF 3
ENDMDL
MODEL 2
REMARK VINA RESULT:      -8.0      2.030      8.162
REMARK  Name = Lobelin.pdbqt.pdb
REMARK  3 active torsions:
REMARK  status: ('A' for Active; 'I' for Inactive)
REMARK    1  A    between atoms: C_9  and  O_10
REMARK    2  A    between atoms: C_9  and  C_12
REMARK    3  A    between atoms: C_19  and  C_21
REMARK                            x       y       z     vdW  Elec       q    Type
REMARK                         _______ _______ _______ _____ _____    ______ ____
ROOT
ATOM      1  N   UNL     1      48.781 -39.927  47.827  0.00  0.00    +0.000 N 
ATOM      2  C   UNL     1      48.914 -40.280  49.236  0.00  0.00    +0.000 C 
ATOM      3  C   UNL     1      48.546 -40.967  46.830  0.00  0.00    +0.000 C 
ATOM      4  C   UNL     1      48.755 -41.671  49.522  0.00  0.00    +0.000 C 
ATOM      5  C   UNL     1      48.426 -42.288  47.360  0.00  0.00    +0.000 C 
ATOM      6  C   UNL     1      48.491 -42.938  48.729  0.00  0.00    +0.000 C 
ATOM      7  C   UNL     1      49.007 -38.564  47.399  0.00  0.00    +0.000 C 
ATOM      8  C   UNL     1      49.170 -39.315  50.247  0.00  0.00    +0.000 C 
ATOM      9  C   UNL     1      49.401 -38.341  51.254  0.00  0.00    +0.000 C 
ATOM     10  C   UNL     1      48.435 -40.680  45.445  0.00  0.00    +0.000 C 
ATOM     11  C   UNL     1      48.290 -40.384  44.045  0.00  0.00    +0.000 C 
ATOM     12  O   UNL     1      47.306 -40.795  43.447  0.00  0.00    +0.000 OA
ENDROOT
BRANCH   9  13
ATOM     13  C   UNL     1      48.474 -37.256  51.577  0.00  0.00    +0.000 A 
ATOM     14  C   UNL     1      48.811 -36.286  52.525  0.00  0.00    +0.000 A 
ATOM     15  C   UNL     1      47.929 -35.251  52.833  0.00  0.00    +0.000 A 
ATOM     16  C   UNL     1      46.696 -35.175  52.192  0.00  0.00    +0.000 A 
ATOM     17  C   UNL     1      46.346 -36.133  51.246  0.00  0.00    +0.000 A 
ATOM     18  C   UNL     1      47.231 -37.166  50.943  0.00  0.00    +0.000 A 
ENDBRANCH   9  13
BRANCH  11  19
ATOM     19  C   UNL     1      49.345 -39.601  43.378  0.00  0.00    +0.000 A 
ATOM     20  C   UNL     1      50.186 -40.182  42.429  0.00  0.00    +0.000 A 
ATOM     21  C   UNL     1      51.169 -39.415  41.810  0.00  0.00    +0.000 A 
ATOM     22  C   UNL     1      51.311 -38.068  42.139  0.00  0.00    +0.000 A 
ATOM     23  C   UNL     1      50.468 -37.487  43.084  0.00  0.00    +0.000 A 
ATOM     24  C   UNL     1      49.483 -38.252  43.704  0.00  0.00    +0.000 A 
ENDBRANCH  11  19
BRANCH   9  25
ATOM     25  O   UNL     1      50.561 -38.408  51.991  0.00  0.00    +0.000 OA
ATOM     26  H   UNL     1      51.242 -38.942  51.548  0.00  0.00    +0.000 HD
ENDBRANCH   9  25
TORSDOF 3
ENDMDL
MODEL 3
REMARK VINA RESULT:      -7.7      6.894     10.894
REMARK  Name = Lobelin.pdbqt.pdb
REMARK  3 active torsions:
REMARK  status: ('A' for Active; 'I' for Inactive)
REMARK    1  A    between atoms: C_9  and  O_10
REMARK    2  A    between atoms: C_9  and  C_12
REMARK    3  A    between atoms: C_19  and  C_21
REMARK                            x       y       z     vdW  Elec       q    Type
REMARK                         _______ _______ _______ _____ _____    ______ ____
ROOT
ATOM      1  N   UNL     1      48.466 -44.907  50.156  0.00  0.00    +0.000 N 
ATOM      2  C   UNL     1      48.513 -46.259  50.702  0.00  0.00    +0.000 C 
ATOM      3  C   UNL     1      49.593 -44.389  49.386  0.00  0.00    +0.000 C 
ATOM      4  C   UNL     1      49.695 -46.994  50.381  0.00  0.00    +0.000 C 
ATOM      5  C   UNL     1      50.666 -45.313  49.200  0.00  0.00    +0.000 C 
ATOM      6  C   UNL     1      50.978 -46.739  49.611  0.00  0.00    +0.000 C 
ATOM      7  C   UNL     1      47.361 -44.033  50.482  0.00  0.00    +0.000 C 
ATOM      8  C   UNL     1      47.458 -46.808  51.481  0.00  0.00    +0.000 C 
ATOM      9  C   UNL     1      46.390 -47.356  52.237  0.00  0.00    +0.000 C 
ATOM     10  C   UNL     1      49.609 -43.073  48.856  0.00  0.00    +0.000 C 
ATOM     11  C   UNL     1      49.611 -41.750  48.291  0.00  0.00    +0.000 C 
ATOM     12  O   UNL     1      49.846 -41.611  47.100  0.00  0.00    +0.000 OA
ENDROOT
BRANCH   9  13
ATOM     13  C   UNL     1      45.040 -47.574  51.717  0.00  0.00    +0.000 A 
ATOM     14  C   UNL     1      44.662 -48.818  51.203  0.00  0.00    +0.000 A 
ATOM     15  C   UNL     1      43.376 -49.026  50.708  0.00  0.00    +0.000 A 
ATOM     16  C   UNL     1      42.450 -47.988  50.721  0.00  0.00    +0.000 A 
ATOM     17  C   UNL     1      42.810 -46.743  51.228  0.00  0.00    +0.000 A 
ATOM     18  C   UNL     1      44.098 -46.540  51.721  0.00  0.00    +0.000 A 
ENDBRANCH   9  13
BRANCH  11  19
ATOM     19  C   UNL     1      49.339 -40.606  49.178  0.00  0.00    +0.000 A 
ATOM     20  C   UNL     1      48.315 -40.652  50.125  0.00  0.00    +0.000 A 
ATOM     21  C   UNL     1      48.087 -39.556  50.954  0.00  0.00    +0.000 A 
ATOM     22  C   UNL     1      48.881 -38.418  50.837  0.00  0.00    +0.000 A 
ATOM     23  C   UNL     1      49.906 -38.373  49.894  0.00  0.00    +0.000 A 
ATOM     24  C   UNL     1      50.136 -39.467  49.064  0.00  0.00    +0.000 A 
ENDBRANCH  11  19
BRANCH   9  25
ATOM     25  O   UNL     1      46.618 -47.721  53.544  0.00  0.00    +0.000 OA
ATOM     26  H   UNL     1      45.936 -47.373  54.143  0.00  0.00    +0.000 HD
ENDBRANCH   9  25
TORSDOF 3
ENDMDL
MODEL 4
REMARK VINA RESULT:      -7.3      6.185      9.012
REMARK  Name = Lobelin.pdbqt.pdb
REMARK  3 active torsions:
REMARK  status: ('A' for Active; 'I' for Inactive)
REMARK    1  A    between atoms: C_9  and  O_10
REMARK    2  A    between atoms: C_9  and  C_12
REMARK    3  A    between atoms: C_19  and  C_21
REMARK                            x       y       z     vdW  Elec       q    Type
REMARK                         _______ _______ _______ _____ _____    ______ ____
ROOT
ATOM      1  N   UNL     1      49.428 -44.292  49.303  0.00  0.00    +0.000 N 
ATOM      2  C   UNL     1      49.440 -43.316  48.219  0.00  0.00    +0.000 C 
ATOM      3  C   UNL     1      50.086 -45.584  49.133  0.00  0.00    +0.000 C 
ATOM      4  C   UNL     1      50.163 -43.722  47.055  0.00  0.00    +0.000 C 
ATOM      5  C   UNL     1      50.742 -45.760  47.876  0.00  0.00    +0.000 C 
ATOM      6  C   UNL     1      50.940 -44.948  46.611  0.00  0.00    +0.000 C 
ATOM      7  C   UNL     1      48.658 -44.034  50.499  0.00  0.00    +0.000 C 
ATOM      8  C   UNL     1      48.793 -42.054  48.317  0.00  0.00    +0.000 C 
ATOM      9  C   UNL     1      48.167 -40.786  48.432  0.00  0.00    +0.000 C 
ATOM     10  C   UNL     1      50.082 -46.577  50.145  0.00  0.00    +0.000 C 
ATOM     11  C   UNL     1      50.105 -47.571  51.185  0.00  0.00    +0.000 C 
ATOM     12  O   UNL     1      51.177 -48.042  51.536  0.00  0.00    +0.000 OA
ENDROOT
BRANCH   9  13
ATOM     13  C   UNL     1      48.551 -39.763  49.406  0.00  0.00    +0.000 A 
ATOM     14  C   UNL     1      47.639 -39.306  50.361  0.00  0.00    +0.000 A 
ATOM     15  C   UNL     1      48.005 -38.332  51.289  0.00  0.00    +0.000 A 
ATOM     16  C   UNL     1      49.292 -37.803  51.271  0.00  0.00    +0.000 A 
ATOM     17  C   UNL     1      50.211 -38.247  50.325  0.00  0.00    +0.000 A 
ATOM     18  C   UNL     1      49.839 -39.221  49.399  0.00  0.00    +0.000 A 
ENDBRANCH   9  13
BRANCH  11  19
ATOM     19  C   UNL     1      48.826 -47.995  51.782  0.00  0.00    +0.000 A 
ATOM     20  C   UNL     1      47.732 -47.131  51.837  0.00  0.00    +0.000 A 
ATOM     21  C   UNL     1      46.535 -47.563  52.401  0.00  0.00    +0.000 A 
ATOM     22  C   UNL     1      46.430 -48.855  52.909  0.00  0.00    +0.000 A 
ATOM     23  C   UNL     1      47.523 -49.719  52.852  0.00  0.00    +0.000 A 
ATOM     24  C   UNL     1      48.721 -49.290  52.288  0.00  0.00    +0.000 A 
ENDBRANCH  11  19
BRANCH   9  25
ATOM     25  O   UNL     1      47.133 -40.474  47.579  0.00  0.00    +0.000 OA
ATOM     26  H   UNL     1      46.963 -41.186  46.939  0.00  0.00    +0.000 HD
ENDBRANCH   9  25
TORSDOF 3
ENDMDL
MODEL 5
REMARK VINA RESULT:      -7.2      7.013      9.535
REMARK  Name = Lobelin.pdbqt.pdb
REMARK  3 active torsions:
REMARK  status: ('A' for Active; 'I' for Inactive)
REMARK    1  A    between atoms: C_9  and  O_10
REMARK    2  A    between atoms: C_9  and  C_12
REMARK    3  A    between atoms: C_19  and  C_21
REMARK                            x       y       z     vdW  Elec       q    Type
REMARK                         _______ _______ _______ _____ _____    ______ ____
ROOT
ATOM      1  N   UNL     1      48.418 -45.212  50.188  0.00  0.00    +0.000 N 
ATOM      2  C   UNL     1      49.536 -44.659  49.431  0.00  0.00    +0.000 C 
ATOM      3  C   UNL     1      48.500 -46.564  50.734  0.00  0.00    +0.000 C 
ATOM      4  C   UNL     1      50.672 -45.519  49.326  0.00  0.00    +0.000 C 
ATOM      5  C   UNL     1      49.741 -47.231  50.495  0.00  0.00    +0.000 C 
ATOM      6  C   UNL     1      51.046 -46.915  49.790  0.00  0.00    +0.000 C 
ATOM      7  C   UNL     1      47.179 -44.473  50.292  0.00  0.00    +0.000 C 
ATOM      8  C   UNL     1      49.502 -43.361  48.854  0.00  0.00    +0.000 C 
ATOM      9  C   UNL     1      49.470 -42.054  48.302  0.00  0.00    +0.000 C 
ATOM     10  C   UNL     1      47.433 -47.158  51.454  0.00  0.00    +0.000 C 
ATOM     11  C   UNL     1      46.362 -47.747  52.213  0.00  0.00    +0.000 C 
ATOM     12  O   UNL     1      46.601 -48.216  53.317  0.00  0.00    +0.000 OA
ENDROOT
BRANCH   9  13
ATOM     13  C   UNL     1      49.353 -40.829  49.093  0.00  0.00    +0.000 A 
ATOM     14  C   UNL     1      48.492 -40.766  50.193  0.00  0.00    +0.000 A 
ATOM     15  C   UNL     1      48.380 -39.600  50.948  0.00  0.00    +0.000 A 
ATOM     16  C   UNL     1      49.132 -38.479  50.609  0.00  0.00    +0.000 A 
ATOM     17  C   UNL     1      49.993 -38.524  49.517  0.00  0.00    +0.000 A 
ATOM     18  C   UNL     1      50.100 -39.693  48.765  0.00  0.00    +0.000 A 
ENDBRANCH   9  13
BRANCH  11  19
ATOM     19  C   UNL     1      45.013 -47.775  51.622  0.00  0.00    +0.000 A 
ATOM     20  C   UNL     1      44.479 -48.949  51.093  0.00  0.00    +0.000 A 
ATOM     21  C   UNL     1      43.197 -48.945  50.547  0.00  0.00    +0.000 A 
ATOM     22  C   UNL     1      42.451 -47.769  50.532  0.00  0.00    +0.000 A 
ATOM     23  C   UNL     1      42.984 -46.596  51.065  0.00  0.00    +0.000 A 
ATOM     24  C   UNL     1      44.264 -46.598  51.611  0.00  0.00    +0.000 A 
ENDBRANCH  11  19
BRANCH   9  25
ATOM     25  O   UNL     1      49.561 -41.906  46.937  0.00  0.00    +0.000 OA
ATOM     26  H   UNL     1      49.038 -42.574  46.463  0.00  0.00    +0.000 HD
ENDBRANCH   9  25
TORSDOF 3
ENDMDL
MODEL 6
REMARK VINA RESULT:      -7.1      3.504      5.933
REMARK  Name = Lobelin.pdbqt.pdb
REMARK  3 active torsions:
REMARK  status: ('A' for Active; 'I' for Inactive)
REMARK    1  A    between atoms: C_9  and  O_10
REMARK    2  A    between atoms: C_9  and  C_12
REMARK    3  A    between atoms: C_19  and  C_21
REMARK                            x       y       z     vdW  Elec       q    Type
REMARK                         _______ _______ _______ _____ _____    ______ ____
ROOT
ATOM      1  N   UNL     1      48.635 -39.748  48.299  0.00  0.00    +0.000 N 
ATOM      2  C   UNL     1      49.094 -38.522  47.655  0.00  0.00    +0.000 C 
ATOM      3  C   UNL     1      48.601 -39.842  49.756  0.00  0.00    +0.000 C 
ATOM      4  C   UNL     1      49.445 -37.468  48.554  0.00  0.00    +0.000 C 
ATOM      5  C   UNL     1      49.003 -38.655  50.442  0.00  0.00    +0.000 C 
ATOM      6  C   UNL     1      49.490 -37.271  50.059  0.00  0.00    +0.000 C 
ATOM      7  C   UNL     1      48.333 -40.915  47.500  0.00  0.00    +0.000 C 
ATOM      8  C   UNL     1      49.174 -38.382  46.243  0.00  0.00    +0.000 C 
ATOM      9  C   UNL     1      49.227 -38.241  44.832  0.00  0.00    +0.000 C 
ATOM     10  C   UNL     1      48.189 -41.019  50.431  0.00  0.00    +0.000 C 
ATOM     11  C   UNL     1      47.739 -42.202  51.115  0.00  0.00    +0.000 C 
ATOM     12  O   UNL     1      46.864 -42.105  51.962  0.00  0.00    +0.000 OA
ENDROOT
BRANCH   9  13
ATOM     13  C   UNL     1      48.058 -38.308  43.954  0.00  0.00    +0.000 A 
ATOM     14  C   UNL     1      47.975 -37.507  42.811  0.00  0.00    +0.000 A 
ATOM     15  C   UNL     1      46.862 -37.570  41.974  0.00  0.00    +0.000 A 
ATOM     16  C   UNL     1      45.817 -38.440  42.271  0.00  0.00    +0.000 A 
ATOM     17  C   UNL     1      45.885 -39.243  43.406  0.00  0.00    +0.000 A 
ATOM     18  C   UNL     1      46.999 -39.175  44.240  0.00  0.00    +0.000 A 
ENDBRANCH   9  13
BRANCH  11  19
ATOM     19  C   UNL     1      48.363 -43.493  50.773  0.00  0.00    +0.000 A 
ATOM     20  C   UNL     1      47.972 -44.674  51.403  0.00  0.00    +0.000 A 
ATOM     21  C   UNL     1      48.576 -45.879  51.054  0.00  0.00    +0.000 A 
ATOM     22  C   UNL     1      49.568 -45.904  50.076  0.00  0.00    +0.000 A 
ATOM     23  C   UNL     1      49.956 -44.723  49.445  0.00  0.00    +0.000 A 
ATOM     24  C   UNL     1      49.353 -43.517  49.792  0.00  0.00    +0.000 A 
ENDBRANCH  11  19
BRANCH   9  25
ATOM     25  O   UNL     1      50.444 -38.020  44.230  0.00  0.00    +0.000 OA
ATOM     26  H   UNL     1      50.357 -37.501  43.413  0.00  0.00    +0.000 HD
ENDBRANCH   9  25
TORSDOF 3
ENDMDL
MODEL 7
REMARK VINA RESULT:      -7.0     19.396     23.205
REMARK  Name = Lobelin.pdbqt.pdb
REMARK  3 active torsions:
REMARK  status: ('A' for Active; 'I' for Inactive)
REMARK    1  A    between atoms: C_9  and  O_10
REMARK    2  A    between atoms: C_9  and  C_12
REMARK    3  A    between atoms: C_19  and  C_21
REMARK                            x       y       z     vdW  Elec       q    Type
REMARK                         _______ _______ _______ _____ _____    ______ ____
ROOT
ATOM      1  N   UNL     1      44.151 -55.124  57.430  0.00  0.00    +0.000 N 
ATOM      2  C   UNL     1      42.903 -55.878  57.482  0.00  0.00    +0.000 C 
ATOM      3  C   UNL     1      44.475 -54.322  56.254  0.00  0.00    +0.000 C 
ATOM      4  C   UNL     1      42.060 -55.718  56.339  0.00  0.00    +0.000 C 
ATOM      5  C   UNL     1      43.473 -54.322  55.236  0.00  0.00    +0.000 C 
ATOM      6  C   UNL     1      42.115 -54.963  55.024  0.00  0.00    +0.000 C 
ATOM      7  C   UNL     1      45.128 -55.270  58.487  0.00  0.00    +0.000 C 
ATOM      8  C   UNL     1      42.548 -56.696  58.588  0.00  0.00    +0.000 C 
ATOM      9  C   UNL     1      42.189 -57.492  59.707  0.00  0.00    +0.000 C 
ATOM     10  C   UNL     1      45.685 -53.592  56.143  0.00  0.00    +0.000 C 
ATOM     11  C   UNL     1      46.899 -52.825  56.045  0.00  0.00    +0.000 C 
ATOM     12  O   UNL     1      46.833 -51.636  55.771  0.00  0.00    +0.000 OA
ENDROOT
BRANCH   9  13
ATOM     13  C   UNL     1      41.969 -56.966  61.054  0.00  0.00    +0.000 A 
ATOM     14  C   UNL     1      40.693 -56.970  61.625  0.00  0.00    +0.000 A 
ATOM     15  C   UNL     1      40.482 -56.470  62.909  0.00  0.00    +0.000 A 
ATOM     16  C   UNL     1      41.550 -55.957  63.638  0.00  0.00    +0.000 A 
ATOM     17  C   UNL     1      42.827 -55.944  63.084  0.00  0.00    +0.000 A 
ATOM     18  C   UNL     1      43.031 -56.446  61.800  0.00  0.00    +0.000 A 
ENDBRANCH   9  13
BRANCH  11  19
ATOM     19  C   UNL     1      48.184 -53.510  56.268  0.00  0.00    +0.000 A 
ATOM     20  C   UNL     1      49.005 -53.873  55.200  0.00  0.00    +0.000 A 
ATOM     21  C   UNL     1      50.218 -54.513  55.444  0.00  0.00    +0.000 A 
ATOM     22  C   UNL     1      50.609 -54.790  56.752  0.00  0.00    +0.000 A 
ATOM     23  C   UNL     1      49.790 -54.425  57.818  0.00  0.00    +0.000 A 
ATOM     24  C   UNL     1      48.577 -53.784  57.578  0.00  0.00    +0.000 A 
ENDBRANCH  11  19
BRANCH   9  25
ATOM     25  O   UNL     1      42.025 -58.848  59.535  0.00  0.00    +0.000 OA
ATOM     26  H   UNL     1      42.513 -59.177  58.761  0.00  0.00    +0.000 HD
ENDBRANCH   9  25
TORSDOF 3
ENDMDL
MODEL 8
REMARK VINA RESULT:      -7.0      4.977      8.826
REMARK  Name = Lobelin.pdbqt.pdb
REMARK  3 active torsions:
REMARK  status: ('A' for Active; 'I' for Inactive)
REMARK    1  A    between atoms: C_9  and  O_10
REMARK    2  A    between atoms: C_9  and  C_12
REMARK    3  A    between atoms: C_19  and  C_21
REMARK                            x       y       z     vdW  Elec       q    Type
REMARK                         _______ _______ _______ _____ _____    ______ ____
ROOT
ATOM      1  N   UNL     1      49.165 -43.234  49.362  0.00  0.00    +0.000 N 
ATOM      2  C   UNL     1      48.635 -42.226  50.274  0.00  0.00    +0.000 C 
ATOM      3  C   UNL     1      48.726 -44.622  49.469  0.00  0.00    +0.000 C 
ATOM      4  C   UNL     1      47.662 -42.711  51.202  0.00  0.00    +0.000 C 
ATOM      5  C   UNL     1      47.746 -44.864  50.479  0.00  0.00    +0.000 C 
ATOM      6  C   UNL     1      47.014 -44.045  51.525  0.00  0.00    +0.000 C 
ATOM      7  C   UNL     1      50.218 -42.886  48.433  0.00  0.00    +0.000 C 
ATOM      8  C   UNL     1      49.044 -40.866  50.234  0.00  0.00    +0.000 C 
ATOM      9  C   UNL     1      49.440 -39.504  50.172  0.00  0.00    +0.000 C 
ATOM     10  C   UNL     1      49.229 -45.644  48.624  0.00  0.00    +0.000 C 
ATOM     11  C   UNL     1      49.716 -46.675  47.745  0.00  0.00    +0.000 C 
ATOM     12  O   UNL     1      48.913 -47.372  47.142  0.00  0.00    +0.000 OA
ENDROOT
BRANCH   9  13
ATOM     13  C   UNL     1      49.211 -38.633  49.019  0.00  0.00    +0.000 A 
ATOM     14  C   UNL     1      49.154 -37.245  49.171  0.00  0.00    +0.000 A 
ATOM     15  C   UNL     1      48.937 -36.413  48.074  0.00  0.00    +0.000 A 
ATOM     16  C   UNL     1      48.774 -36.965  46.807  0.00  0.00    +0.000 A 
ATOM     17  C   UNL     1      48.827 -38.345  46.638  0.00  0.00    +0.000 A 
ATOM     18  C   UNL     1      49.044 -39.171  47.740  0.00  0.00    +0.000 A 
ENDBRANCH   9  13
BRANCH  11  19
ATOM     19  C   UNL     1      51.172 -46.859  47.615  0.00  0.00    +0.000 A 
ATOM     20  C   UNL     1      52.061 -46.239  48.493  0.00  0.00    +0.000 A 
ATOM     21  C   UNL     1      53.431 -46.438  48.348  0.00  0.00    +0.000 A 
ATOM     22  C   UNL     1      53.912 -47.256  47.329  0.00  0.00    +0.000 A 
ATOM     23  C   UNL     1      53.024 -47.878  46.453  0.00  0.00    +0.000 A 
ATOM     24  C   UNL     1      51.653 -47.681  46.596  0.00  0.00    +0.000 A 
ENDBRANCH  11  19
BRANCH   9  25
ATOM     25  O   UNL     1      50.075 -38.945  51.257  0.00  0.00    +0.000 OA
ATOM     26  H   UNL     1      50.070 -37.974  51.221  0.00  0.00    +0.000 HD
ENDBRANCH   9  25
TORSDOF 3
ENDMDL
MODEL 9
REMARK VINA RESULT:      -6.8     12.804     15.605
REMARK  Name = Lobelin.pdbqt.pdb
REMARK  3 active torsions:
REMARK  status: ('A' for Active; 'I' for Inactive)
REMARK    1  A    between atoms: C_9  and  O_10
REMARK    2  A    between atoms: C_9  and  C_12
REMARK    3  A    between atoms: C_19  and  C_21
REMARK                            x       y       z     vdW  Elec       q    Type
REMARK                         _______ _______ _______ _____ _____    ______ ____
ROOT
ATOM      1  N   UNL     1      45.851 -50.579  52.672  0.00  0.00    +0.000 N 
ATOM      2  C   UNL     1      45.525 -49.358  51.944  0.00  0.00    +0.000 C 
ATOM      3  C   UNL     1      44.921 -51.704  52.669  0.00  0.00    +0.000 C 
ATOM      4  C   UNL     1      44.287 -49.397  51.233  0.00  0.00    +0.000 C 
ATOM      5  C   UNL     1      43.743 -51.505  51.886  0.00  0.00    +0.000 C 
ATOM      6  C   UNL     1      43.161 -50.395  51.031  0.00  0.00    +0.000 C 
ATOM      7  C   UNL     1      47.036 -50.633  53.500  0.00  0.00    +0.000 C 
ATOM      8  C   UNL     1      46.379 -48.222  51.933  0.00  0.00    +0.000 C 
ATOM      9  C   UNL     1      47.249 -47.101  51.906  0.00  0.00    +0.000 C 
ATOM     10  C   UNL     1      45.177 -52.904  53.381  0.00  0.00    +0.000 C 
ATOM     11  C   UNL     1      45.454 -54.132  54.077  0.00  0.00    +0.000 C 
ATOM     12  O   UNL     1      45.387 -55.191  53.469  0.00  0.00    +0.000 OA
ENDROOT
BRANCH   9  13
ATOM     13  C   UNL     1      48.599 -47.120  51.342  0.00  0.00    +0.000 A 
ATOM     14  C   UNL     1      48.911 -46.366  50.207  0.00  0.00    +0.000 A 
ATOM     15  C   UNL     1      50.197 -46.382  49.669  0.00  0.00    +0.000 A 
ATOM     16  C   UNL     1      51.188 -47.157  50.264  0.00  0.00    +0.000 A 
ATOM     17  C   UNL     1      50.893 -47.914  51.393  0.00  0.00    +0.000 A 
ATOM     18  C   UNL     1      49.605 -47.894  51.926  0.00  0.00    +0.000 A 
ENDBRANCH   9  13
BRANCH  11  19
ATOM     19  C   UNL     1      45.799 -54.069  55.508  0.00  0.00    +0.000 A 
ATOM     20  C   UNL     1      45.045 -54.749  56.465  0.00  0.00    +0.000 A 
ATOM     21  C   UNL     1      45.401 -54.674  57.809  0.00  0.00    +0.000 A 
ATOM     22  C   UNL     1      46.508 -53.923  58.196  0.00  0.00    +0.000 A 
ATOM     23  C   UNL     1      47.263 -53.247  57.240  0.00  0.00    +0.000 A 
ATOM     24  C   UNL     1      46.910 -53.319  55.895  0.00  0.00    +0.000 A 
ENDBRANCH  11  19
BRANCH   9  25
ATOM     25  O   UNL     1      46.812 -45.907  52.434  0.00  0.00    +0.000 OA
ATOM     26  H   UNL     1      46.117 -45.502  51.888  0.00  0.00    +0.000 HD
ENDBRANCH   9  25
TORSDOF 3
ENDMDL
