MODEL 1
REMARK VINA RESULT:      -6.2      0.000      0.000
REMARK  Name = LUCANTHONE.pdbqt.pdb
REMARK  5 active torsions:
REMARK  status: ('A' for Active; 'I' for Inactive)
REMARK    1  A    between atoms: C_3  and  N_17
REMARK    2  A    between atoms: N_17  and  C_19
REMARK    3  A    between atoms: C_20  and  N_21
REMARK    4  A    between atoms: N_21  and  C_22
REMARK    5  A    between atoms: N_21  and  C_24
REMARK                            x       y       z     vdW  Elec       q    Type
REMARK                         _______ _______ _______ _____ _____    ______ ____
ROOT
ATOM      1  S   UNL     1      47.220 -46.272  48.486  0.00  0.00    +0.000 S 
ATOM      2  O   UNL     1      48.179 -44.041  52.078  0.00  0.00    +0.000 OA
ATOM      3  C   UNL     1      47.761 -42.408  49.847  0.00  0.00    +0.000 A 
ATOM      4  C   UNL     1      47.736 -43.829  49.776  0.00  0.00    +0.000 A 
ATOM      5  C   UNL     1      47.314 -44.484  48.600  0.00  0.00    +0.000 A 
ATOM      6  C   UNL     1      46.926 -43.691  47.494  0.00  0.00    +0.000 A 
ATOM      7  C   UNL     1      48.150 -44.601  50.983  0.00  0.00    +0.000 A 
ATOM      8  C   UNL     1      47.393 -41.673  48.714  0.00  0.00    +0.000 A 
ATOM      9  C   UNL     1      48.556 -46.011  50.908  0.00  0.00    +0.000 A 
ATOM     10  C   UNL     1      46.967 -42.302  47.557  0.00  0.00    +0.000 A 
ATOM     11  C   UNL     1      48.217 -46.818  49.831  0.00  0.00    +0.000 A 
ATOM     12  C   UNL     1      46.453 -44.267  46.177  0.00  0.00    +0.000 C 
ATOM     13  C   UNL     1      49.296 -46.533  51.975  0.00  0.00    +0.000 A 
ATOM     14  C   UNL     1      48.632 -48.151  49.829  0.00  0.00    +0.000 A 
ATOM     15  C   UNL     1      49.711 -47.861  51.961  0.00  0.00    +0.000 A 
ATOM     16  C   UNL     1      49.381 -48.673  50.882  0.00  0.00    +0.000 A 
ENDROOT
BRANCH   3  17
ATOM     17  N   UNL     1      48.299 -41.723  50.968  0.00  0.00    +0.000 N 
ATOM     18  H   UNL     1      47.925 -42.100  51.852  0.00  0.00    +0.000 HD
BRANCH  17  19
ATOM     19  C   UNL     1      48.487 -40.284  50.906  0.00  0.00    +0.000 C 
ATOM     20  C   UNL     1      48.682 -38.765  50.842  0.00  0.00    +0.000 C 
BRANCH  20  21
ATOM     21  N   UNL     1      48.859 -37.324  50.773  0.00  0.00    +0.000 N 
BRANCH  21  22
ATOM     22  C   UNL     1      47.574 -36.717  51.068  0.00  0.00    +0.000 C 
ATOM     23  C   UNL     1      46.212 -36.083  51.366  0.00  0.00    +0.000 C 
ENDBRANCH  21  22
BRANCH  21  24
ATOM     24  C   UNL     1      49.161 -36.996  49.392  0.00  0.00    +0.000 C 
ATOM     25  C   UNL     1      49.495 -36.638  47.941  0.00  0.00    +0.000 C 
ENDBRANCH  21  24
ENDBRANCH  20  21
ENDBRANCH  17  19
ENDBRANCH   3  17
TORSDOF 5
ENDMDL
MODEL 2
REMARK VINA RESULT:      -6.0      2.975      7.935
REMARK  Name = LUCANTHONE.pdbqt.pdb
REMARK  5 active torsions:
REMARK  status: ('A' for Active; 'I' for Inactive)
REMARK    1  A    between atoms: C_3  and  N_17
REMARK    2  A    between atoms: N_17  and  C_19
REMARK    3  A    between atoms: C_20  and  N_21
REMARK    4  A    between atoms: N_21  and  C_22
REMARK    5  A    between atoms: N_21  and  C_24
REMARK                            x       y       z     vdW  Elec       q    Type
REMARK                         _______ _______ _______ _____ _____    ______ ____
ROOT
ATOM      1  S   UNL     1      49.833 -39.661  45.196  0.00  0.00    +0.000 S 
ATOM      2  O   UNL     1      50.141 -39.526  49.518  0.00  0.00    +0.000 OA
ATOM      3  C   UNL     1      49.397 -42.041  48.546  0.00  0.00    +0.000 A 
ATOM      4  C   UNL     1      49.575 -40.910  47.700  0.00  0.00    +0.000 A 
ATOM      5  C   UNL     1      49.563 -41.051  46.297  0.00  0.00    +0.000 A 
ATOM      6  C   UNL     1      49.359 -42.343  45.755  0.00  0.00    +0.000 A 
ATOM      7  C   UNL     1      49.794 -39.580  48.339  0.00  0.00    +0.000 A 
ATOM      8  C   UNL     1      49.172 -43.290  47.957  0.00  0.00    +0.000 A 
ATOM      9  C   UNL     1      49.579 -38.320  47.615  0.00  0.00    +0.000 A 
ATOM     10  C   UNL     1      49.167 -43.446  46.581  0.00  0.00    +0.000 A 
ATOM     11  C   UNL     1      49.551 -38.264  46.229  0.00  0.00    +0.000 A 
ATOM     12  C   UNL     1      49.324 -42.632  44.270  0.00  0.00    +0.000 C 
ATOM     13  C   UNL     1      49.413 -37.155  48.372  0.00  0.00    +0.000 A 
ATOM     14  C   UNL     1      49.348 -37.029  45.607  0.00  0.00    +0.000 A 
ATOM     15  C   UNL     1      49.205 -35.931  47.744  0.00  0.00    +0.000 A 
ATOM     16  C   UNL     1      49.169 -35.868  46.356  0.00  0.00    +0.000 A 
ENDROOT
BRANCH   3  17
ATOM     17  N   UNL     1      49.278 -41.910  49.955  0.00  0.00    +0.000 N 
ATOM     18  H   UNL     1      50.081 -41.400  50.353  0.00  0.00    +0.000 HD
BRANCH  17  19
ATOM     19  C   UNL     1      48.768 -43.024  50.737  0.00  0.00    +0.000 C 
ATOM     20  C   UNL     1      48.231 -44.197  51.563  0.00  0.00    +0.000 C 
BRANCH  20  21
ATOM     21  N   UNL     1      47.732 -45.312  52.351  0.00  0.00    +0.000 N 
BRANCH  21  22
ATOM     22  C   UNL     1      48.556 -46.465  52.037  0.00  0.00    +0.000 C 
ATOM     23  C   UNL     1      49.433 -47.680  51.719  0.00  0.00    +0.000 C 
ENDBRANCH  21  22
BRANCH  21  24
ATOM     24  C   UNL     1      46.399 -45.615  51.866  0.00  0.00    +0.000 C 
ATOM     25  C   UNL     1      44.999 -45.935  51.334  0.00  0.00    +0.000 C 
ENDBRANCH  21  24
ENDBRANCH  20  21
ENDBRANCH  17  19
ENDBRANCH   3  17
TORSDOF 5
ENDMDL
MODEL 3
REMARK VINA RESULT:      -5.9      8.788     12.188
REMARK  Name = LUCANTHONE.pdbqt.pdb
REMARK  5 active torsions:
REMARK  status: ('A' for Active; 'I' for Inactive)
REMARK    1  A    between atoms: C_3  and  N_17
REMARK    2  A    between atoms: N_17  and  C_19
REMARK    3  A    between atoms: C_20  and  N_21
REMARK    4  A    between atoms: N_21  and  C_22
REMARK    5  A    between atoms: N_21  and  C_24
REMARK                            x       y       z     vdW  Elec       q    Type
REMARK                         _______ _______ _______ _____ _____    ______ ____
ROOT
ATOM      1  S   UNL     1      44.192 -55.362  57.936  0.00  0.00    +0.000 S 
ATOM      2  O   UNL     1      47.624 -52.756  57.458  0.00  0.00    +0.000 OA
ATOM      3  C   UNL     1      45.858 -52.658  55.292  0.00  0.00    +0.000 A 
ATOM      4  C   UNL     1      45.675 -53.538  56.395  0.00  0.00    +0.000 A 
ATOM      5  C   UNL     1      44.483 -54.280  56.535  0.00  0.00    +0.000 A 
ATOM      6  C   UNL     1      43.482 -54.131  55.546  0.00  0.00    +0.000 A 
ATOM      7  C   UNL     1      46.768 -53.638  57.405  0.00  0.00    +0.000 A 
ATOM      8  C   UNL     1      44.846 -52.570  54.329  0.00  0.00    +0.000 A 
ATOM      9  C   UNL     1      46.879 -54.777  58.327  0.00  0.00    +0.000 A 
ATOM     10  C   UNL     1      43.667 -53.285  54.458  0.00  0.00    +0.000 A 
ATOM     11  C   UNL     1      45.804 -55.609  58.599  0.00  0.00    +0.000 A 
ATOM     12  C   UNL     1      42.160 -54.867  55.577  0.00  0.00    +0.000 C 
ATOM     13  C   UNL     1      48.116 -54.995  58.943  0.00  0.00    +0.000 A 
ATOM     14  C   UNL     1      45.981 -56.670  59.491  0.00  0.00    +0.000 A 
ATOM     15  C   UNL     1      48.285 -56.058  59.825  0.00  0.00    +0.000 A 
ATOM     16  C   UNL     1      47.213 -56.901  60.098  0.00  0.00    +0.000 A 
ENDROOT
BRANCH   3  17
ATOM     17  N   UNL     1      47.092 -51.997  55.058  0.00  0.00    +0.000 N 
ATOM     18  H   UNL     1      47.576 -51.782  55.943  0.00  0.00    +0.000 HD
BRANCH  17  19
ATOM     19  C   UNL     1      47.180 -50.992  54.012  0.00  0.00    +0.000 C 
ATOM     20  C   UNL     1      47.273 -49.933  52.909  0.00  0.00    +0.000 C 
BRANCH  20  21
ATOM     21  N   UNL     1      47.374 -48.927  51.864  0.00  0.00    +0.000 N 
BRANCH  21  22
ATOM     22  C   UNL     1      48.776 -48.576  51.736  0.00  0.00    +0.000 C 
ATOM     23  C   UNL     1      50.255 -48.207  51.587  0.00  0.00    +0.000 C 
ENDBRANCH  21  22
BRANCH  21  24
ATOM     24  C   UNL     1      46.695 -47.740  52.348  0.00  0.00    +0.000 C 
ATOM     25  C   UNL     1      45.993 -46.474  52.850  0.00  0.00    +0.000 C 
ENDBRANCH  21  24
ENDBRANCH  20  21
ENDBRANCH  17  19
ENDBRANCH   3  17
TORSDOF 5
ENDMDL
MODEL 4
REMARK VINA RESULT:      -5.8      3.855      8.904
REMARK  Name = LUCANTHONE.pdbqt.pdb
REMARK  5 active torsions:
REMARK  status: ('A' for Active; 'I' for Inactive)
REMARK    1  A    between atoms: C_3  and  N_17
REMARK    2  A    between atoms: N_17  and  C_19
REMARK    3  A    between atoms: C_20  and  N_21
REMARK    4  A    between atoms: N_21  and  C_22
REMARK    5  A    between atoms: N_21  and  C_24
REMARK                            x       y       z     vdW  Elec       q    Type
REMARK                         _______ _______ _______ _____ _____    ______ ____
ROOT
ATOM      1  S   UNL     1      48.913 -36.309  46.881  0.00  0.00    +0.000 S 
ATOM      2  O   UNL     1      49.377 -40.297  45.243  0.00  0.00    +0.000 OA
ATOM      3  C   UNL     1      49.513 -40.232  48.035  0.00  0.00    +0.000 A 
ATOM      4  C   UNL     1      49.384 -39.056  47.243  0.00  0.00    +0.000 A 
ATOM      5  C   UNL     1      49.132 -37.806  47.846  0.00  0.00    +0.000 A 
ATOM      6  C   UNL     1      49.021 -37.752  49.256  0.00  0.00    +0.000 A 
ATOM      7  C   UNL     1      49.503 -39.189  45.762  0.00  0.00    +0.000 A 
ATOM      8  C   UNL     1      49.422 -40.116  49.427  0.00  0.00    +0.000 A 
ATOM      9  C   UNL     1      49.797 -38.039  44.896  0.00  0.00    +0.000 A 
ATOM     10  C   UNL     1      49.166 -38.897  50.032  0.00  0.00    +0.000 A 
ATOM     11  C   UNL     1      49.596 -36.732  45.314  0.00  0.00    +0.000 A 
ATOM     12  C   UNL     1      48.753 -36.477  50.026  0.00  0.00    +0.000 C 
ATOM     13  C   UNL     1      50.282 -38.302  43.610  0.00  0.00    +0.000 A 
ATOM     14  C   UNL     1      49.893 -35.689  44.435  0.00  0.00    +0.000 A 
ATOM     15  C   UNL     1      50.581 -37.256  42.743  0.00  0.00    +0.000 A 
ATOM     16  C   UNL     1      50.389 -35.943  43.158  0.00  0.00    +0.000 A 
ENDROOT
BRANCH   3  17
ATOM     17  N   UNL     1      49.891 -41.478  47.470  0.00  0.00    +0.000 N 
ATOM     18  H   UNL     1      49.803 -41.465  46.442  0.00  0.00    +0.000 HD
BRANCH  17  19
ATOM     19  C   UNL     1      49.511 -42.712  48.136  0.00  0.00    +0.000 C 
ATOM     20  C   UNL     1      49.111 -44.012  48.841  0.00  0.00    +0.000 C 
BRANCH  20  21
ATOM     21  N   UNL     1      48.743 -45.250  49.508  0.00  0.00    +0.000 N 
BRANCH  21  22
ATOM     22  C   UNL     1      48.335 -44.908  50.858  0.00  0.00    +0.000 C 
ATOM     23  C   UNL     1      47.919 -44.544  52.286  0.00  0.00    +0.000 C 
ENDBRANCH  21  22
BRANCH  21  24
ATOM     24  C   UNL     1      49.950 -46.044  49.632  0.00  0.00    +0.000 C 
ATOM     25  C   UNL     1      51.235 -46.866  49.774  0.00  0.00    +0.000 C 
ENDBRANCH  21  24
ENDBRANCH  20  21
ENDBRANCH  17  19
ENDBRANCH   3  17
TORSDOF 5
ENDMDL
MODEL 5
REMARK VINA RESULT:      -5.8      9.162     12.775
REMARK  Name = LUCANTHONE.pdbqt.pdb
REMARK  5 active torsions:
REMARK  status: ('A' for Active; 'I' for Inactive)
REMARK    1  A    between atoms: C_3  and  N_17
REMARK    2  A    between atoms: N_17  and  C_19
REMARK    3  A    between atoms: C_20  and  N_21
REMARK    4  A    between atoms: N_21  and  C_22
REMARK    5  A    between atoms: N_21  and  C_24
REMARK                            x       y       z     vdW  Elec       q    Type
REMARK                         _______ _______ _______ _____ _____    ______ ____
ROOT
ATOM      1  S   UNL     1      45.821 -55.767  58.172  0.00  0.00    +0.000 S 
ATOM      2  O   UNL     1      43.515 -54.529  54.716  0.00  0.00    +0.000 OA
ATOM      3  C   UNL     1      45.858 -53.042  55.065  0.00  0.00    +0.000 A 
ATOM      4  C   UNL     1      45.439 -54.047  55.983  0.00  0.00    +0.000 A 
ATOM      5  C   UNL     1      46.290 -54.470  57.025  0.00  0.00    +0.000 A 
ATOM      6  C   UNL     1      47.563 -53.863  57.139  0.00  0.00    +0.000 A 
ATOM      7  C   UNL     1      44.087 -54.650  55.798  0.00  0.00    +0.000 A 
ATOM      8  C   UNL     1      47.116 -52.456  55.240  0.00  0.00    +0.000 A 
ATOM      9  C   UNL     1      43.396 -55.364  56.880  0.00  0.00    +0.000 A 
ATOM     10  C   UNL     1      47.966 -52.868  56.253  0.00  0.00    +0.000 A 
ATOM     11  C   UNL     1      44.074 -55.866  57.981  0.00  0.00    +0.000 A 
ATOM     12  C   UNL     1      48.570 -54.223  58.209  0.00  0.00    +0.000 C 
ATOM     13  C   UNL     1      42.012 -55.539  56.762  0.00  0.00    +0.000 A 
ATOM     14  C   UNL     1      43.352 -56.540  58.969  0.00  0.00    +0.000 A 
ATOM     15  C   UNL     1      41.300 -56.205  57.755  0.00  0.00    +0.000 A 
ATOM     16  C   UNL     1      41.972 -56.705  58.864  0.00  0.00    +0.000 A 
ENDROOT
BRANCH   3  17
ATOM     17  N   UNL     1      44.978 -52.509  54.087  0.00  0.00    +0.000 N 
ATOM     18  H   UNL     1      44.443 -53.255  53.617  0.00  0.00    +0.000 HD
BRANCH  17  19
ATOM     19  C   UNL     1      45.422 -51.406  53.251  0.00  0.00    +0.000 C 
ATOM     20  C   UNL     1      45.891 -50.243  52.371  0.00  0.00    +0.000 C 
BRANCH  20  21
ATOM     21  N   UNL     1      46.337 -49.133  51.545  0.00  0.00    +0.000 N 
BRANCH  21  22
ATOM     22  C   UNL     1      47.774 -49.260  51.391  0.00  0.00    +0.000 C 
ATOM     23  C   UNL     1      49.292 -49.380  51.225  0.00  0.00    +0.000 C 
ENDBRANCH  21  22
BRANCH  21  24
ATOM     24  C   UNL     1      46.111 -47.918  52.304  0.00  0.00    +0.000 C 
ATOM     25  C   UNL     1      45.871 -46.624  53.089  0.00  0.00    +0.000 C 
ENDBRANCH  21  24
ENDBRANCH  20  21
ENDBRANCH  17  19
ENDBRANCH   3  17
TORSDOF 5
ENDMDL
MODEL 6
REMARK VINA RESULT:      -5.7      8.323     11.842
REMARK  Name = LUCANTHONE.pdbqt.pdb
REMARK  5 active torsions:
REMARK  status: ('A' for Active; 'I' for Inactive)
REMARK    1  A    between atoms: C_3  and  N_17
REMARK    2  A    between atoms: N_17  and  C_19
REMARK    3  A    between atoms: C_20  and  N_21
REMARK    4  A    between atoms: N_21  and  C_22
REMARK    5  A    between atoms: N_21  and  C_24
REMARK                            x       y       z     vdW  Elec       q    Type
REMARK                         _______ _______ _______ _____ _____    ______ ____
ROOT
ATOM      1  S   UNL     1      45.434 -54.542  57.772  0.00  0.00    +0.000 S 
ATOM      2  O   UNL     1      47.295 -51.921  54.862  0.00  0.00    +0.000 OA
ATOM      3  C   UNL     1      44.773 -52.832  54.068  0.00  0.00    +0.000 A 
ATOM      4  C   UNL     1      45.401 -53.258  55.271  0.00  0.00    +0.000 A 
ATOM      5  C   UNL     1      44.695 -54.027  56.220  0.00  0.00    +0.000 A 
ATOM      6  C   UNL     1      43.351 -54.370  55.937  0.00  0.00    +0.000 A 
ATOM      7  C   UNL     1      46.817 -52.853  55.508  0.00  0.00    +0.000 A 
ATOM      8  C   UNL     1      43.451 -53.223  53.827  0.00  0.00    +0.000 A 
ATOM      9  C   UNL     1      47.679 -53.550  56.472  0.00  0.00    +0.000 A 
ATOM     10  C   UNL     1      42.742 -53.969  54.753  0.00  0.00    +0.000 A 
ATOM     11  C   UNL     1      47.159 -54.340  57.486  0.00  0.00    +0.000 A 
ATOM     12  C   UNL     1      42.483 -55.188  56.868  0.00  0.00    +0.000 C 
ATOM     13  C   UNL     1      49.063 -53.382  56.346  0.00  0.00    +0.000 A 
ATOM     14  C   UNL     1      48.039 -54.969  58.370  0.00  0.00    +0.000 A 
ATOM     15  C   UNL     1      49.932 -54.018  57.227  0.00  0.00    +0.000 A 
ATOM     16  C   UNL     1      49.418 -54.817  58.242  0.00  0.00    +0.000 A 
ENDROOT
BRANCH   3  17
ATOM     17  N   UNL     1      45.494 -52.168  53.041  0.00  0.00    +0.000 N 
ATOM     18  H   UNL     1      46.465 -51.977  53.329  0.00  0.00    +0.000 HD
BRANCH  17  19
ATOM     19  C   UNL     1      44.837 -51.135  52.258  0.00  0.00    +0.000 C 
ATOM     20  C   UNL     1      44.142 -50.047  51.432  0.00  0.00    +0.000 C 
BRANCH  20  21
ATOM     21  N   UNL     1      43.475 -49.022  50.646  0.00  0.00    +0.000 N 
BRANCH  21  22
ATOM     22  C   UNL     1      44.013 -47.740  51.063  0.00  0.00    +0.000 C 
ATOM     23  C   UNL     1      44.591 -46.395  51.512  0.00  0.00    +0.000 C 
ENDBRANCH  21  22
BRANCH  21  24
ATOM     24  C   UNL     1      42.078 -49.027  51.036  0.00  0.00    +0.000 C 
ATOM     25  C   UNL     1      40.599 -49.048  51.435  0.00  0.00    +0.000 C 
ENDBRANCH  21  24
ENDBRANCH  20  21
ENDBRANCH  17  19
ENDBRANCH   3  17
TORSDOF 5
ENDMDL
MODEL 7
REMARK VINA RESULT:      -5.7     15.956     16.991
REMARK  Name = LUCANTHONE.pdbqt.pdb
REMARK  5 active torsions:
REMARK  status: ('A' for Active; 'I' for Inactive)
REMARK    1  A    between atoms: C_3  and  N_17
REMARK    2  A    between atoms: N_17  and  C_19
REMARK    3  A    between atoms: C_20  and  N_21
REMARK    4  A    between atoms: N_21  and  C_22
REMARK    5  A    between atoms: N_21  and  C_24
REMARK                            x       y       z     vdW  Elec       q    Type
REMARK                         _______ _______ _______ _____ _____    ______ ____
ROOT
ATOM      1  S   UNL     1      57.124 -53.863  61.180  0.00  0.00    +0.000 S 
ATOM      2  O   UNL     1      58.764 -51.989  57.631  0.00  0.00    +0.000 OA
ATOM      3  C   UNL     1      58.538 -50.234  59.797  0.00  0.00    +0.000 A 
ATOM      4  C   UNL     1      58.083 -51.582  59.847  0.00  0.00    +0.000 A 
ATOM      5  C   UNL     1      57.658 -52.154  61.064  0.00  0.00    +0.000 A 
ATOM      6  C   UNL     1      57.689 -51.350  62.229  0.00  0.00    +0.000 A 
ATOM      7  C   UNL     1      58.086 -52.373  58.583  0.00  0.00    +0.000 A 
ATOM      8  C   UNL     1      58.521 -49.476  60.973  0.00  0.00    +0.000 A 
ATOM      9  C   UNL     1      57.279 -53.590  58.420  0.00  0.00    +0.000 A 
ATOM     10  C   UNL     1      58.116 -50.027  62.177  0.00  0.00    +0.000 A 
ATOM     11  C   UNL     1      56.787 -54.297  59.507  0.00  0.00    +0.000 A 
ATOM     12  C   UNL     1      57.262 -51.840  63.595  0.00  0.00    +0.000 C 
ATOM     13  C   UNL     1      57.026 -54.033  57.117  0.00  0.00    +0.000 A 
ATOM     14  C   UNL     1      56.032 -55.449  59.278  0.00  0.00    +0.000 A 
ATOM     15  C   UNL     1      56.267 -55.178  56.898  0.00  0.00    +0.000 A 
ATOM     16  C   UNL     1      55.765 -55.888  57.983  0.00  0.00    +0.000 A 
ENDROOT
BRANCH   3  17
ATOM     17  N   UNL     1      58.851 -49.594  58.569  0.00  0.00    +0.000 N 
ATOM     18  H   UNL     1      58.948 -50.279  57.804  0.00  0.00    +0.000 HD
BRANCH  17  19
ATOM     19  C   UNL     1      59.780 -48.477  58.559  0.00  0.00    +0.000 C 
ATOM     20  C   UNL     1      60.759 -47.298  58.550  0.00  0.00    +0.000 C 
BRANCH  20  21
ATOM     21  N   UNL     1      61.679 -46.173  58.536  0.00  0.00    +0.000 N 
BRANCH  21  22
ATOM     22  C   UNL     1      62.936 -46.650  57.990  0.00  0.00    +0.000 C 
ATOM     23  C   UNL     1      64.256 -47.168  57.411  0.00  0.00    +0.000 C 
ENDBRANCH  21  22
BRANCH  21  24
ATOM     24  C   UNL     1      61.940 -45.818  59.918  0.00  0.00    +0.000 C 
ATOM     25  C   UNL     1      62.210 -45.423  61.373  0.00  0.00    +0.000 C 
ENDBRANCH  21  24
ENDBRANCH  20  21
ENDBRANCH  17  19
ENDBRANCH   3  17
TORSDOF 5
ENDMDL
MODEL 8
REMARK VINA RESULT:      -5.7      7.622     10.610
REMARK  Name = LUCANTHONE.pdbqt.pdb
REMARK  5 active torsions:
REMARK  status: ('A' for Active; 'I' for Inactive)
REMARK    1  A    between atoms: C_3  and  N_17
REMARK    2  A    between atoms: N_17  and  C_19
REMARK    3  A    between atoms: C_20  and  N_21
REMARK    4  A    between atoms: N_21  and  C_22
REMARK    5  A    between atoms: N_21  and  C_24
REMARK                            x       y       z     vdW  Elec       q    Type
REMARK                         _______ _______ _______ _____ _____    ______ ____
ROOT
ATOM      1  S   UNL     1      44.178 -54.512  56.525  0.00  0.00    +0.000 S 
ATOM      2  O   UNL     1      47.214 -51.586  55.512  0.00  0.00    +0.000 OA
ATOM      3  C   UNL     1      45.314 -51.944  53.492  0.00  0.00    +0.000 A 
ATOM      4  C   UNL     1      45.315 -52.710  54.691  0.00  0.00    +0.000 A 
ATOM      5  C   UNL     1      44.239 -53.568  55.000  0.00  0.00    +0.000 A 
ATOM      6  C   UNL     1      43.165 -53.652  54.082  0.00  0.00    +0.000 A 
ATOM      7  C   UNL     1      46.475 -52.564  55.618  0.00  0.00    +0.000 A 
ATOM      8  C   UNL     1      44.239 -52.087  52.606  0.00  0.00    +0.000 A 
ATOM      9  C   UNL     1      46.789 -53.570  56.642  0.00  0.00    +0.000 A 
ATOM     10  C   UNL     1      43.171 -52.918  52.900  0.00  0.00    +0.000 A 
ATOM     11  C   UNL     1      45.848 -54.489  57.083  0.00  0.00    +0.000 A 
ATOM     12  C   UNL     1      41.952 -54.532  54.292  0.00  0.00    +0.000 C 
ATOM     13  C   UNL     1      48.080 -53.569  57.180  0.00  0.00    +0.000 A 
ATOM     14  C   UNL     1      46.215 -55.413  58.064  0.00  0.00    +0.000 A 
ATOM     15  C   UNL     1      48.439 -54.498  58.152  0.00  0.00    +0.000 A 
ATOM     16  C   UNL     1      47.503 -55.426  58.594  0.00  0.00    +0.000 A 
ENDROOT
BRANCH   3  17
ATOM     17  N   UNL     1      46.437 -51.172  53.095  0.00  0.00    +0.000 N 
ATOM     18  H   UNL     1      47.300 -51.505  53.550  0.00  0.00    +0.000 HD
BRANCH  17  19
ATOM     19  C   UNL     1      46.299 -49.734  52.942  0.00  0.00    +0.000 C 
ATOM     20  C   UNL     1      46.152 -48.217  52.783  0.00  0.00    +0.000 C 
BRANCH  20  21
ATOM     21  N   UNL     1      46.001 -46.779  52.631  0.00  0.00    +0.000 N 
BRANCH  21  22
ATOM     22  C   UNL     1      44.713 -46.544  52.005  0.00  0.00    +0.000 C 
ATOM     23  C   UNL     1      43.349 -46.289  51.357  0.00  0.00    +0.000 C 
ENDBRANCH  21  22
BRANCH  21  24
ATOM     24  C   UNL     1      47.006 -46.342  51.680  0.00  0.00    +0.000 C 
ATOM     25  C   UNL     1      48.058 -45.862  50.675  0.00  0.00    +0.000 C 
ENDBRANCH  21  24
ENDBRANCH  20  21
ENDBRANCH  17  19
ENDBRANCH   3  17
TORSDOF 5
ENDMDL
MODEL 9
REMARK VINA RESULT:      -5.6      3.591      6.577
REMARK  Name = LUCANTHONE.pdbqt.pdb
REMARK  5 active torsions:
REMARK  status: ('A' for Active; 'I' for Inactive)
REMARK    1  A    between atoms: C_3  and  N_17
REMARK    2  A    between atoms: N_17  and  C_19
REMARK    3  A    between atoms: C_20  and  N_21
REMARK    4  A    between atoms: N_21  and  C_22
REMARK    5  A    between atoms: N_21  and  C_24
REMARK                            x       y       z     vdW  Elec       q    Type
REMARK                         _______ _______ _______ _____ _____    ______ ____
ROOT
ATOM      1  S   UNL     1      48.477 -39.424  50.994  0.00  0.00    +0.000 S 
ATOM      2  O   UNL     1      50.120 -41.504  47.564  0.00  0.00    +0.000 OA
ATOM      3  C   UNL     1      49.593 -38.804  47.064  0.00  0.00    +0.000 A 
ATOM      4  C   UNL     1      49.274 -39.434  48.299  0.00  0.00    +0.000 A 
ATOM      5  C   UNL     1      48.840 -38.674  49.405  0.00  0.00    +0.000 A 
ATOM      6  C   UNL     1      48.722 -37.272  49.250  0.00  0.00    +0.000 A 
ATOM      7  C   UNL     1      49.431 -40.915  48.395  0.00  0.00    +0.000 A 
ATOM      8  C   UNL     1      49.432 -37.418  46.957  0.00  0.00    +0.000 A 
ATOM      9  C   UNL     1      48.762 -41.706  49.437  0.00  0.00    +0.000 A 
ATOM     10  C   UNL     1      49.016 -36.657  48.037  0.00  0.00    +0.000 A 
ATOM     11  C   UNL     1      48.282 -41.129  50.604  0.00  0.00    +0.000 A 
ATOM     12  C   UNL     1      48.269 -36.343  50.354  0.00  0.00    +0.000 C 
ATOM     13  C   UNL     1      48.631 -43.082  49.224  0.00  0.00    +0.000 A 
ATOM     14  C   UNL     1      47.662 -41.944  51.554  0.00  0.00    +0.000 A 
ATOM     15  C   UNL     1      48.005 -43.885  50.173  0.00  0.00    +0.000 A 
ATOM     16  C   UNL     1      47.516 -43.313  51.342  0.00  0.00    +0.000 A 
ENDROOT
BRANCH   3  17
ATOM     17  N   UNL     1      49.909 -39.553  45.900  0.00  0.00    +0.000 N 
ATOM     18  H   UNL     1      50.754 -39.186  45.436  0.00  0.00    +0.000 HD
BRANCH  17  19
ATOM     19  C   UNL     1      48.839 -40.009  45.030  0.00  0.00    +0.000 C 
ATOM     20  C   UNL     1      47.712 -40.489  44.110  0.00  0.00    +0.000 C 
BRANCH  20  21
ATOM     21  N   UNL     1      46.638 -40.934  43.236  0.00  0.00    +0.000 N 
BRANCH  21  22
ATOM     22  C   UNL     1      45.452 -40.176  43.591  0.00  0.00    +0.000 C 
ATOM     23  C   UNL     1      44.199 -39.373  43.951  0.00  0.00    +0.000 C 
ENDBRANCH  21  22
BRANCH  21  24
ATOM     24  C   UNL     1      46.358 -42.317  43.573  0.00  0.00    +0.000 C 
ATOM     25  C   UNL     1      46.045 -43.776  43.918  0.00  0.00    +0.000 C 
ENDBRANCH  21  24
ENDBRANCH  20  21
ENDBRANCH  17  19
ENDBRANCH   3  17
TORSDOF 5
ENDMDL
