MODEL 1
REMARK VINA RESULT:      -6.2      0.000      0.000
REMARK  Name = MeIQx.pdbqt.pdb
REMARK  0 active torsions:
REMARK  status: ('A' for Active; 'I' for Inactive)
REMARK                            x       y       z     vdW  Elec       q    Type
REMARK                         _______ _______ _______ _____ _____    ______ ____
ROOT
ATOM      1  N   UNL     1      48.480 -37.759  49.738  0.00  0.00    +0.000 N 
ATOM      2  N   UNL     1      47.789 -39.097  51.362  0.00  0.00    +0.000 NA
ATOM      3  N   UNL     1      48.163 -42.008  51.289  0.00  0.00    +0.000 NA
ATOM      4  N   UNL     1      49.474 -43.086  49.004  0.00  0.00    +0.000 NA
ATOM      5  C   UNL     1      48.837 -39.016  49.328  0.00  0.00    +0.000 A 
ATOM      6  C   UNL     1      48.394 -39.841  50.361  0.00  0.00    +0.000 A 
ATOM      7  C   UNL     1      48.608 -41.239  50.260  0.00  0.00    +0.000 A 
ATOM      8  C   UNL     1      49.263 -41.761  49.117  0.00  0.00    +0.000 A 
ATOM      9  C   UNL     1      47.846 -37.844  50.967  0.00  0.00    +0.000 A 
ATOM     10  C   UNL     1      49.487 -39.502  48.191  0.00  0.00    +0.000 A 
ATOM     11  C   UNL     1      49.680 -40.885  48.124  0.00  0.00    +0.000 A 
ATOM     12  C   UNL     1      48.760 -36.549  49.021  0.00  0.00    +0.000 C 
ATOM     13  C   UNL     1      48.384 -43.332  51.156  0.00  0.00    +0.000 A 
ATOM     14  C   UNL     1      49.025 -43.856  50.037  0.00  0.00    +0.000 A 
ATOM     15  C   UNL     1      47.924 -44.251  52.252  0.00  0.00    +0.000 C 
ATOM     16  N   UNL     1      47.361 -36.783  51.650  0.00  0.00    +0.000 N 
ATOM     17  H   UNL     1      47.097 -36.917  52.622  0.00  0.00    +0.000 HD
ATOM     18  H   UNL     1      47.629 -35.834  51.399  0.00  0.00    +0.000 HD
ENDROOT
TORSDOF 0
ENDMDL
MODEL 2
REMARK VINA RESULT:      -6.2      3.223      5.297
REMARK  Name = MeIQx.pdbqt.pdb
REMARK  0 active torsions:
REMARK  status: ('A' for Active; 'I' for Inactive)
REMARK                            x       y       z     vdW  Elec       q    Type
REMARK                         _______ _______ _______ _____ _____    ______ ____
ROOT
ATOM      1  N   UNL     1      49.359 -37.221  45.663  0.00  0.00    +0.000 N 
ATOM      2  N   UNL     1      48.456 -35.712  47.009  0.00  0.00    +0.000 NA
ATOM      3  N   UNL     1      48.273 -36.083  49.916  0.00  0.00    +0.000 NA
ATOM      4  N   UNL     1      49.320 -38.507  50.978  0.00  0.00    +0.000 NA
ATOM      5  C   UNL     1      49.467 -37.765  46.915  0.00  0.00    +0.000 A 
ATOM      6  C   UNL     1      48.893 -36.802  47.746  0.00  0.00    +0.000 A 
ATOM      7  C   UNL     1      48.839 -37.047  49.141  0.00  0.00    +0.000 A 
ATOM      8  C   UNL     1      49.364 -38.258  49.655  0.00  0.00    +0.000 A 
ATOM      9  C   UNL     1      48.740 -35.985  45.755  0.00  0.00    +0.000 A 
ATOM     10  C   UNL     1      49.994 -38.966  47.394  0.00  0.00    +0.000 A 
ATOM     11  C   UNL     1      49.922 -39.175  48.775  0.00  0.00    +0.000 A 
ATOM     12  C   UNL     1      49.850 -37.827  44.459  0.00  0.00    +0.000 C 
ATOM     13  C   UNL     1      48.239 -36.352  51.237  0.00  0.00    +0.000 A 
ATOM     14  C   UNL     1      48.752 -37.539  51.753  0.00  0.00    +0.000 A 
ATOM     15  C   UNL     1      47.633 -35.336  52.162  0.00  0.00    +0.000 C 
ATOM     16  N   UNL     1      48.476 -35.184  44.698  0.00  0.00    +0.000 N 
ATOM     17  H   UNL     1      48.207 -34.222  44.880  0.00  0.00    +0.000 HD
ATOM     18  H   UNL     1      48.913 -35.351  43.794  0.00  0.00    +0.000 HD
ENDROOT
TORSDOF 0
ENDMDL
MODEL 3
REMARK VINA RESULT:      -6.0      1.913      3.309
REMARK  Name = MeIQx.pdbqt.pdb
REMARK  0 active torsions:
REMARK  status: ('A' for Active; 'I' for Inactive)
REMARK                            x       y       z     vdW  Elec       q    Type
REMARK                         _______ _______ _______ _____ _____    ______ ____
ROOT
ATOM      1  N   UNL     1      48.697 -41.032  49.566  0.00  0.00    +0.000 N 
ATOM      2  N   UNL     1      47.165 -41.757  50.992  0.00  0.00    +0.000 NA
ATOM      3  N   UNL     1      46.953 -44.572  51.799  0.00  0.00    +0.000 NA
ATOM      4  N   UNL     1      48.825 -46.388  50.662  0.00  0.00    +0.000 NA
ATOM      5  C   UNL     1      48.932 -42.377  49.674  0.00  0.00    +0.000 A 
ATOM      6  C   UNL     1      47.959 -42.814  50.573  0.00  0.00    +0.000 A 
ATOM      7  C   UNL     1      47.915 -44.188  50.918  0.00  0.00    +0.000 A 
ATOM      8  C   UNL     1      48.853 -45.080  50.345  0.00  0.00    +0.000 A 
ATOM      9  C   UNL     1      47.621 -40.692  50.371  0.00  0.00    +0.000 A 
ATOM     10  C   UNL     1      49.871 -43.233  49.094  0.00  0.00    +0.000 A 
ATOM     11  C   UNL     1      49.796 -44.582  49.457  0.00  0.00    +0.000 A 
ATOM     12  C   UNL     1      49.473 -40.122  48.775  0.00  0.00    +0.000 C 
ATOM     13  C   UNL     1      46.942 -45.886  52.103  0.00  0.00    +0.000 A 
ATOM     14  C   UNL     1      47.859 -46.772  51.545  0.00  0.00    +0.000 A 
ATOM     15  C   UNL     1      45.911 -46.391  53.072  0.00  0.00    +0.000 C 
ATOM     16  N   UNL     1      47.125 -39.441  50.491  0.00  0.00    +0.000 N 
ATOM     17  H   UNL     1      46.474 -39.253  51.248  0.00  0.00    +0.000 HD
ATOM     18  H   UNL     1      47.653 -38.636  50.161  0.00  0.00    +0.000 HD
ENDROOT
TORSDOF 0
ENDMDL
MODEL 4
REMARK VINA RESULT:      -5.8      2.490      4.929
REMARK  Name = MeIQx.pdbqt.pdb
REMARK  0 active torsions:
REMARK  status: ('A' for Active; 'I' for Inactive)
REMARK                            x       y       z     vdW  Elec       q    Type
REMARK                         _______ _______ _______ _____ _____    ______ ____
ROOT
ATOM      1  N   UNL     1      48.610 -38.241  50.611  0.00  0.00    +0.000 N 
ATOM      2  N   UNL     1      49.050 -40.000  49.341  0.00  0.00    +0.000 NA
ATOM      3  N   UNL     1      49.615 -39.783  46.467  0.00  0.00    +0.000 NA
ATOM      4  N   UNL     1      49.577 -37.172  45.336  0.00  0.00    +0.000 NA
ATOM      5  C   UNL     1      48.812 -37.723  49.359  0.00  0.00    +0.000 A 
ATOM      6  C   UNL     1      49.086 -38.844  48.576  0.00  0.00    +0.000 A 
ATOM      7  C   UNL     1      49.350 -38.665  47.195  0.00  0.00    +0.000 A 
ATOM      8  C   UNL     1      49.328 -37.360  46.646  0.00  0.00    +0.000 A 
ATOM      9  C   UNL     1      48.756 -39.618  50.563  0.00  0.00    +0.000 A 
ATOM     10  C   UNL     1      48.786 -36.424  48.846  0.00  0.00    +0.000 A 
ATOM     11  C   UNL     1      49.049 -36.286  47.480  0.00  0.00    +0.000 A 
ATOM     12  C   UNL     1      48.332 -37.466  51.786  0.00  0.00    +0.000 C 
ATOM     13  C   UNL     1      49.861 -39.573  45.158  0.00  0.00    +0.000 A 
ATOM     14  C   UNL     1      49.841 -38.295  44.608  0.00  0.00    +0.000 A 
ATOM     15  C   UNL     1      50.165 -40.758  44.285  0.00  0.00    +0.000 C 
ATOM     16  N   UNL     1      48.616 -40.436  51.630  0.00  0.00    +0.000 N 
ATOM     17  H   UNL     1      48.937 -41.396  51.543  0.00  0.00    +0.000 HD
ATOM     18  H   UNL     1      48.607 -40.064  52.576  0.00  0.00    +0.000 HD
ENDROOT
TORSDOF 0
ENDMDL
MODEL 5
REMARK VINA RESULT:      -5.8      2.166      3.831
REMARK  Name = MeIQx.pdbqt.pdb
REMARK  0 active torsions:
REMARK  status: ('A' for Active; 'I' for Inactive)
REMARK                            x       y       z     vdW  Elec       q    Type
REMARK                         _______ _______ _______ _____ _____    ______ ____
ROOT
ATOM      1  N   UNL     1      49.049 -40.565  48.734  0.00  0.00    +0.000 N 
ATOM      2  N   UNL     1      49.455 -42.680  48.222  0.00  0.00    +0.000 NA
ATOM      3  N   UNL     1      48.945 -44.892  50.085  0.00  0.00    +0.000 NA
ATOM      4  N   UNL     1      47.884 -44.213  52.638  0.00  0.00    +0.000 NA
ATOM      5  C   UNL     1      48.684 -41.268  49.851  0.00  0.00    +0.000 A 
ATOM      6  C   UNL     1      48.947 -42.594  49.509  0.00  0.00    +0.000 A 
ATOM      7  C   UNL     1      48.675 -43.612  50.458  0.00  0.00    +0.000 A 
ATOM      8  C   UNL     1      48.148 -43.259  51.724  0.00  0.00    +0.000 A 
ATOM      9  C   UNL     1      49.515 -41.447  47.772  0.00  0.00    +0.000 A 
ATOM     10  C   UNL     1      48.161 -40.891  51.090  0.00  0.00    +0.000 A 
ATOM     11  C   UNL     1      47.908 -41.921  52.002  0.00  0.00    +0.000 A 
ATOM     12  C   UNL     1      48.927 -39.144  48.581  0.00  0.00    +0.000 C 
ATOM     13  C   UNL     1      48.674 -45.831  51.014  0.00  0.00    +0.000 A 
ATOM     14  C   UNL     1      48.156 -45.496  52.261  0.00  0.00    +0.000 A 
ATOM     15  C   UNL     1      48.941 -47.271  50.679  0.00  0.00    +0.000 C 
ATOM     16  N   UNL     1      49.962 -41.077  46.551  0.00  0.00    +0.000 N 
ATOM     17  H   UNL     1      50.091 -41.799  45.848  0.00  0.00    +0.000 HD
ATOM     18  H   UNL     1      49.778 -40.144  46.189  0.00  0.00    +0.000 HD
ENDROOT
TORSDOF 0
ENDMDL
MODEL 6
REMARK VINA RESULT:      -5.5     14.651     17.674
REMARK  Name = MeIQx.pdbqt.pdb
REMARK  0 active torsions:
REMARK  status: ('A' for Active; 'I' for Inactive)
REMARK                            x       y       z     vdW  Elec       q    Type
REMARK                         _______ _______ _______ _____ _____    ______ ____
ROOT
ATOM      1  N   UNL     1      38.104 -24.169  55.575  0.00  0.00    +0.000 N 
ATOM      2  N   UNL     1      39.666 -24.878  54.175  0.00  0.00    +0.000 NA
ATOM      3  N   UNL     1      40.556 -27.674  54.073  0.00  0.00    +0.000 NA
ATOM      4  N   UNL     1      39.315 -29.493  55.877  0.00  0.00    +0.000 NA
ATOM      5  C   UNL     1      38.225 -25.507  55.840  0.00  0.00    +0.000 A 
ATOM      6  C   UNL     1      39.212 -25.933  54.951  0.00  0.00    +0.000 A 
ATOM      7  C   UNL     1      39.592 -27.299  54.956  0.00  0.00    +0.000 A 
ATOM      8  C   UNL     1      38.966 -28.192  55.859  0.00  0.00    +0.000 A 
ATOM      9  C   UNL     1      38.991 -23.821  54.569  0.00  0.00    +0.000 A 
ATOM     10  C   UNL     1      37.589 -26.365  56.739  0.00  0.00    +0.000 A 
ATOM     11  C   UNL     1      37.991 -27.704  56.718  0.00  0.00    +0.000 A 
ATOM     12  C   UNL     1      37.173 -23.285  56.215  0.00  0.00    +0.000 C 
ATOM     13  C   UNL     1      40.891 -28.980  54.107  0.00  0.00    +0.000 A 
ATOM     14  C   UNL     1      40.283 -29.867  54.991  0.00  0.00    +0.000 A 
ATOM     15  C   UNL     1      41.947 -29.476  53.160  0.00  0.00    +0.000 C 
ATOM     16  N   UNL     1      39.129 -22.572  54.072  0.00  0.00    +0.000 N 
ATOM     17  H   UNL     1      39.652 -22.453  53.209  0.00  0.00    +0.000 HD
ATOM     18  H   UNL     1      38.433 -21.854  54.262  0.00  0.00    +0.000 HD
ENDROOT
TORSDOF 0
ENDMDL
MODEL 7
REMARK VINA RESULT:      -5.5     15.584     17.843
REMARK  Name = MeIQx.pdbqt.pdb
REMARK  0 active torsions:
REMARK  status: ('A' for Active; 'I' for Inactive)
REMARK                            x       y       z     vdW  Elec       q    Type
REMARK                         _______ _______ _______ _____ _____    ______ ____
ROOT
ATOM      1  N   UNL     1      58.265 -51.696  60.331  0.00  0.00    +0.000 N 
ATOM      2  N   UNL     1      58.661 -50.171  58.776  0.00  0.00    +0.000 NA
ATOM      3  N   UNL     1      59.382 -47.397  59.418  0.00  0.00    +0.000 NA
ATOM      4  N   UNL     1      59.560 -46.713  62.175  0.00  0.00    +0.000 NA
ATOM      5  C   UNL     1      58.561 -50.556  61.031  0.00  0.00    +0.000 A 
ATOM      6  C   UNL     1      58.806 -49.610  60.036  0.00  0.00    +0.000 A 
ATOM      7  C   UNL     1      59.150 -48.289  60.418  0.00  0.00    +0.000 A 
ATOM      8  C   UNL     1      59.234 -47.963  61.794  0.00  0.00    +0.000 A 
ATOM      9  C   UNL     1      58.331 -51.427  58.974  0.00  0.00    +0.000 A 
ATOM     10  C   UNL     1      58.639 -50.264  62.394  0.00  0.00    +0.000 A 
ATOM     11  C   UNL     1      58.979 -48.951  62.734  0.00  0.00    +0.000 A 
ATOM     12  C   UNL     1      57.976 -52.971  60.921  0.00  0.00    +0.000 C 
ATOM     13  C   UNL     1      59.706 -46.152  59.821  0.00  0.00    +0.000 A 
ATOM     14  C   UNL     1      59.791 -45.820  61.170  0.00  0.00    +0.000 A 
ATOM     15  C   UNL     1      59.981 -45.108  58.776  0.00  0.00    +0.000 C 
ATOM     16  N   UNL     1      58.088 -52.337  58.004  0.00  0.00    +0.000 N 
ATOM     17  H   UNL     1      58.354 -52.106  57.051  0.00  0.00    +0.000 HD
ATOM     18  H   UNL     1      58.053 -53.331  58.218  0.00  0.00    +0.000 HD
ENDROOT
TORSDOF 0
ENDMDL
MODEL 8
REMARK VINA RESULT:      -5.4      3.724      6.263
REMARK  Name = MeIQx.pdbqt.pdb
REMARK  0 active torsions:
REMARK  status: ('A' for Active; 'I' for Inactive)
REMARK                            x       y       z     vdW  Elec       q    Type
REMARK                         _______ _______ _______ _____ _____    ______ ____
ROOT
ATOM      1  N   UNL     1      49.914 -38.990  43.709  0.00  0.00    +0.000 N 
ATOM      2  N   UNL     1      50.470 -39.893  45.653  0.00  0.00    +0.000 NA
ATOM      3  N   UNL     1      49.860 -38.620  48.228  0.00  0.00    +0.000 NA
ATOM      4  N   UNL     1      48.498 -36.123  48.145  0.00  0.00    +0.000 NA
ATOM      5  C   UNL     1      49.461 -38.101  44.647  0.00  0.00    +0.000 A 
ATOM      6  C   UNL     1      49.821 -38.686  45.861  0.00  0.00    +0.000 A 
ATOM      7  C   UNL     1      49.494 -38.016  47.066  0.00  0.00    +0.000 A 
ATOM      8  C   UNL     1      48.816 -36.774  47.010  0.00  0.00    +0.000 A 
ATOM      9  C   UNL     1      50.522 -40.058  44.350  0.00  0.00    +0.000 A 
ATOM     10  C   UNL     1      48.790 -36.879  44.560  0.00  0.00    +0.000 A 
ATOM     11  C   UNL     1      48.486 -36.245  45.769  0.00  0.00    +0.000 A 
ATOM     12  C   UNL     1      49.745 -38.848  42.292  0.00  0.00    +0.000 C 
ATOM     13  C   UNL     1      49.533 -37.953  49.353  0.00  0.00    +0.000 A 
ATOM     14  C   UNL     1      48.867 -36.731  49.309  0.00  0.00    +0.000 A 
ATOM     15  C   UNL     1      49.900 -38.556  50.679  0.00  0.00    +0.000 C 
ATOM     16  N   UNL     1      51.081 -41.111  43.714  0.00  0.00    +0.000 N 
ATOM     17  H   UNL     1      51.319 -41.932  44.262  0.00  0.00    +0.000 HD
ATOM     18  H   UNL     1      50.896 -41.283  42.728  0.00  0.00    +0.000 HD
ENDROOT
TORSDOF 0
ENDMDL
MODEL 9
REMARK VINA RESULT:      -5.2     16.315     18.273
REMARK  Name = MeIQx.pdbqt.pdb
REMARK  0 active torsions:
REMARK  status: ('A' for Active; 'I' for Inactive)
REMARK                            x       y       z     vdW  Elec       q    Type
REMARK                         _______ _______ _______ _____ _____    ______ ____
ROOT
ATOM      1  N   UNL     1      57.306 -52.424  62.105  0.00  0.00    +0.000 N 
ATOM      2  N   UNL     1      57.823 -50.525  63.119  0.00  0.00    +0.000 NA
ATOM      3  N   UNL     1      58.918 -48.207  61.688  0.00  0.00    +0.000 NA
ATOM      4  N   UNL     1      59.305 -48.484  58.882  0.00  0.00    +0.000 NA
ATOM      5  C   UNL     1      57.776 -51.614  61.106  0.00  0.00    +0.000 A 
ATOM      6  C   UNL     1      58.096 -50.427  61.764  0.00  0.00    +0.000 A 
ATOM      7  C   UNL     1      58.620 -49.347  61.009  0.00  0.00    +0.000 A 
ATOM      8  C   UNL     1      58.808 -49.500  59.614  0.00  0.00    +0.000 A 
ATOM      9  C   UNL     1      57.352 -51.738  63.308  0.00  0.00    +0.000 A 
ATOM     10  C   UNL     1      57.947 -51.793  59.731  0.00  0.00    +0.000 A 
ATOM     11  C   UNL     1      58.469 -50.707  59.020  0.00  0.00    +0.000 A 
ATOM     12  C   UNL     1      56.808 -53.756  61.918  0.00  0.00    +0.000 C 
ATOM     13  C   UNL     1      59.415 -47.203  60.937  0.00  0.00    +0.000 A 
ATOM     14  C   UNL     1      59.604 -47.342  59.565  0.00  0.00    +0.000 A 
ATOM     15  C   UNL     1      59.766 -45.907  61.612  0.00  0.00    +0.000 C 
ATOM     16  N   UNL     1      56.964 -52.253  64.495  0.00  0.00    +0.000 N 
ATOM     17  H   UNL     1      56.845 -51.618  65.279  0.00  0.00    +0.000 HD
ATOM     18  H   UNL     1      56.411 -53.107  64.538  0.00  0.00    +0.000 HD
ENDROOT
TORSDOF 0
ENDMDL
