MODEL 1
REMARK VINA RESULT:      -7.9      0.000      0.000
REMARK  Name = Methotrexate.pdbqt.pdb
REMARK  9 active torsions:
REMARK  status: ('A' for Active; 'I' for Inactive)
REMARK    1  A    between atoms: C_1  and  N_22
REMARK    2  A    between atoms: C_2  and  C_9
REMARK    3  A    between atoms: CA_11  and  C_13
REMARK    4  A    between atoms: CA_11  and  CB_16
REMARK    5  A    between atoms: C_13  and  O_14
REMARK    6  A    between atoms: CG_17  and  CD_19
REMARK    7  A    between atoms: CD_19  and  OE1_20
REMARK    8  A    between atoms: N_22  and  C_24
REMARK    9  A    between atoms: C_24  and  C_31
REMARK                            x       y       z     vdW  Elec       q    Type
REMARK                         _______ _______ _______ _____ _____    ______ ____
ROOT
ATOM      1  C   UNL     1      47.792 -49.795  52.022  0.00  0.00    +0.000 A 
ATOM      2  C   UNL     1      47.163 -51.565  54.135  0.00  0.00    +0.000 A 
ATOM      3  C   UNL     1      48.421 -51.041  52.141  0.00  0.00    +0.000 A 
ATOM      4  C   UNL     1      46.843 -49.458  52.998  0.00  0.00    +0.000 A 
ATOM      5  C   UNL     1      48.112 -51.920  53.181  0.00  0.00    +0.000 A 
ATOM      6  C   UNL     1      46.527 -50.329  54.041  0.00  0.00    +0.000 A 
ENDROOT
BRANCH   2   9
ATOM      7  O   UNL     1      45.623 -52.759  55.417  0.00  0.00    +0.000 OA
ATOM      8  N   UNL     1      47.846 -52.899  56.054  0.00  0.00    +0.000 N 
ATOM      9  C   ACE A   0      46.801 -52.463  55.261  0.00  0.00    +0.000 C 
ATOM     10  H   UNL     1      48.794 -52.597  55.844  0.00  0.00    +0.000 HD
ATOM     11  CA  UNL     1      47.765 -53.732  57.155  0.00  0.00    +0.000 C 
BRANCH  11  13
ATOM     12  OXT UNL     1      50.033 -53.313  57.775  0.00  0.00    +0.000 OA
ATOM     13  C   UNL     1      49.052 -54.040  57.825  0.00  0.00    +0.000 C 
BRANCH  13  14
ATOM     14  O   UNL     1      49.059 -55.198  58.501  0.00  0.00    +0.000 OA
ATOM     15  H   UNL     1      49.420 -55.858  57.874  0.00  0.00    +0.000 HD
ENDBRANCH  13  14
ENDBRANCH  11  13
BRANCH  11  16
ATOM     16  CB  UNL     1      46.531 -54.258  57.619  0.00  0.00    +0.000 C 
ATOM     17  CG  UNL     1      45.193 -54.813  58.123  0.00  0.00    +0.000 C 
BRANCH  17  19
ATOM     18  OE2 UNL     1      42.936 -55.379  57.907  0.00  0.00    +0.000 OA
ATOM     19  CD  UNL     1      43.939 -55.314  58.597  0.00  0.00    +0.000 C 
BRANCH  19  20
ATOM     20  OE1 UNL     1      43.952 -55.694  59.887  0.00  0.00    +0.000 OA
ATOM     21  HE1 UNL     1      44.818 -55.374  60.209  0.00  0.00    +0.000 HD
ENDBRANCH  19  20
ENDBRANCH  17  19
ENDBRANCH  11  16
ENDBRANCH   2   9
BRANCH   1  22
ATOM     22  N   UNL     1      48.131 -48.907  50.973  0.00  0.00    +0.000 N 
ATOM     23  C   UNL     1      48.895 -49.354  49.822  0.00  0.00    +0.000 C 
BRANCH  22  24
ATOM     24  C   UNL     1      48.117 -47.476  51.191  0.00  0.00    +0.000 C 
BRANCH  24  31
ATOM     25  N   UNL     1      48.404 -45.324  50.383  0.00  0.00    +0.000 NA
ATOM     26  N   UNL     1      47.821 -44.055  53.020  0.00  0.00    +0.000 NA
ATOM     27  N   UNL     1      48.185 -41.974  52.075  0.00  0.00    +0.000 NA
ATOM     28  N   UNL     1      48.682 -41.699  49.775  0.00  0.00    +0.000 NA
ATOM     29  N   UNL     1      48.866 -43.399  48.250  0.00  0.00    +0.000 N 
ATOM     30  N   UNL     1      48.534 -39.904  51.209  0.00  0.00    +0.000 N 
ATOM     31  C   UNL     1      48.103 -46.073  51.407  0.00  0.00    +0.000 C 
ATOM     32  C   UNL     1      47.844 -45.327  52.598  0.00  0.00    +0.000 C 
ATOM     33  C   UNL     1      48.387 -43.935  50.622  0.00  0.00    +0.000 C 
ATOM     34  C   UNL     1      48.111 -43.325  51.976  0.00  0.00    +0.000 C 
ATOM     35  C   UNL     1      48.647 -42.973  49.534  0.00  0.00    +0.000 C 
ATOM     36  C   UNL     1      48.467 -41.246  51.044  0.00  0.00    +0.000 C 
ATOM     37  H   UNL     1      49.343 -42.725  47.663  0.00  0.00    +0.000 HD
ATOM     38  H   UNL     1      49.175 -44.360  48.148  0.00  0.00    +0.000 HD
ATOM     39  H   UNL     1      48.325 -39.389  50.364  0.00  0.00    +0.000 HD
ATOM     40  H   UNL     1      48.036 -39.587  52.031  0.00  0.00    +0.000 HD
ENDBRANCH  24  31
ENDBRANCH  22  24
ENDBRANCH   1  22
TORSDOF 9
ENDMDL
MODEL 2
REMARK VINA RESULT:      -7.8      8.440     13.083
REMARK  Name = Methotrexate.pdbqt.pdb
REMARK  9 active torsions:
REMARK  status: ('A' for Active; 'I' for Inactive)
REMARK    1  A    between atoms: C_1  and  N_22
REMARK    2  A    between atoms: C_2  and  C_9
REMARK    3  A    between atoms: CA_11  and  C_13
REMARK    4  A    between atoms: CA_11  and  CB_16
REMARK    5  A    between atoms: C_13  and  O_14
REMARK    6  A    between atoms: CG_17  and  CD_19
REMARK    7  A    between atoms: CD_19  and  OE1_20
REMARK    8  A    between atoms: N_22  and  C_24
REMARK    9  A    between atoms: C_24  and  C_31
REMARK                            x       y       z     vdW  Elec       q    Type
REMARK                         _______ _______ _______ _____ _____    ______ ____
ROOT
ATOM      1  C   UNL     1      49.196 -44.438  49.843  0.00  0.00    +0.000 A 
ATOM      2  C   UNL     1      48.638 -41.681  50.135  0.00  0.00    +0.000 A 
ATOM      3  C   UNL     1      48.393 -43.962  50.889  0.00  0.00    +0.000 A 
ATOM      4  C   UNL     1      49.717 -43.490  48.952  0.00  0.00    +0.000 A 
ATOM      5  C   UNL     1      48.113 -42.603  51.036  0.00  0.00    +0.000 A 
ATOM      6  C   UNL     1      49.443 -42.128  49.090  0.00  0.00    +0.000 A 
ENDROOT
BRANCH   2   9
ATOM      7  O   UNL     1      47.682 -39.828  51.182  0.00  0.00    +0.000 OA
ATOM      8  N   UNL     1      48.934 -39.423  49.275  0.00  0.00    +0.000 N 
ATOM      9  C   ACE A   0      48.371 -40.225  50.249  0.00  0.00    +0.000 C 
ATOM     10  H   UNL     1      49.492 -39.846  48.538  0.00  0.00    +0.000 HD
ATOM     11  CA  UNL     1      48.828 -38.048  49.164  0.00  0.00    +0.000 C 
BRANCH  11  13
ATOM     12  OXT UNL     1      48.970 -36.938  47.053  0.00  0.00    +0.000 OA
ATOM     13  C   UNL     1      49.538 -37.439  48.012  0.00  0.00    +0.000 C 
BRANCH  13  14
ATOM     14  O   UNL     1      50.876 -37.482  48.103  0.00  0.00    +0.000 OA
ATOM     15  H   UNL     1      51.200 -36.952  47.347  0.00  0.00    +0.000 HD
ENDBRANCH  13  14
ENDBRANCH  11  13
BRANCH  11  16
ATOM     16  CB  UNL     1      48.086 -37.266  50.088  0.00  0.00    +0.000 C 
ATOM     17  CG  UNL     1      47.272 -36.427  51.080  0.00  0.00    +0.000 C 
BRANCH  17  19
ATOM     18  OE2 UNL     1      46.942 -35.189  53.035  0.00  0.00    +0.000 OA
ATOM     19  CD  UNL     1      46.497 -35.649  51.997  0.00  0.00    +0.000 C 
BRANCH  19  20
ATOM     20  OE1 UNL     1      45.215 -35.479  51.626  0.00  0.00    +0.000 OA
ATOM     21  HE1 UNL     1      45.286 -34.989  50.783  0.00  0.00    +0.000 HD
ENDBRANCH  19  20
ENDBRANCH  17  19
ENDBRANCH  11  16
ENDBRANCH   2   9
BRANCH   1  22
ATOM     22  N   UNL     1      49.487 -45.817  49.720  0.00  0.00    +0.000 N 
ATOM     23  C   UNL     1      48.931 -46.792  50.642  0.00  0.00    +0.000 C 
BRANCH  22  24
ATOM     24  C   UNL     1      50.650 -46.257  48.978  0.00  0.00    +0.000 C 
BRANCH  24  31
ATOM     25  N   UNL     1      51.570 -47.530  47.276  0.00  0.00    +0.000 NA
ATOM     26  N   UNL     1      54.364 -46.693  47.906  0.00  0.00    +0.000 NA
ATOM     27  N   UNL     1      55.134 -48.049  46.197  0.00  0.00    +0.000 NA
ATOM     28  N   UNL     1      53.667 -49.271  44.794  0.00  0.00    +0.000 NA
ATOM     29  N   UNL     1      51.381 -49.271  44.951  0.00  0.00    +0.000 N 
ATOM     30  N   UNL     1      55.953 -49.365  44.537  0.00  0.00    +0.000 N 
ATOM     31  C   UNL     1      51.788 -46.689  48.248  0.00  0.00    +0.000 C 
ATOM     32  C   UNL     1      53.170 -46.377  48.429  0.00  0.00    +0.000 C 
ATOM     33  C   UNL     1      52.715 -47.949  46.569  0.00  0.00    +0.000 C 
ATOM     34  C   UNL     1      54.119 -47.524  46.928  0.00  0.00    +0.000 C 
ATOM     35  C   UNL     1      52.604 -48.850  45.406  0.00  0.00    +0.000 C 
ATOM     36  C   UNL     1      54.897 -48.869  45.225  0.00  0.00    +0.000 C 
ATOM     37  H   UNL     1      51.413 -50.111  44.386  0.00  0.00    +0.000 HD
ATOM     38  H   UNL     1      50.619 -49.226  45.620  0.00  0.00    +0.000 HD
ATOM     39  H   UNL     1      55.723 -49.619  43.585  0.00  0.00    +0.000 HD
ATOM     40  H   UNL     1      56.784 -48.796  44.634  0.00  0.00    +0.000 HD
ENDBRANCH  24  31
ENDBRANCH  22  24
ENDBRANCH   1  22
TORSDOF 9
ENDMDL
MODEL 3
REMARK VINA RESULT:      -7.8      7.573     12.473
REMARK  Name = Methotrexate.pdbqt.pdb
REMARK  9 active torsions:
REMARK  status: ('A' for Active; 'I' for Inactive)
REMARK    1  A    between atoms: C_1  and  N_22
REMARK    2  A    between atoms: C_2  and  C_9
REMARK    3  A    between atoms: CA_11  and  C_13
REMARK    4  A    between atoms: CA_11  and  CB_16
REMARK    5  A    between atoms: C_13  and  O_14
REMARK    6  A    between atoms: CG_17  and  CD_19
REMARK    7  A    between atoms: CD_19  and  OE1_20
REMARK    8  A    between atoms: N_22  and  C_24
REMARK    9  A    between atoms: C_24  and  C_31
REMARK                            x       y       z     vdW  Elec       q    Type
REMARK                         _______ _______ _______ _____ _____    ______ ____
ROOT
ATOM      1  C   UNL     1      48.377 -45.164  50.943  0.00  0.00    +0.000 A 
ATOM      2  C   UNL     1      48.391 -42.342  50.761  0.00  0.00    +0.000 A 
ATOM      3  C   UNL     1      48.857 -44.508  49.801  0.00  0.00    +0.000 A 
ATOM      4  C   UNL     1      47.897 -44.363  51.989  0.00  0.00    +0.000 A 
ATOM      5  C   UNL     1      48.868 -43.116  49.707  0.00  0.00    +0.000 A 
ATOM      6  C   UNL     1      47.904 -42.970  51.905  0.00  0.00    +0.000 A 
ENDROOT
BRANCH   2   9
ATOM      7  O   UNL     1      47.772 -40.247  51.579  0.00  0.00    +0.000 OA
ATOM      8  N   UNL     1      49.073 -40.280  49.662  0.00  0.00    +0.000 N 
ATOM      9  C   ACE A   0      48.380 -40.858  50.709  0.00  0.00    +0.000 C 
ATOM     10  H   UNL     1      49.548 -40.872  48.987  0.00  0.00    +0.000 HD
ATOM     11  CA  UNL     1      49.206 -38.928  49.398  0.00  0.00    +0.000 C 
BRANCH  11  13
ATOM     12  OXT UNL     1      50.112 -39.308  47.221  0.00  0.00    +0.000 OA
ATOM     13  C   UNL     1      50.009 -38.583  48.198  0.00  0.00    +0.000 C 
BRANCH  13  14
ATOM     14  O   UNL     1      50.625 -37.394  48.271  0.00  0.00    +0.000 OA
ATOM     15  H   UNL     1      50.704 -37.206  49.229  0.00  0.00    +0.000 HD
ENDBRANCH  13  14
ENDBRANCH  11  13
BRANCH  11  16
ATOM     16  CB  UNL     1      48.611 -37.932  50.216  0.00  0.00    +0.000 C 
ATOM     17  CG  UNL     1      47.981 -36.854  51.106  0.00  0.00    +0.000 C 
BRANCH  17  19
ATOM     18  OE2 UNL     1      48.071 -35.082  52.627  0.00  0.00    +0.000 OA
ATOM     19  CD  UNL     1      47.409 -35.847  51.947  0.00  0.00    +0.000 C 
BRANCH  19  20
ATOM     20  OE1 UNL     1      46.064 -35.824  51.939  0.00  0.00    +0.000 OA
ATOM     21  HE1 UNL     1      45.837 -36.159  51.049  0.00  0.00    +0.000 HD
ENDBRANCH  19  20
ENDBRANCH  17  19
ENDBRANCH  11  16
ENDBRANCH   2   9
BRANCH   1  22
ATOM     22  N   UNL     1      48.354 -46.577  51.014  0.00  0.00    +0.000 N 
ATOM     23  C   UNL     1      49.536 -47.368  50.721  0.00  0.00    +0.000 C 
BRANCH  22  24
ATOM     24  C   UNL     1      47.097 -47.293  50.953  0.00  0.00    +0.000 C 
BRANCH  24  31
ATOM     25  N   UNL     1      44.787 -47.296  51.120  0.00  0.00    +0.000 NA
ATOM     26  N   UNL     1      44.566 -50.228  50.614  0.00  0.00    +0.000 NA
ATOM     27  N   UNL     1      42.269 -50.076  50.854  0.00  0.00    +0.000 NA
ATOM     28  N   UNL     1      41.172 -48.010  51.232  0.00  0.00    +0.000 NA
ATOM     29  N   UNL     1      42.210 -45.975  51.408  0.00  0.00    +0.000 N 
ATOM     30  N   UNL     1      40.011 -49.993  51.084  0.00  0.00    +0.000 N 
ATOM     31  C   UNL     1      45.864 -47.995  50.896  0.00  0.00    +0.000 C 
ATOM     32  C   UNL     1      45.603 -49.381  50.665  0.00  0.00    +0.000 C 
ATOM     33  C   UNL     1      43.575 -48.014  51.062  0.00  0.00    +0.000 C 
ATOM     34  C   UNL     1      43.500 -49.504  50.827  0.00  0.00    +0.000 C 
ATOM     35  C   UNL     1      42.278 -47.332  51.234  0.00  0.00    +0.000 C 
ATOM     36  C   UNL     1      41.210 -49.362  51.060  0.00  0.00    +0.000 C 
ATOM     37  H   UNL     1      41.348 -45.651  51.832  0.00  0.00    +0.000 HD
ATOM     38  H   UNL     1      43.055 -45.528  51.749  0.00  0.00    +0.000 HD
ATOM     39  H   UNL     1      39.243 -49.392  50.816  0.00  0.00    +0.000 HD
ATOM     40  H   UNL     1      40.032 -50.888  50.613  0.00  0.00    +0.000 HD
ENDBRANCH  24  31
ENDBRANCH  22  24
ENDBRANCH   1  22
TORSDOF 9
ENDMDL
MODEL 4
REMARK VINA RESULT:      -7.8      9.534     13.702
REMARK  Name = Methotrexate.pdbqt.pdb
REMARK  9 active torsions:
REMARK  status: ('A' for Active; 'I' for Inactive)
REMARK    1  A    between atoms: C_1  and  N_22
REMARK    2  A    between atoms: C_2  and  C_9
REMARK    3  A    between atoms: CA_11  and  C_13
REMARK    4  A    between atoms: CA_11  and  CB_16
REMARK    5  A    between atoms: C_13  and  O_14
REMARK    6  A    between atoms: CG_17  and  CD_19
REMARK    7  A    between atoms: CD_19  and  OE1_20
REMARK    8  A    between atoms: N_22  and  C_24
REMARK    9  A    between atoms: C_24  and  C_31
REMARK                            x       y       z     vdW  Elec       q    Type
REMARK                         _______ _______ _______ _____ _____    ______ ____
ROOT
ATOM      1  C   UNL     1      49.691 -43.724  48.227  0.00  0.00    +0.000 A 
ATOM      2  C   UNL     1      48.988 -41.103  49.022  0.00  0.00    +0.000 A 
ATOM      3  C   UNL     1      49.329 -43.435  49.550  0.00  0.00    +0.000 A 
ATOM      4  C   UNL     1      49.698 -42.659  47.316  0.00  0.00    +0.000 A 
ATOM      5  C   UNL     1      48.979 -42.144  49.947  0.00  0.00    +0.000 A 
ATOM      6  C   UNL     1      49.349 -41.364  47.703  0.00  0.00    +0.000 A 
ENDROOT
BRANCH   2   9
ATOM      7  O   UNL     1      48.050 -39.524  50.461  0.00  0.00    +0.000 OA
ATOM      8  N   UNL     1      48.976 -38.727  48.492  0.00  0.00    +0.000 N 
ATOM      9  C   ACE A   0      48.625 -39.713  49.396  0.00  0.00    +0.000 C 
ATOM     10  H   UNL     1      49.452 -38.983  47.631  0.00  0.00    +0.000 HD
ATOM     11  CA  UNL     1      48.746 -37.368  48.610  0.00  0.00    +0.000 C 
BRANCH  11  13
ATOM     12  OXT UNL     1      48.911 -35.365  47.319  0.00  0.00    +0.000 OA
ATOM     13  C   UNL     1      49.230 -36.533  47.484  0.00  0.00    +0.000 C 
BRANCH  13  14
ATOM     14  O   UNL     1      50.059 -37.170  46.643  0.00  0.00    +0.000 OA
ATOM     15  H   UNL     1      50.732 -37.589  47.217  0.00  0.00    +0.000 HD
ENDBRANCH  13  14
ENDBRANCH  11  13
BRANCH  11  16
ATOM     16  CB  UNL     1      48.085 -36.805  49.734  0.00  0.00    +0.000 C 
ATOM     17  CG  UNL     1      47.361 -36.195  50.940  0.00  0.00    +0.000 C 
BRANCH  17  19
ATOM     18  OE2 UNL     1      47.232 -35.213  53.057  0.00  0.00    +0.000 OA
ATOM     19  CD  UNL     1      46.670 -35.621  52.054  0.00  0.00    +0.000 C 
BRANCH  19  20
ATOM     20  OE1 UNL     1      45.333 -35.584  51.912  0.00  0.00    +0.000 OA
ATOM     21  HE1 UNL     1      45.139 -36.389  51.391  0.00  0.00    +0.000 HD
ENDBRANCH  19  20
ENDBRANCH  17  19
ENDBRANCH  11  16
ENDBRANCH   2   9
BRANCH   1  22
ATOM     22  N   UNL     1      50.064 -45.035  47.845  0.00  0.00    +0.000 N 
ATOM     23  C   UNL     1      49.440 -46.202  48.443  0.00  0.00    +0.000 C 
BRANCH  22  24
ATOM     24  C   UNL     1      51.334 -45.276  47.193  0.00  0.00    +0.000 C 
BRANCH  24  31
ATOM     25  N   UNL     1      52.943 -44.643  45.653  0.00  0.00    +0.000 NA
ATOM     26  N   UNL     1      54.674 -47.010  46.208  0.00  0.00    +0.000 NA
ATOM     27  N   UNL     1      56.167 -46.270  44.602  0.00  0.00    +0.000 NA
ATOM     28  N   UNL     1      55.856 -44.235  43.430  0.00  0.00    +0.000 NA
ATOM     29  N   UNL     1      54.096 -42.796  43.721  0.00  0.00    +0.000 N 
ATOM     30  N   UNL     1      57.668 -45.599  43.036  0.00  0.00    +0.000 N 
ATOM     31  C   UNL     1      52.580 -45.511  46.556  0.00  0.00    +0.000 C 
ATOM     32  C   UNL     1      53.508 -46.585  46.716  0.00  0.00    +0.000 C 
ATOM     33  C   UNL     1      54.182 -44.899  45.030  0.00  0.00    +0.000 C 
ATOM     34  C   UNL     1      55.023 -46.120  45.318  0.00  0.00    +0.000 C 
ATOM     35  C   UNL     1      54.742 -43.964  44.035  0.00  0.00    +0.000 C 
ATOM     36  C   UNL     1      56.520 -45.389  43.723  0.00  0.00    +0.000 C 
ATOM     37  H   UNL     1      54.367 -42.397  42.830  0.00  0.00    +0.000 HD
ATOM     38  H   UNL     1      53.102 -42.770  43.925  0.00  0.00    +0.000 HD
ATOM     39  H   UNL     1      58.101 -44.742  42.717  0.00  0.00    +0.000 HD
ATOM     40  H   UNL     1      58.293 -46.239  43.508  0.00  0.00    +0.000 HD
ENDBRANCH  24  31
ENDBRANCH  22  24
ENDBRANCH   1  22
TORSDOF 9
ENDMDL
MODEL 5
REMARK VINA RESULT:      -7.7     11.239     16.796
REMARK  Name = Methotrexate.pdbqt.pdb
REMARK  9 active torsions:
REMARK  status: ('A' for Active; 'I' for Inactive)
REMARK    1  A    between atoms: C_1  and  N_22
REMARK    2  A    between atoms: C_2  and  C_9
REMARK    3  A    between atoms: CA_11  and  C_13
REMARK    4  A    between atoms: CA_11  and  CB_16
REMARK    5  A    between atoms: C_13  and  O_14
REMARK    6  A    between atoms: CG_17  and  CD_19
REMARK    7  A    between atoms: CD_19  and  OE1_20
REMARK    8  A    between atoms: N_22  and  C_24
REMARK    9  A    between atoms: C_24  and  C_31
REMARK                            x       y       z     vdW  Elec       q    Type
REMARK                         _______ _______ _______ _____ _____    ______ ____
ROOT
ATOM      1  C   UNL     1      49.907 -34.353  45.059  0.00  0.00    +0.000 A 
ATOM      2  C   UNL     1      49.194 -36.065  47.194  0.00  0.00    +0.000 A 
ATOM      3  C   UNL     1      50.534 -34.261  46.309  0.00  0.00    +0.000 A 
ATOM      4  C   UNL     1      48.906 -35.325  44.912  0.00  0.00    +0.000 A 
ATOM      5  C   UNL     1      50.187 -35.105  47.365  0.00  0.00    +0.000 A 
ATOM      6  C   UNL     1      48.553 -36.173  45.962  0.00  0.00    +0.000 A 
ENDROOT
BRANCH   2   9
ATOM      7  O   UNL     1      49.083 -38.171  48.192  0.00  0.00    +0.000 OA
ATOM      8  N   UNL     1      48.100 -36.414  49.340  0.00  0.00    +0.000 N 
ATOM      9  C   ACE A   0      48.789 -36.985  48.286  0.00  0.00    +0.000 C 
ATOM     10  H   UNL     1      47.902 -35.417  49.328  0.00  0.00    +0.000 HD
ATOM     11  CA  UNL     1      47.617 -37.058  50.466  0.00  0.00    +0.000 C 
BRANCH  11  13
ATOM     12  OXT UNL     1      47.462 -35.640  52.381  0.00  0.00    +0.000 OA
ATOM     13  C   UNL     1      46.909 -36.197  51.445  0.00  0.00    +0.000 C 
BRANCH  13  14
ATOM     14  O   UNL     1      45.592 -36.075  51.221  0.00  0.00    +0.000 OA
ATOM     15  H   UNL     1      45.194 -36.889  51.591  0.00  0.00    +0.000 HD
ENDBRANCH  13  14
ENDBRANCH  11  13
BRANCH  11  16
ATOM     16  CB  UNL     1      47.781 -38.453  50.672  0.00  0.00    +0.000 C 
ATOM     17  CG  UNL     1      47.945 -39.961  50.891  0.00  0.00    +0.000 C 
BRANCH  17  19
ATOM     18  OE2 UNL     1      47.652 -42.207  50.313  0.00  0.00    +0.000 OA
ATOM     19  CD  UNL     1      48.081 -41.372  51.092  0.00  0.00    +0.000 C 
BRANCH  19  20
ATOM     20  OE1 UNL     1      48.710 -41.706  52.233  0.00  0.00    +0.000 OA
ATOM     21  HE1 UNL     1      48.259 -42.529  52.507  0.00  0.00    +0.000 HD
ENDBRANCH  19  20
ENDBRANCH  17  19
ENDBRANCH  11  16
ENDBRANCH   2   9
BRANCH   1  22
ATOM     22  N   UNL     1      50.256 -33.476  44.004  0.00  0.00    +0.000 N 
ATOM     23  C   UNL     1      49.622 -33.571  42.701  0.00  0.00    +0.000 C 
BRANCH  22  24
ATOM     24  C   UNL     1      51.515 -32.762  44.031  0.00  0.00    +0.000 C 
BRANCH  24  31
ATOM     25  N   UNL     1      53.426 -32.119  45.171  0.00  0.00    +0.000 NA
ATOM     26  N   UNL     1      54.472 -30.508  42.887  0.00  0.00    +0.000 NA
ATOM     27  N   UNL     1      56.304 -29.916  44.171  0.00  0.00    +0.000 NA
ATOM     28  N   UNL     1      56.636 -30.753  46.363  0.00  0.00    +0.000 NA
ATOM     29  N   UNL     1      55.230 -32.196  47.454  0.00  0.00    +0.000 N 
ATOM     30  N   UNL     1      58.123 -29.295  45.381  0.00  0.00    +0.000 N 
ATOM     31  C   UNL     1      52.751 -32.064  44.057  0.00  0.00    +0.000 C 
ATOM     32  C   UNL     1      53.376 -31.262  43.054  0.00  0.00    +0.000 C 
ATOM     33  C   UNL     1      54.648 -31.415  45.175  0.00  0.00    +0.000 C 
ATOM     34  C   UNL     1      55.137 -30.589  44.009  0.00  0.00    +0.000 C 
ATOM     35  C   UNL     1      55.540 -31.446  46.349  0.00  0.00    +0.000 C 
ATOM     36  C   UNL     1      56.969 -29.997  45.278  0.00  0.00    +0.000 C 
ATOM     37  H   UNL     1      55.706 -31.909  48.300  0.00  0.00    +0.000 HD
ATOM     38  H   UNL     1      54.250 -32.435  47.567  0.00  0.00    +0.000 HD
ATOM     39  H   UNL     1      58.781 -29.708  46.028  0.00  0.00    +0.000 HD
ATOM     40  H   UNL     1      58.513 -29.051  44.480  0.00  0.00    +0.000 HD
ENDBRANCH  24  31
ENDBRANCH  22  24
ENDBRANCH   1  22
TORSDOF 9
ENDMDL
MODEL 6
REMARK VINA RESULT:      -7.5      8.345     13.198
REMARK  Name = Methotrexate.pdbqt.pdb
REMARK  9 active torsions:
REMARK  status: ('A' for Active; 'I' for Inactive)
REMARK    1  A    between atoms: C_1  and  N_22
REMARK    2  A    between atoms: C_2  and  C_9
REMARK    3  A    between atoms: CA_11  and  C_13
REMARK    4  A    between atoms: CA_11  and  CB_16
REMARK    5  A    between atoms: C_13  and  O_14
REMARK    6  A    between atoms: CG_17  and  CD_19
REMARK    7  A    between atoms: CD_19  and  OE1_20
REMARK    8  A    between atoms: N_22  and  C_24
REMARK    9  A    between atoms: C_24  and  C_31
REMARK                            x       y       z     vdW  Elec       q    Type
REMARK                         _______ _______ _______ _____ _____    ______ ____
ROOT
ATOM      1  C   UNL     1      48.145 -44.251  50.706  0.00  0.00    +0.000 A 
ATOM      2  C   UNL     1      48.599 -41.551  49.996  0.00  0.00    +0.000 A 
ATOM      3  C   UNL     1      48.984 -43.908  49.637  0.00  0.00    +0.000 A 
ATOM      4  C   UNL     1      47.533 -43.200  51.404  0.00  0.00    +0.000 A 
ATOM      5  C   UNL     1      49.214 -42.578  49.284  0.00  0.00    +0.000 A 
ATOM      6  C   UNL     1      47.756 -41.866  51.060  0.00  0.00    +0.000 A 
ENDROOT
BRANCH   2   9
ATOM      7  O   UNL     1      48.749 -39.782  48.484  0.00  0.00    +0.000 OA
ATOM      8  N   UNL     1      49.062 -39.274  50.723  0.00  0.00    +0.000 N 
ATOM      9  C   ACE A   0      48.810 -40.121  49.659  0.00  0.00    +0.000 C 
ATOM     10  H   UNL     1      49.094 -39.650  51.667  0.00  0.00    +0.000 HD
ATOM     11  CA  UNL     1      49.292 -37.911  50.666  0.00  0.00    +0.000 C 
BRANCH  11  13
ATOM     12  OXT UNL     1      48.870 -36.312  52.389  0.00  0.00    +0.000 OA
ATOM     13  C   UNL     1      49.537 -37.245  51.969  0.00  0.00    +0.000 C 
BRANCH  13  14
ATOM     14  O   UNL     1      50.566 -37.754  52.663  0.00  0.00    +0.000 OA
ATOM     15  H   UNL     1      50.166 -38.413  53.266  0.00  0.00    +0.000 HD
ENDBRANCH  13  14
ENDBRANCH  11  13
BRANCH  11  16
ATOM     16  CB  UNL     1      49.299 -37.193  49.441  0.00  0.00    +0.000 C 
ATOM     17  CG  UNL     1      49.319 -36.422  48.116  0.00  0.00    +0.000 C 
BRANCH  17  19
ATOM     18  OE2 UNL     1      48.357 -35.327  46.288  0.00  0.00    +0.000 OA
ATOM     19  CD  UNL     1      49.356 -35.709  46.875  0.00  0.00    +0.000 C 
BRANCH  19  20
ATOM     20  OE1 UNL     1      50.596 -35.507  46.394  0.00  0.00    +0.000 OA
ATOM     21  HE1 UNL     1      51.094 -36.282  46.721  0.00  0.00    +0.000 HD
ENDBRANCH  19  20
ENDBRANCH  17  19
ENDBRANCH  11  16
ENDBRANCH   2   9
BRANCH   1  22
ATOM     22  N   UNL     1      47.907 -45.606  51.037  0.00  0.00    +0.000 N 
ATOM     23  C   UNL     1      48.948 -46.609  50.910  0.00  0.00    +0.000 C 
BRANCH  22  24
ATOM     24  C   UNL     1      46.554 -46.119  51.096  0.00  0.00    +0.000 C 
BRANCH  24  31
ATOM     25  N   UNL     1      45.084 -47.902  50.952  0.00  0.00    +0.000 NA
ATOM     26  N   UNL     1      42.676 -46.197  51.399  0.00  0.00    +0.000 NA
ATOM     27  N   UNL     1      41.335 -48.071  51.184  0.00  0.00    +0.000 NA
ATOM     28  N   UNL     1      42.234 -50.239  50.860  0.00  0.00    +0.000 NA
ATOM     29  N   UNL     1      44.466 -50.737  50.715  0.00  0.00    +0.000 N 
ATOM     30  N   UNL     1      39.964 -49.870  50.979  0.00  0.00    +0.000 N 
ATOM     31  C   UNL     1      45.228 -46.622  51.151  0.00  0.00    +0.000 C 
ATOM     32  C   UNL     1      43.991 -45.937  51.356  0.00  0.00    +0.000 C 
ATOM     33  C   UNL     1      43.758 -48.379  51.006  0.00  0.00    +0.000 C 
ATOM     34  C   UNL     1      42.559 -47.485  51.212  0.00  0.00    +0.000 C 
ATOM     35  C   UNL     1      43.460 -49.817  50.861  0.00  0.00    +0.000 C 
ATOM     36  C   UNL     1      41.213 -49.346  51.003  0.00  0.00    +0.000 C 
ATOM     37  H   UNL     1      44.171 -51.616  50.307  0.00  0.00    +0.000 HD
ATOM     38  H   UNL     1      45.351 -50.376  50.376  0.00  0.00    +0.000 HD
ATOM     39  H   UNL     1      39.936 -50.840  51.266  0.00  0.00    +0.000 HD
ATOM     40  H   UNL     1      39.282 -49.275  51.431  0.00  0.00    +0.000 HD
ENDBRANCH  24  31
ENDBRANCH  22  24
ENDBRANCH   1  22
TORSDOF 9
ENDMDL
MODEL 7
REMARK VINA RESULT:      -7.4      1.825      2.990
REMARK  Name = Methotrexate.pdbqt.pdb
REMARK  9 active torsions:
REMARK  status: ('A' for Active; 'I' for Inactive)
REMARK    1  A    between atoms: C_1  and  N_22
REMARK    2  A    between atoms: C_2  and  C_9
REMARK    3  A    between atoms: CA_11  and  C_13
REMARK    4  A    between atoms: CA_11  and  CB_16
REMARK    5  A    between atoms: C_13  and  O_14
REMARK    6  A    between atoms: CG_17  and  CD_19
REMARK    7  A    between atoms: CD_19  and  OE1_20
REMARK    8  A    between atoms: N_22  and  C_24
REMARK    9  A    between atoms: C_24  and  C_31
REMARK                            x       y       z     vdW  Elec       q    Type
REMARK                         _______ _______ _______ _____ _____    ______ ____
ROOT
ATOM      1  C   UNL     1      46.543 -49.539  51.556  0.00  0.00    +0.000 A 
ATOM      2  C   UNL     1      45.834 -51.401  53.563  0.00  0.00    +0.000 A 
ATOM      3  C   UNL     1      45.825 -50.704  51.250  0.00  0.00    +0.000 A 
ATOM      4  C   UNL     1      46.902 -49.340  52.896  0.00  0.00    +0.000 A 
ATOM      5  C   UNL     1      45.470 -51.624  52.237  0.00  0.00    +0.000 A 
ATOM      6  C   UNL     1      46.553 -50.254  53.890  0.00  0.00    +0.000 A 
ENDROOT
BRANCH   2   9
ATOM      7  O   UNL     1      46.281 -52.516  55.562  0.00  0.00    +0.000 OA
ATOM      8  N   UNL     1      44.257 -52.981  54.534  0.00  0.00    +0.000 N 
ATOM      9  C   ACE A   0      45.482 -52.351  54.648  0.00  0.00    +0.000 C 
ATOM     10  H   UNL     1      43.661 -52.779  53.736  0.00  0.00    +0.000 HD
ATOM     11  CA  UNL     1      43.710 -53.903  55.409  0.00  0.00    +0.000 C 
BRANCH  11  13
ATOM     12  OXT UNL     1      42.116 -54.934  53.959  0.00  0.00    +0.000 OA
ATOM     13  C   UNL     1      42.371 -54.425  55.040  0.00  0.00    +0.000 C 
BRANCH  13  14
ATOM     14  O   UNL     1      41.444 -54.291  56.000  0.00  0.00    +0.000 OA
ATOM     15  H   UNL     1      40.708 -53.802  55.577  0.00  0.00    +0.000 HD
ENDBRANCH  13  14
ENDBRANCH  11  13
BRANCH  11  16
ATOM     16  CB  UNL     1      44.385 -54.329  56.583  0.00  0.00    +0.000 C 
ATOM     17  CG  UNL     1      45.102 -54.792  57.857  0.00  0.00    +0.000 C 
BRANCH  17  19
ATOM     18  OE2 UNL     1      45.539 -56.301  59.587  0.00  0.00    +0.000 OA
ATOM     19  CD  UNL     1      45.755 -55.226  59.054  0.00  0.00    +0.000 C 
BRANCH  19  20
ATOM     20  OE1 UNL     1      46.623 -54.332  59.562  0.00  0.00    +0.000 OA
ATOM     21  HE1 UNL     1      47.074 -54.832  60.270  0.00  0.00    +0.000 HD
ENDBRANCH  19  20
ENDBRANCH  17  19
ENDBRANCH  11  16
ENDBRANCH   2   9
BRANCH   1  22
ATOM     22  N   UNL     1      46.912 -48.626  50.540  0.00  0.00    +0.000 N 
ATOM     23  C   UNL     1      47.466 -49.083  49.277  0.00  0.00    +0.000 C 
BRANCH  22  24
ATOM     24  C   UNL     1      47.160 -47.236  50.859  0.00  0.00    +0.000 C 
BRANCH  24  31
ATOM     25  N   UNL     1      47.437 -45.042  50.169  0.00  0.00    +0.000 NA
ATOM     26  N   UNL     1      47.958 -44.041  52.931  0.00  0.00    +0.000 NA
ATOM     27  N   UNL     1      48.251 -41.909  52.081  0.00  0.00    +0.000 NA
ATOM     28  N   UNL     1      47.968 -41.415  49.781  0.00  0.00    +0.000 NA
ATOM     29  N   UNL     1      47.397 -42.934  48.163  0.00  0.00    +0.000 N 
ATOM     30  N   UNL     1      48.555 -39.795  51.309  0.00  0.00    +0.000 N 
ATOM     31  C   UNL     1      47.406 -45.873  51.173  0.00  0.00    +0.000 C 
ATOM     32  C   UNL     1      47.667 -45.251  52.432  0.00  0.00    +0.000 C 
ATOM     33  C   UNL     1      47.686 -43.696  50.504  0.00  0.00    +0.000 C 
ATOM     34  C   UNL     1      47.969 -43.226  51.911  0.00  0.00    +0.000 C 
ATOM     35  C   UNL     1      47.686 -42.642  49.471  0.00  0.00    +0.000 C 
ATOM     36  C   UNL     1      48.259 -41.096  51.075  0.00  0.00    +0.000 C 
ATOM     37  H   UNL     1      47.731 -42.246  47.499  0.00  0.00    +0.000 HD
ATOM     38  H   UNL     1      47.524 -43.901  47.886  0.00  0.00    +0.000 HD
ATOM     39  H   UNL     1      48.141 -39.167  50.632  0.00  0.00    +0.000 HD
ATOM     40  H   UNL     1      48.412 -39.530  52.274  0.00  0.00    +0.000 HD
ENDBRANCH  24  31
ENDBRANCH  22  24
ENDBRANCH   1  22
TORSDOF 9
ENDMDL
MODEL 8
REMARK VINA RESULT:      -7.4      1.184      2.703
REMARK  Name = Methotrexate.pdbqt.pdb
REMARK  9 active torsions:
REMARK  status: ('A' for Active; 'I' for Inactive)
REMARK    1  A    between atoms: C_1  and  N_22
REMARK    2  A    between atoms: C_2  and  C_9
REMARK    3  A    between atoms: CA_11  and  C_13
REMARK    4  A    between atoms: CA_11  and  CB_16
REMARK    5  A    between atoms: C_13  and  O_14
REMARK    6  A    between atoms: CG_17  and  CD_19
REMARK    7  A    between atoms: CD_19  and  OE1_20
REMARK    8  A    between atoms: N_22  and  C_24
REMARK    9  A    between atoms: C_24  and  C_31
REMARK                            x       y       z     vdW  Elec       q    Type
REMARK                         _______ _______ _______ _____ _____    ______ ____
ROOT
ATOM      1  C   UNL     1      47.148 -50.007  52.088  0.00  0.00    +0.000 A 
ATOM      2  C   UNL     1      47.384 -51.828  54.238  0.00  0.00    +0.000 A 
ATOM      3  C   UNL     1      47.948 -51.153  51.990  0.00  0.00    +0.000 A 
ATOM      4  C   UNL     1      46.476 -49.796  53.300  0.00  0.00    +0.000 A 
ATOM      5  C   UNL     1      48.066 -52.057  53.046  0.00  0.00    +0.000 A 
ATOM      6  C   UNL     1      46.587 -50.693  54.363  0.00  0.00    +0.000 A 
ENDROOT
BRANCH   2   9
ATOM      7  O   UNL     1      48.589 -53.060  55.810  0.00  0.00    +0.000 OA
ATOM      8  N   UNL     1      46.279 -53.213  55.909  0.00  0.00    +0.000 N 
ATOM      9  C   ACE A   0      47.478 -52.758  55.392  0.00  0.00    +0.000 C 
ATOM     10  H   UNL     1      45.404 -52.905  55.492  0.00  0.00    +0.000 HD
ATOM     11  CA  UNL     1      46.106 -54.081  56.972  0.00  0.00    +0.000 C 
BRANCH  11  13
ATOM     12  OXT UNL     1      43.827 -54.609  56.485  0.00  0.00    +0.000 OA
ATOM     13  C   UNL     1      44.699 -54.404  57.316  0.00  0.00    +0.000 C 
BRANCH  13  14
ATOM     14  O   UNL     1      44.452 -54.452  58.634  0.00  0.00    +0.000 OA
ATOM     15  H   UNL     1      44.129 -53.558  58.866  0.00  0.00    +0.000 HD
ENDBRANCH  13  14
ENDBRANCH  11  13
BRANCH  11  16
ATOM     16  CB  UNL     1      47.201 -54.634  57.686  0.00  0.00    +0.000 C 
ATOM     17  CG  UNL     1      48.387 -55.238  58.447  0.00  0.00    +0.000 C 
BRANCH  17  19
ATOM     18  OE2 UNL     1      50.654 -55.456  58.976  0.00  0.00    +0.000 OA
ATOM     19  CD  UNL     1      49.499 -55.812  59.141  0.00  0.00    +0.000 C 
BRANCH  19  20
ATOM     20  OE1 UNL     1      49.165 -56.802  59.989  0.00  0.00    +0.000 OA
ATOM     21  HE1 UNL     1      48.224 -56.969  59.782  0.00  0.00    +0.000 HD
ENDBRANCH  19  20
ENDBRANCH  17  19
ENDBRANCH  11  16
ENDBRANCH   2   9
BRANCH   1  22
ATOM     22  N   UNL     1      47.056 -49.090  51.014  0.00  0.00    +0.000 N 
ATOM     23  C   UNL     1      47.180 -49.527  49.635  0.00  0.00    +0.000 C 
BRANCH  22  24
ATOM     24  C   UNL     1      47.266 -47.675  51.238  0.00  0.00    +0.000 C 
BRANCH  24  31
ATOM     25  N   UNL     1      47.560 -45.537  50.399  0.00  0.00    +0.000 NA
ATOM     26  N   UNL     1      47.879 -44.316  53.103  0.00  0.00    +0.000 NA
ATOM     27  N   UNL     1      48.201 -42.251  52.110  0.00  0.00    +0.000 NA
ATOM     28  N   UNL     1      48.069 -41.941  49.765  0.00  0.00    +0.000 NA
ATOM     29  N   UNL     1      47.628 -43.590  48.236  0.00  0.00    +0.000 N 
ATOM     30  N   UNL     1      48.529 -40.198  51.197  0.00  0.00    +0.000 N 
ATOM     31  C   UNL     1      47.471 -46.288  51.460  0.00  0.00    +0.000 C 
ATOM     32  C   UNL     1      47.639 -45.566  52.682  0.00  0.00    +0.000 C 
ATOM     33  C   UNL     1      47.768 -44.164  50.643  0.00  0.00    +0.000 C 
ATOM     34  C   UNL     1      47.949 -43.582  52.025  0.00  0.00    +0.000 C 
ATOM     35  C   UNL     1      47.824 -43.193  49.533  0.00  0.00    +0.000 C 
ATOM     36  C   UNL     1      48.267 -41.518  51.046  0.00  0.00    +0.000 C 
ATOM     37  H   UNL     1      47.998 -42.949  47.544  0.00  0.00    +0.000 HD
ATOM     38  H   UNL     1      47.786 -44.574  48.044  0.00  0.00    +0.000 HD
ATOM     39  H   UNL     1      48.154 -39.631  50.447  0.00  0.00    +0.000 HD
ATOM     40  H   UNL     1      48.317 -39.862  52.127  0.00  0.00    +0.000 HD
ENDBRANCH  24  31
ENDBRANCH  22  24
ENDBRANCH   1  22
TORSDOF 9
ENDMDL
MODEL 9
REMARK VINA RESULT:      -7.4      2.463      4.495
REMARK  Name = Methotrexate.pdbqt.pdb
REMARK  9 active torsions:
REMARK  status: ('A' for Active; 'I' for Inactive)
REMARK    1  A    between atoms: C_1  and  N_22
REMARK    2  A    between atoms: C_2  and  C_9
REMARK    3  A    between atoms: CA_11  and  C_13
REMARK    4  A    between atoms: CA_11  and  CB_16
REMARK    5  A    between atoms: C_13  and  O_14
REMARK    6  A    between atoms: CG_17  and  CD_19
REMARK    7  A    between atoms: CD_19  and  OE1_20
REMARK    8  A    between atoms: N_22  and  C_24
REMARK    9  A    between atoms: C_24  and  C_31
REMARK                            x       y       z     vdW  Elec       q    Type
REMARK                         _______ _______ _______ _____ _____    ______ ____
ROOT
ATOM      1  C   UNL     1      50.001 -47.646  49.380  0.00  0.00    +0.000 A 
ATOM      2  C   UNL     1      48.944 -49.693  51.021  0.00  0.00    +0.000 A 
ATOM      3  C   UNL     1      49.108 -48.601  48.873  0.00  0.00    +0.000 A 
ATOM      4  C   UNL     1      50.355 -47.753  50.733  0.00  0.00    +0.000 A 
ATOM      5  C   UNL     1      48.582 -49.611  49.679  0.00  0.00    +0.000 A 
ATOM      6  C   UNL     1      49.835 -48.760  51.547  0.00  0.00    +0.000 A 
ENDROOT
BRANCH   2   9
ATOM      7  O   UNL     1      48.179 -50.462  53.086  0.00  0.00    +0.000 OA
ATOM      8  N   UNL     1      48.226 -51.996  51.350  0.00  0.00    +0.000 N 
ATOM      9  C   ACE A   0      48.414 -50.750  51.919  0.00  0.00    +0.000 C 
ATOM     10  H   UNL     1      48.451 -52.138  50.369  0.00  0.00    +0.000 HD
ATOM     11  CA  UNL     1      47.749 -53.134  51.976  0.00  0.00    +0.000 C 
BRANCH  11  13
ATOM     12  OXT UNL     1      47.140 -55.392  51.489  0.00  0.00    +0.000 OA
ATOM     13  C   UNL     1      47.648 -54.343  51.122  0.00  0.00    +0.000 C 
BRANCH  13  14
ATOM     14  O   UNL     1      48.166 -54.194  49.893  0.00  0.00    +0.000 OA
ATOM     15  H   UNL     1      48.153 -55.092  49.501  0.00  0.00    +0.000 HD
ENDBRANCH  13  14
ENDBRANCH  11  13
BRANCH  11  16
ATOM     16  CB  UNL     1      47.384 -53.149  53.348  0.00  0.00    +0.000 C 
ATOM     17  CG  UNL     1      46.985 -53.179  54.828  0.00  0.00    +0.000 C 
BRANCH  17  19
ATOM     18  OE2 UNL     1      47.149 -52.567  57.078  0.00  0.00    +0.000 OA
ATOM     19  CD  UNL     1      46.603 -53.223  56.206  0.00  0.00    +0.000 C 
BRANCH  19  20
ATOM     20  OE1 UNL     1      45.593 -54.072  56.470  0.00  0.00    +0.000 OA
ATOM     21  HE1 UNL     1      45.631 -54.706  55.726  0.00  0.00    +0.000 HD
ENDBRANCH  19  20
ENDBRANCH  17  19
ENDBRANCH  11  16
ENDBRANCH   2   9
BRANCH   1  22
ATOM     22  N   UNL     1      50.541 -46.640  48.544  0.00  0.00    +0.000 N 
ATOM     23  C   UNL     1      51.793 -46.838  47.836  0.00  0.00    +0.000 C 
BRANCH  22  24
ATOM     24  C   UNL     1      50.122 -45.262  48.692  0.00  0.00    +0.000 C 
BRANCH  24  31
ATOM     25  N   UNL     1      49.161 -43.589  49.972  0.00  0.00    +0.000 NA
ATOM     26  N   UNL     1      49.406 -41.540  47.817  0.00  0.00    +0.000 NA
ATOM     27  N   UNL     1      48.389 -39.990  49.202  0.00  0.00    +0.000 NA
ATOM     28  N   UNL     1      47.759 -40.505  51.428  0.00  0.00    +0.000 NA
ATOM     29  N   UNL     1      48.060 -42.533  52.451  0.00  0.00    +0.000 N 
ATOM     30  N   UNL     1      47.391 -38.425  50.511  0.00  0.00    +0.000 N 
ATOM     31  C   UNL     1      49.710 -43.911  48.835  0.00  0.00    +0.000 C 
ATOM     32  C   UNL     1      49.764 -42.829  47.904  0.00  0.00    +0.000 C 
ATOM     33  C   UNL     1      48.755 -42.243  50.090  0.00  0.00    +0.000 C 
ATOM     34  C   UNL     1      48.873 -41.237  48.970  0.00  0.00    +0.000 C 
ATOM     35  C   UNL     1      48.177 -41.730  51.347  0.00  0.00    +0.000 C 
ATOM     36  C   UNL     1      47.864 -39.684  50.344  0.00  0.00    +0.000 C 
ATOM     37  H   UNL     1      47.380 -42.212  53.130  0.00  0.00    +0.000 HD
ATOM     38  H   UNL     1      48.059 -43.532  52.276  0.00  0.00    +0.000 HD
ATOM     39  H   UNL     1      47.404 -38.122  51.476  0.00  0.00    +0.000 HD
ATOM     40  H   UNL     1      47.793 -37.768  49.856  0.00  0.00    +0.000 HD
ENDBRANCH  24  31
ENDBRANCH  22  24
ENDBRANCH   1  22
TORSDOF 9
ENDMDL
