REMARK  Name = 
REMARK  21 active torsions:
REMARK  status: ('A' for Active; 'I' for Inactive)
REMARK    1  A    between atoms: O_3  and  C_27
REMARK    2  A    between atoms: O_3  and  C_28
REMARK    3  A    between atoms: N_6  and  CA_9
REMARK    4  A    between atoms: N_7  and  CA_15
REMARK    5  A    between atoms: N_8  and  CA_12
REMARK    6  A    between atoms: CA_9  and  CB_10
REMARK    7  A    between atoms: CA_9  and  C_16
REMARK    8  A    between atoms: CB_10  and  CG_11
REMARK    9  A    between atoms: CG_11  and  CD1_20
REMARK   10  A    between atoms: CG_11  and  CD2_21
REMARK   11  A    between atoms: CA_12  and  CB_13
REMARK   12  A    between atoms: CA_12  and  C_18
REMARK   13  A    between atoms: CB_13  and  CG_14
REMARK   14  A    between atoms: CG_14  and  CD1_22
REMARK   15  A    between atoms: CG_14  and  CD2_23
REMARK   16  A    between atoms: CA_15  and  CB_17
REMARK   17  A    between atoms: CA_15  and  C_26
REMARK   18  A    between atoms: CB_17  and  CG_19
REMARK   19  A    between atoms: CG_19  and  CD1_24
REMARK   20  A    between atoms: CG_19  and  CD2_25
REMARK   21  A    between atoms: C_28  and  C_29
REMARK                            x       y       z     vdW  Elec       q    Type
REMARK                         _______ _______ _______ _____ _____    ______ ____
ROOT
ATOM      1  O   UNL     1       4.529   1.251   2.413  0.00  0.00    +0.000 OA
ATOM      2  N   UNL     1       2.567   0.133   2.737  0.00  0.00    +0.000 N 
ATOM      3  C   UNL     1       3.370   1.258   2.817  0.00  0.00    +0.000 C 
ATOM      4  H   UNL     1       1.579   0.341   2.612  0.00  0.00    +0.000 HD
ENDROOT
BRANCH   2   5
ATOM      5  CA  UNL     1       3.056  -1.055   2.036  0.00  0.00    +0.000 C 
BRANCH   5   8
ATOM      6  O   UNL     1       1.556  -0.446   0.242  0.00  0.00    +0.000 OA
ATOM      7  N   UNL     1       3.584  -1.056  -0.441  0.00  0.00    +0.000 N 
ATOM      8  C   UNL     1       2.688  -0.826   0.558  0.00  0.00    +0.000 C 
ATOM      9  H   UNL     1       3.187  -0.826  -1.346  0.00  0.00    +0.000 HD
BRANCH   7  10
ATOM     10  CA  UNL     1       5.042  -1.156  -0.371  0.00  0.00    +0.000 C 
BRANCH  10  12
ATOM     11  O   UNL     1       6.848   0.372  -0.953  0.00  0.00    +0.000 OA
ATOM     12  C   UNL     1       5.675   0.212  -0.625  0.00  0.00    +0.000 C 
ENDBRANCH  10  12
BRANCH  10  13
ATOM     13  CB  UNL     1       5.592  -2.268  -1.278  0.00  0.00    +0.000 C 
BRANCH  13  14
ATOM     14  CG  UNL     1       5.051  -2.341  -2.723  0.00  0.00    +0.000 C 
ATOM     15  CD1 UNL     1       5.325  -1.082  -3.543  0.00  0.00    +0.000 C 
ATOM     16  CD2 UNL     1       5.661  -3.555  -3.433  0.00  0.00    +0.000 C 
ENDBRANCH  13  14
ENDBRANCH  10  13
ENDBRANCH   7  10
ENDBRANCH   5   8
BRANCH   5  17
ATOM     17  CB  UNL     1       2.349  -2.308   2.573  0.00  0.00    +0.000 C 
BRANCH  17  18
ATOM     18  CG  UNL     1       2.903  -3.640   2.030  0.00  0.00    +0.000 C 
ATOM     19  CD1 UNL     1       4.321  -3.925   2.526  0.00  0.00    +0.000 C 
ATOM     20  CD2 UNL     1       1.980  -4.790   2.445  0.00  0.00    +0.000 C 
ENDBRANCH  17  18
ENDBRANCH   5  17
ENDBRANCH   2   5
BRANCH   3  21
ATOM     21  CA  UNL     1       2.663   2.519   3.372  0.00  0.00    +0.000 C 
BRANCH  21  23
ATOM     22  O   UNL     1       0.419   4.223   3.544  0.00  0.00    +0.000 OA
ATOM     23  N   UNL     1       1.343   2.155   3.904  0.00  0.00    +0.000 N 
ATOM     24  C   ACE A   0       0.337   3.082   3.970  0.00  0.00    +0.000 C 
ATOM     25  H   UNL     1       1.301   1.401   4.575  0.00  0.00    +0.000 HD
BRANCH  24  26
ATOM     26  O   UNL     1      -0.739   2.640   4.664  0.00  0.00    +0.000 OA
BRANCH  26  27
ATOM     27  C   UNL     1      -1.351   1.446   4.161  0.00  0.00    +0.000 C 
BRANCH  27  28
ATOM     28  C   UNL     1      -2.834   1.480   4.439  0.00  0.00    +0.000 A 
ATOM     29  C   UNL     1      -3.498   0.332   4.893  0.00  0.00    +0.000 A 
ATOM     30  C   UNL     1      -3.583   2.640   4.192  0.00  0.00    +0.000 A 
ATOM     31  C   UNL     1      -4.876   0.352   5.120  0.00  0.00    +0.000 A 
ATOM     32  C   UNL     1      -4.960   2.659   4.419  0.00  0.00    +0.000 A 
ATOM     33  C   UNL     1      -5.606   1.515   4.884  0.00  0.00    +0.000 A 
ENDBRANCH  27  28
ENDBRANCH  26  27
ENDBRANCH  24  26
ENDBRANCH  21  23
BRANCH  21  34
ATOM     34  CB  UNL     1       3.500   3.196   4.472  0.00  0.00    +0.000 C 
BRANCH  34  35
ATOM     35  CG  UNL     1       4.738   3.982   3.992  0.00  0.00    +0.000 C 
ATOM     36  CD1 UNL     1       4.370   5.152   3.079  0.00  0.00    +0.000 C 
ATOM     37  CD2 UNL     1       5.514   4.504   5.206  0.00  0.00    +0.000 C 
ENDBRANCH  34  35
ENDBRANCH  21  34
ENDBRANCH   3  21
TORSDOF 15
