MODEL 1
REMARK VINA RESULT:      -7.3      0.000      0.000
REMARK  Name = 
REMARK  21 active torsions:
REMARK  status: ('A' for Active; 'I' for Inactive)
REMARK    1  A    between atoms: O_3  and  C_27
REMARK    2  A    between atoms: O_3  and  C_28
REMARK    3  A    between atoms: N_6  and  CA_9
REMARK    4  A    between atoms: N_7  and  CA_15
REMARK    5  A    between atoms: N_8  and  CA_12
REMARK    6  A    between atoms: CA_9  and  CB_10
REMARK    7  A    between atoms: CA_9  and  C_16
REMARK    8  A    between atoms: CB_10  and  CG_11
REMARK    9  A    between atoms: CG_11  and  CD1_20
REMARK   10  A    between atoms: CG_11  and  CD2_21
REMARK   11  A    between atoms: CA_12  and  CB_13
REMARK   12  A    between atoms: CA_12  and  C_18
REMARK   13  A    between atoms: CB_13  and  CG_14
REMARK   14  A    between atoms: CG_14  and  CD1_22
REMARK   15  A    between atoms: CG_14  and  CD2_23
REMARK   16  A    between atoms: CA_15  and  CB_17
REMARK   17  A    between atoms: CA_15  and  C_26
REMARK   18  A    between atoms: CB_17  and  CG_19
REMARK   19  A    between atoms: CG_19  and  CD1_24
REMARK   20  A    between atoms: CG_19  and  CD2_25
REMARK   21  A    between atoms: C_28  and  C_29
REMARK                            x       y       z     vdW  Elec       q    Type
REMARK                         _______ _______ _______ _____ _____    ______ ____
ROOT
ATOM      1  O   UNL     1      50.681 -38.811  49.221  0.00  0.00    +0.000 OA
ATOM      2  N   UNL     1      48.688 -39.229  48.193  0.00  0.00    +0.000 N 
ATOM      3  C   UNL     1      49.461 -38.925  49.300  0.00  0.00    +0.000 C 
ATOM      4  H   UNL     1      47.753 -38.828  48.222  0.00  0.00    +0.000 HD
ENDROOT
BRANCH   2   5
ATOM      5  CA  UNL     1      49.311 -39.286  46.870  0.00  0.00    +0.000 C 
BRANCH   5   8
ATOM      6  O   UNL     1      47.368 -38.799  45.518  0.00  0.00    +0.000 OA
ATOM      7  N   UNL     1      48.822 -37.120  45.652  0.00  0.00    +0.000 N 
ATOM      8  C   UNL     1      48.437 -38.384  45.978  0.00  0.00    +0.000 C 
ATOM      9  H   UNL     1      48.118 -36.659  45.086  0.00  0.00    +0.000 HD
BRANCH   7  10
ATOM     10  CA  UNL     1      49.807 -36.256  46.304  0.00  0.00    +0.000 C 
BRANCH  10  12
ATOM     11  O   UNL     1      48.194 -36.114  48.124  0.00  0.00    +0.000 OA
ATOM     12  C   UNL     1      49.315 -35.853  47.694  0.00  0.00    +0.000 C 
ENDBRANCH  10  12
BRANCH  10  13
ATOM     13  CB  UNL     1      50.207 -35.063  45.422  0.00  0.00    +0.000 C 
BRANCH  13  14
ATOM     14  CG  UNL     1      51.024 -33.931  46.083  0.00  0.00    +0.000 C 
ATOM     15  CD1 UNL     1      52.367 -33.670  45.405  0.00  0.00    +0.000 C 
ATOM     16  CD2 UNL     1      50.194 -32.642  46.085  0.00  0.00    +0.000 C 
ENDBRANCH  13  14
ENDBRANCH  10  13
ENDBRANCH   7  10
ENDBRANCH   5   8
BRANCH   5  17
ATOM     17  CB  UNL     1      49.296 -40.729  46.346  0.00  0.00    +0.000 C 
BRANCH  17  18
ATOM     18  CG  UNL     1      48.702 -41.762  47.325  0.00  0.00    +0.000 C 
ATOM     19  CD1 UNL     1      47.311 -42.233  46.900  0.00  0.00    +0.000 C 
ATOM     20  CD2 UNL     1      49.637 -42.971  47.428  0.00  0.00    +0.000 C 
ENDBRANCH  17  18
ENDBRANCH   5  17
ENDBRANCH   2   5
BRANCH   3  21
ATOM     21  CA  UNL     1      48.659 -38.665  50.599  0.00  0.00    +0.000 C 
BRANCH  21  23
ATOM     22  O   UNL     1      46.535 -40.478  50.187  0.00  0.00    +0.000 OA
ATOM     23  N   UNL     1      48.453 -39.929  51.317  0.00  0.00    +0.000 N 
ATOM     24  C   ACE A   0      47.361 -40.712  51.055  0.00  0.00    +0.000 C 
ATOM     25  H   UNL     1      48.850 -40.011  52.243  0.00  0.00    +0.000 HD
BRANCH  24  26
ATOM     26  O   UNL     1      47.220 -41.730  51.938  0.00  0.00    +0.000 OA
BRANCH  26  27
ATOM     27  C   UNL     1      48.288 -42.686  51.954  0.00  0.00    +0.000 C 
BRANCH  27  28
ATOM     28  C   UNL     1      47.767 -44.036  51.526  0.00  0.00    +0.000 A 
ATOM     29  C   UNL     1      47.425 -44.275  50.188  0.00  0.00    +0.000 A 
ATOM     30  C   UNL     1      47.560 -45.055  52.468  0.00  0.00    +0.000 A 
ATOM     31  C   UNL     1      46.911 -45.513  49.796  0.00  0.00    +0.000 A 
ATOM     32  C   UNL     1      47.047 -46.293  52.076  0.00  0.00    +0.000 A 
ATOM     33  C   UNL     1      46.724 -46.522  50.740  0.00  0.00    +0.000 A 
ENDBRANCH  27  28
ENDBRANCH  26  27
ENDBRANCH  24  26
ENDBRANCH  21  23
BRANCH  21  34
ATOM     34  CB  UNL     1      49.377 -37.656  51.513  0.00  0.00    +0.000 C 
BRANCH  34  35
ATOM     35  CG  UNL     1      48.807 -36.222  51.515  0.00  0.00    +0.000 C 
ATOM     36  CD1 UNL     1      47.283 -36.199  51.631  0.00  0.00    +0.000 C 
ATOM     37  CD2 UNL     1      49.421 -35.431  52.676  0.00  0.00    +0.000 C 
ENDBRANCH  34  35
ENDBRANCH  21  34
ENDBRANCH   3  21
TORSDOF 15
ENDMDL
MODEL 2
REMARK VINA RESULT:      -7.2      3.212      9.541
REMARK  Name = 
REMARK  21 active torsions:
REMARK  status: ('A' for Active; 'I' for Inactive)
REMARK    1  A    between atoms: O_3  and  C_27
REMARK    2  A    between atoms: O_3  and  C_28
REMARK    3  A    between atoms: N_6  and  CA_9
REMARK    4  A    between atoms: N_7  and  CA_15
REMARK    5  A    between atoms: N_8  and  CA_12
REMARK    6  A    between atoms: CA_9  and  CB_10
REMARK    7  A    between atoms: CA_9  and  C_16
REMARK    8  A    between atoms: CB_10  and  CG_11
REMARK    9  A    between atoms: CG_11  and  CD1_20
REMARK   10  A    between atoms: CG_11  and  CD2_21
REMARK   11  A    between atoms: CA_12  and  CB_13
REMARK   12  A    between atoms: CA_12  and  C_18
REMARK   13  A    between atoms: CB_13  and  CG_14
REMARK   14  A    between atoms: CG_14  and  CD1_22
REMARK   15  A    between atoms: CG_14  and  CD2_23
REMARK   16  A    between atoms: CA_15  and  CB_17
REMARK   17  A    between atoms: CA_15  and  C_26
REMARK   18  A    between atoms: CB_17  and  CG_19
REMARK   19  A    between atoms: CG_19  and  CD1_24
REMARK   20  A    between atoms: CG_19  and  CD2_25
REMARK   21  A    between atoms: C_28  and  C_29
REMARK                            x       y       z     vdW  Elec       q    Type
REMARK                         _______ _______ _______ _____ _____    ______ ____
ROOT
ATOM      1  O   UNL     1      47.294 -44.715  48.564  0.00  0.00    +0.000 OA
ATOM      2  N   UNL     1      48.636 -44.310  50.364  0.00  0.00    +0.000 N 
ATOM      3  C   UNL     1      47.988 -43.928  49.201  0.00  0.00    +0.000 C 
ATOM      4  H   UNL     1      48.741 -43.559  51.042  0.00  0.00    +0.000 HD
ENDROOT
BRANCH   2   5
ATOM      5  CA  UNL     1      48.386 -45.638  50.927  0.00  0.00    +0.000 C 
BRANCH   5   8
ATOM      6  O   UNL     1      47.975 -44.422  52.974  0.00  0.00    +0.000 OA
ATOM      7  N   UNL     1      46.661 -46.196  52.695  0.00  0.00    +0.000 N 
ATOM      8  C   UNL     1      47.656 -45.376  52.258  0.00  0.00    +0.000 C 
ATOM      9  H   UNL     1      46.272 -45.862  53.571  0.00  0.00    +0.000 HD
BRANCH   7  10
ATOM     10  CA  UNL     1      45.850 -47.151  51.940  0.00  0.00    +0.000 C 
BRANCH  10  12
ATOM     11  O   UNL     1      43.467 -47.232  51.437  0.00  0.00    +0.000 OA
ATOM     12  C   UNL     1      44.470 -46.557  51.655  0.00  0.00    +0.000 C 
ENDBRANCH  10  12
BRANCH  10  13
ATOM     13  CB  UNL     1      45.800 -48.531  52.613  0.00  0.00    +0.000 C 
BRANCH  13  14
ATOM     14  CG  UNL     1      47.112 -49.076  53.218  0.00  0.00    +0.000 C 
ATOM     15  CD1 UNL     1      46.899 -50.203  54.227  0.00  0.00    +0.000 C 
ATOM     16  CD2 UNL     1      48.027 -49.567  52.091  0.00  0.00    +0.000 C 
ENDBRANCH  13  14
ENDBRANCH  10  13
ENDBRANCH   7  10
ENDBRANCH   5   8
BRANCH   5  17
ATOM     17  CB  UNL     1      49.719 -46.357  51.182  0.00  0.00    +0.000 C 
BRANCH  17  18
ATOM     18  CG  UNL     1      50.213 -47.228  50.010  0.00  0.00    +0.000 C 
ATOM     19  CD1 UNL     1      49.071 -47.683  49.102  0.00  0.00    +0.000 C 
ATOM     20  CD2 UNL     1      51.237 -46.445  49.183  0.00  0.00    +0.000 C 
ENDBRANCH  17  18
ENDBRANCH   5  17
ENDBRANCH   2   5
BRANCH   3  21
ATOM     21  CA  UNL     1      48.149 -42.433  48.833  0.00  0.00    +0.000 C 
BRANCH  21  23
ATOM     22  O   UNL     1      46.525 -40.490  50.081  0.00  0.00    +0.000 OA
ATOM     23  N   UNL     1      48.497 -41.660  50.033  0.00  0.00    +0.000 N 
ATOM     24  C   ACE A   0      47.639 -40.715  50.528  0.00  0.00    +0.000 C 
ATOM     25  H   UNL     1      49.478 -41.522  50.232  0.00  0.00    +0.000 HD
BRANCH  24  26
ATOM     26  O   UNL     1      48.195 -39.963  51.509  0.00  0.00    +0.000 OA
BRANCH  26  27
ATOM     27  C   UNL     1      49.034 -38.890  51.064  0.00  0.00    +0.000 C 
BRANCH  27  28
ATOM     28  C   UNL     1      48.483 -37.576  51.562  0.00  0.00    +0.000 A 
ATOM     29  C   UNL     1      47.188 -37.171  51.211  0.00  0.00    +0.000 A 
ATOM     30  C   UNL     1      49.275 -36.712  52.332  0.00  0.00    +0.000 A 
ATOM     31  C   UNL     1      46.687 -35.940  51.643  0.00  0.00    +0.000 A 
ATOM     32  C   UNL     1      48.775 -35.483  52.763  0.00  0.00    +0.000 A 
ATOM     33  C   UNL     1      47.480 -35.098  52.419  0.00  0.00    +0.000 A 
ENDBRANCH  27  28
ENDBRANCH  26  27
ENDBRANCH  24  26
ENDBRANCH  21  23
BRANCH  21  34
ATOM     34  CB  UNL     1      49.225 -42.231  47.752  0.00  0.00    +0.000 C 
BRANCH  34  35
ATOM     35  CG  UNL     1      48.955 -41.107  46.731  0.00  0.00    +0.000 C 
ATOM     36  CD1 UNL     1      47.469 -40.760  46.622  0.00  0.00    +0.000 C 
ATOM     37  CD2 UNL     1      49.745 -39.855  47.127  0.00  0.00    +0.000 C 
ENDBRANCH  34  35
ENDBRANCH  21  34
ENDBRANCH   3  21
TORSDOF 15
ENDMDL
MODEL 3
REMARK VINA RESULT:      -7.0      3.559      8.455
REMARK  Name = 
REMARK  21 active torsions:
REMARK  status: ('A' for Active; 'I' for Inactive)
REMARK    1  A    between atoms: O_3  and  C_27
REMARK    2  A    between atoms: O_3  and  C_28
REMARK    3  A    between atoms: N_6  and  CA_9
REMARK    4  A    between atoms: N_7  and  CA_15
REMARK    5  A    between atoms: N_8  and  CA_12
REMARK    6  A    between atoms: CA_9  and  CB_10
REMARK    7  A    between atoms: CA_9  and  C_16
REMARK    8  A    between atoms: CB_10  and  CG_11
REMARK    9  A    between atoms: CG_11  and  CD1_20
REMARK   10  A    between atoms: CG_11  and  CD2_21
REMARK   11  A    between atoms: CA_12  and  CB_13
REMARK   12  A    between atoms: CA_12  and  C_18
REMARK   13  A    between atoms: CB_13  and  CG_14
REMARK   14  A    between atoms: CG_14  and  CD1_22
REMARK   15  A    between atoms: CG_14  and  CD2_23
REMARK   16  A    between atoms: CA_15  and  CB_17
REMARK   17  A    between atoms: CA_15  and  C_26
REMARK   18  A    between atoms: CB_17  and  CG_19
REMARK   19  A    between atoms: CG_19  and  CD1_24
REMARK   20  A    between atoms: CG_19  and  CD2_25
REMARK   21  A    between atoms: C_28  and  C_29
REMARK                            x       y       z     vdW  Elec       q    Type
REMARK                         _______ _______ _______ _____ _____    ______ ____
ROOT
ATOM      1  O   UNL     1      49.955 -43.971  49.757  0.00  0.00    +0.000 OA
ATOM      2  N   UNL     1      48.093 -45.282  49.627  0.00  0.00    +0.000 N 
ATOM      3  C   UNL     1      48.740 -44.058  49.608  0.00  0.00    +0.000 C 
ATOM      4  H   UNL     1      47.266 -45.320  49.035  0.00  0.00    +0.000 HD
ENDROOT
BRANCH   2   5
ATOM      5  CA  UNL     1      48.879 -46.514  49.692  0.00  0.00    +0.000 C 
BRANCH   5   8
ATOM      6  O   UNL     1      47.628 -47.831  48.099  0.00  0.00    +0.000 OA
ATOM      7  N   UNL     1      49.608 -47.147  47.351  0.00  0.00    +0.000 N 
ATOM      8  C   UNL     1      48.663 -47.198  48.329  0.00  0.00    +0.000 C 
ATOM      9  H   UNL     1      49.291 -47.623  46.512  0.00  0.00    +0.000 HD
BRANCH   7  10
ATOM     10  CA  UNL     1      50.727 -46.218  47.193  0.00  0.00    +0.000 C 
BRANCH  10  12
ATOM     11  O   UNL     1      50.934 -43.949  46.330  0.00  0.00    +0.000 OA
ATOM     12  C   UNL     1      50.281 -44.987  46.405  0.00  0.00    +0.000 C 
ENDBRANCH  10  12
BRANCH  10  13
ATOM     13  CB  UNL     1      51.974 -46.903  46.612  0.00  0.00    +0.000 C 
BRANCH  13  14
ATOM     14  CG  UNL     1      53.191 -47.078  47.547  0.00  0.00    +0.000 C 
ATOM     15  CD1 UNL     1      54.451 -47.558  46.828  0.00  0.00    +0.000 C 
ATOM     16  CD2 UNL     1      53.483 -45.750  48.255  0.00  0.00    +0.000 C 
ENDBRANCH  13  14
ENDBRANCH  10  13
ENDBRANCH   7  10
ENDBRANCH   5   8
BRANCH   5  17
ATOM     17  CB  UNL     1      48.358 -47.409  50.826  0.00  0.00    +0.000 C 
BRANCH  17  18
ATOM     18  CG  UNL     1      49.458 -48.108  51.649  0.00  0.00    +0.000 C 
ATOM     19  CD1 UNL     1      49.284 -49.627  51.681  0.00  0.00    +0.000 C 
ATOM     20  CD2 UNL     1      50.833 -47.767  51.067  0.00  0.00    +0.000 C 
ENDBRANCH  17  18
ENDBRANCH   5  17
ENDBRANCH   2   5
BRANCH   3  21
ATOM     21  CA  UNL     1      47.824 -42.847  49.304  0.00  0.00    +0.000 C 
BRANCH  21  23
ATOM     22  O   UNL     1      46.906 -41.766  51.745  0.00  0.00    +0.000 OA
ATOM     23  N   UNL     1      48.351 -41.647  49.967  0.00  0.00    +0.000 N 
ATOM     24  C   ACE A   0      47.798 -41.196  51.137  0.00  0.00    +0.000 C 
ATOM     25  H   UNL     1      48.801 -40.952  49.389  0.00  0.00    +0.000 HD
BRANCH  24  26
ATOM     26  O   UNL     1      48.267 -39.979  51.503  0.00  0.00    +0.000 OA
BRANCH  26  27
ATOM     27  C   UNL     1      48.049 -38.923  50.559  0.00  0.00    +0.000 C 
BRANCH  27  28
ATOM     28  C   UNL     1      47.994 -37.600  51.283  0.00  0.00    +0.000 A 
ATOM     29  C   UNL     1      46.839 -36.807  51.226  0.00  0.00    +0.000 A 
ATOM     30  C   UNL     1      49.114 -37.113  51.973  0.00  0.00    +0.000 A 
ATOM     31  C   UNL     1      46.797 -35.567  51.868  0.00  0.00    +0.000 A 
ATOM     32  C   UNL     1      49.071 -35.874  52.613  0.00  0.00    +0.000 A 
ATOM     33  C   UNL     1      47.912 -35.101  52.562  0.00  0.00    +0.000 A 
ENDBRANCH  27  28
ENDBRANCH  26  27
ENDBRANCH  24  26
ENDBRANCH  21  23
BRANCH  21  34
ATOM     34  CB  UNL     1      47.705 -42.596  47.790  0.00  0.00    +0.000 C 
BRANCH  34  35
ATOM     35  CG  UNL     1      46.928 -41.330  47.374  0.00  0.00    +0.000 C 
ATOM     36  CD1 UNL     1      47.817 -40.302  46.673  0.00  0.00    +0.000 C 
ATOM     37  CD2 UNL     1      45.771 -41.722  46.448  0.00  0.00    +0.000 C 
ENDBRANCH  34  35
ENDBRANCH  21  34
ENDBRANCH   3  21
TORSDOF 15
ENDMDL
MODEL 4
REMARK VINA RESULT:      -7.0      3.036      6.011
REMARK  Name = 
REMARK  21 active torsions:
REMARK  status: ('A' for Active; 'I' for Inactive)
REMARK    1  A    between atoms: O_3  and  C_27
REMARK    2  A    between atoms: O_3  and  C_28
REMARK    3  A    between atoms: N_6  and  CA_9
REMARK    4  A    between atoms: N_7  and  CA_15
REMARK    5  A    between atoms: N_8  and  CA_12
REMARK    6  A    between atoms: CA_9  and  CB_10
REMARK    7  A    between atoms: CA_9  and  C_16
REMARK    8  A    between atoms: CB_10  and  CG_11
REMARK    9  A    between atoms: CG_11  and  CD1_20
REMARK   10  A    between atoms: CG_11  and  CD2_21
REMARK   11  A    between atoms: CA_12  and  CB_13
REMARK   12  A    between atoms: CA_12  and  C_18
REMARK   13  A    between atoms: CB_13  and  CG_14
REMARK   14  A    between atoms: CG_14  and  CD1_22
REMARK   15  A    between atoms: CG_14  and  CD2_23
REMARK   16  A    between atoms: CA_15  and  CB_17
REMARK   17  A    between atoms: CA_15  and  C_26
REMARK   18  A    between atoms: CB_17  and  CG_19
REMARK   19  A    between atoms: CG_19  and  CD1_24
REMARK   20  A    between atoms: CG_19  and  CD2_25
REMARK   21  A    between atoms: C_28  and  C_29
REMARK                            x       y       z     vdW  Elec       q    Type
REMARK                         _______ _______ _______ _____ _____    ______ ____
ROOT
ATOM      1  O   UNL     1      49.954 -43.363  48.669  0.00  0.00    +0.000 OA
ATOM      2  N   UNL     1      47.960 -42.846  49.648  0.00  0.00    +0.000 N 
ATOM      3  C   UNL     1      49.005 -43.709  49.367  0.00  0.00    +0.000 C 
ATOM      4  H   UNL     1      47.530 -43.003  50.557  0.00  0.00    +0.000 HD
ENDROOT
BRANCH   2   5
ATOM      5  CA  UNL     1      48.042 -41.448  49.222  0.00  0.00    +0.000 C 
BRANCH   5   8
ATOM      6  O   UNL     1      46.956 -41.195  51.365  0.00  0.00    +0.000 OA
ATOM      7  N   UNL     1      47.632 -39.278  50.460  0.00  0.00    +0.000 N 
ATOM      8  C   UNL     1      47.517 -40.634  50.419  0.00  0.00    +0.000 C 
ATOM      9  H   UNL     1      47.262 -38.908  51.330  0.00  0.00    +0.000 HD
BRANCH   7  10
ATOM     10  CA  UNL     1      48.524 -38.401  49.702  0.00  0.00    +0.000 C 
BRANCH  10  12
ATOM     11  O   UNL     1      50.597 -38.565  50.971  0.00  0.00    +0.000 OA
ATOM     12  C   UNL     1      49.980 -38.804  49.937  0.00  0.00    +0.000 C 
ENDBRANCH  10  12
BRANCH  10  13
ATOM     13  CB  UNL     1      48.245 -36.914  49.972  0.00  0.00    +0.000 C 
BRANCH  13  14
ATOM     14  CG  UNL     1      47.818 -36.518  51.402  0.00  0.00    +0.000 C 
ATOM     15  CD1 UNL     1      48.774 -35.538  52.077  0.00  0.00    +0.000 C 
ATOM     16  CD2 UNL     1      46.410 -35.911  51.362  0.00  0.00    +0.000 C 
ENDBRANCH  13  14
ENDBRANCH  10  13
ENDBRANCH   7  10
ENDBRANCH   5   8
BRANCH   5  17
ATOM     17  CB  UNL     1      47.150 -41.223  47.992  0.00  0.00    +0.000 C 
BRANCH  17  18
ATOM     18  CG  UNL     1      47.794 -40.373  46.879  0.00  0.00    +0.000 C 
ATOM     19  CD1 UNL     1      49.280 -40.684  46.696  0.00  0.00    +0.000 C 
ATOM     20  CD2 UNL     1      47.060 -40.613  45.556  0.00  0.00    +0.000 C 
ENDBRANCH  17  18
ENDBRANCH   5  17
ENDBRANCH   2   5
BRANCH   3  21
ATOM     21  CA  UNL     1      48.911 -45.088  50.065  0.00  0.00    +0.000 C 
BRANCH  21  23
ATOM     22  O   UNL     1      48.402 -45.060  52.841  0.00  0.00    +0.000 OA
ATOM     23  N   UNL     1      47.595 -45.234  50.701  0.00  0.00    +0.000 N 
ATOM     24  C   ACE A   0      47.476 -45.241  52.066  0.00  0.00    +0.000 C 
ATOM     25  H   UNL     1      46.880 -45.729  50.188  0.00  0.00    +0.000 HD
BRANCH  24  26
ATOM     26  O   UNL     1      46.234 -45.583  52.482  0.00  0.00    +0.000 OA
BRANCH  26  27
ATOM     27  C   UNL     1      45.566 -46.571  51.688  0.00  0.00    +0.000 C 
BRANCH  27  28
ATOM     28  C   UNL     1      46.089 -47.942  52.039  0.00  0.00    +0.000 A 
ATOM     29  C   UNL     1      46.309 -48.298  53.377  0.00  0.00    +0.000 A 
ATOM     30  C   UNL     1      46.419 -48.862  51.032  0.00  0.00    +0.000 A 
ATOM     31  C   UNL     1      46.824 -49.555  53.702  0.00  0.00    +0.000 A 
ATOM     32  C   UNL     1      46.933 -50.118  51.358  0.00  0.00    +0.000 A 
ATOM     33  C   UNL     1      47.134 -50.465  52.693  0.00  0.00    +0.000 A 
ENDBRANCH  27  28
ENDBRANCH  26  27
ENDBRANCH  24  26
ENDBRANCH  21  23
BRANCH  21  34
ATOM     34  CB  UNL     1      49.141 -46.239  49.071  0.00  0.00    +0.000 C 
BRANCH  34  35
ATOM     35  CG  UNL     1      50.257 -47.238  49.439  0.00  0.00    +0.000 C 
ATOM     36  CD1 UNL     1      51.640 -46.586  49.464  0.00  0.00    +0.000 C 
ATOM     37  CD2 UNL     1      49.958 -47.857  50.809  0.00  0.00    +0.000 C 
ENDBRANCH  34  35
ENDBRANCH  21  34
ENDBRANCH   3  21
TORSDOF 15
ENDMDL
MODEL 5
REMARK VINA RESULT:      -6.6      1.812      2.685
REMARK  Name = 
REMARK  21 active torsions:
REMARK  status: ('A' for Active; 'I' for Inactive)
REMARK    1  A    between atoms: O_3  and  C_27
REMARK    2  A    between atoms: O_3  and  C_28
REMARK    3  A    between atoms: N_6  and  CA_9
REMARK    4  A    between atoms: N_7  and  CA_15
REMARK    5  A    between atoms: N_8  and  CA_12
REMARK    6  A    between atoms: CA_9  and  CB_10
REMARK    7  A    between atoms: CA_9  and  C_16
REMARK    8  A    between atoms: CB_10  and  CG_11
REMARK    9  A    between atoms: CG_11  and  CD1_20
REMARK   10  A    between atoms: CG_11  and  CD2_21
REMARK   11  A    between atoms: CA_12  and  CB_13
REMARK   12  A    between atoms: CA_12  and  C_18
REMARK   13  A    between atoms: CB_13  and  CG_14
REMARK   14  A    between atoms: CG_14  and  CD1_22
REMARK   15  A    between atoms: CG_14  and  CD2_23
REMARK   16  A    between atoms: CA_15  and  CB_17
REMARK   17  A    between atoms: CA_15  and  C_26
REMARK   18  A    between atoms: CB_17  and  CG_19
REMARK   19  A    between atoms: CG_19  and  CD1_24
REMARK   20  A    between atoms: CG_19  and  CD2_25
REMARK   21  A    between atoms: C_28  and  C_29
REMARK                            x       y       z     vdW  Elec       q    Type
REMARK                         _______ _______ _______ _____ _____    ______ ____
ROOT
ATOM      1  O   UNL     1      50.443 -39.117  48.890  0.00  0.00    +0.000 OA
ATOM      2  N   UNL     1      48.524 -38.093  48.205  0.00  0.00    +0.000 N 
ATOM      3  C   UNL     1      49.331 -38.678  49.166  0.00  0.00    +0.000 C 
ATOM      4  H   UNL     1      47.918 -37.361  48.567  0.00  0.00    +0.000 HD
ENDROOT
BRANCH   2   5
ATOM      5  CA  UNL     1      49.050 -37.869  46.858  0.00  0.00    +0.000 C 
BRANCH   5   8
ATOM      6  O   UNL     1      48.480 -35.613  47.509  0.00  0.00    +0.000 OA
ATOM      7  N   UNL     1      49.150 -35.804  45.396  0.00  0.00    +0.000 N 
ATOM      8  C   UNL     1      48.883 -36.358  46.610  0.00  0.00    +0.000 C 
ATOM      9  H   UNL     1      49.016 -34.798  45.418  0.00  0.00    +0.000 HD
BRANCH   7  10
ATOM     10  CA  UNL     1      49.950 -36.335  44.292  0.00  0.00    +0.000 C 
BRANCH  10  12
ATOM     11  O   UNL     1      50.755 -34.209  43.416  0.00  0.00    +0.000 OA
ATOM     12  C   UNL     1      51.013 -35.318  43.877  0.00  0.00    +0.000 C 
ENDBRANCH  10  12
BRANCH  10  13
ATOM     13  CB  UNL     1      49.077 -36.825  43.126  0.00  0.00    +0.000 C 
BRANCH  13  14
ATOM     14  CG  UNL     1      49.559 -38.071  42.350  0.00  0.00    +0.000 C 
ATOM     15  CD1 UNL     1      50.716 -38.803  43.027  0.00  0.00    +0.000 C 
ATOM     16  CD2 UNL     1      48.384 -39.037  42.162  0.00  0.00    +0.000 C 
ENDBRANCH  13  14
ENDBRANCH  10  13
ENDBRANCH   7  10
ENDBRANCH   5   8
BRANCH   5  17
ATOM     17  CB  UNL     1      48.231 -38.670  45.835  0.00  0.00    +0.000 C 
BRANCH  17  18
ATOM     18  CG  UNL     1      48.081 -40.168  46.165  0.00  0.00    +0.000 C 
ATOM     19  CD1 UNL     1      46.843 -40.786  45.513  0.00  0.00    +0.000 C 
ATOM     20  CD2 UNL     1      49.329 -40.927  45.703  0.00  0.00    +0.000 C 
ENDBRANCH  17  18
ENDBRANCH   5  17
ENDBRANCH   2   5
BRANCH   3  21
ATOM     21  CA  UNL     1      48.751 -38.650  50.601  0.00  0.00    +0.000 C 
BRANCH  21  23
ATOM     22  O   UNL     1      46.817 -40.706  50.606  0.00  0.00    +0.000 OA
ATOM     23  N   UNL     1      48.900 -39.972  51.223  0.00  0.00    +0.000 N 
ATOM     24  C   ACE A   0      47.874 -40.879  51.191  0.00  0.00    +0.000 C 
ATOM     25  H   UNL     1      49.547 -40.056  51.995  0.00  0.00    +0.000 HD
BRANCH  24  26
ATOM     26  O   UNL     1      48.103 -41.958  51.976  0.00  0.00    +0.000 OA
BRANCH  26  27
ATOM     27  C   UNL     1      48.658 -43.100  51.311  0.00  0.00    +0.000 C 
BRANCH  27  28
ATOM     28  C   UNL     1      47.703 -44.263  51.417  0.00  0.00    +0.000 A 
ATOM     29  C   UNL     1      46.931 -44.652  50.313  0.00  0.00    +0.000 A 
ATOM     30  C   UNL     1      47.526 -44.936  52.635  0.00  0.00    +0.000 A 
ATOM     31  C   UNL     1      46.023 -45.708  50.418  0.00  0.00    +0.000 A 
ATOM     32  C   UNL     1      46.618 -45.991  52.739  0.00  0.00    +0.000 A 
ATOM     33  C   UNL     1      45.867 -46.377  51.630  0.00  0.00    +0.000 A 
ENDBRANCH  27  28
ENDBRANCH  26  27
ENDBRANCH  24  26
ENDBRANCH  21  23
BRANCH  21  34
ATOM     34  CB  UNL     1      49.445 -37.584  51.469  0.00  0.00    +0.000 C 
BRANCH  34  35
ATOM     35  CG  UNL     1      48.848 -36.163  51.400  0.00  0.00    +0.000 C 
ATOM     36  CD1 UNL     1      47.335 -36.175  51.183  0.00  0.00    +0.000 C 
ATOM     37  CD2 UNL     1      49.174 -35.409  52.694  0.00  0.00    +0.000 C 
ENDBRANCH  34  35
ENDBRANCH  21  34
ENDBRANCH   3  21
TORSDOF 15
ENDMDL
MODEL 6
REMARK VINA RESULT:      -6.5      3.075      6.075
REMARK  Name = 
REMARK  21 active torsions:
REMARK  status: ('A' for Active; 'I' for Inactive)
REMARK    1  A    between atoms: O_3  and  C_27
REMARK    2  A    between atoms: O_3  and  C_28
REMARK    3  A    between atoms: N_6  and  CA_9
REMARK    4  A    between atoms: N_7  and  CA_15
REMARK    5  A    between atoms: N_8  and  CA_12
REMARK    6  A    between atoms: CA_9  and  CB_10
REMARK    7  A    between atoms: CA_9  and  C_16
REMARK    8  A    between atoms: CB_10  and  CG_11
REMARK    9  A    between atoms: CG_11  and  CD1_20
REMARK   10  A    between atoms: CG_11  and  CD2_21
REMARK   11  A    between atoms: CA_12  and  CB_13
REMARK   12  A    between atoms: CA_12  and  C_18
REMARK   13  A    between atoms: CB_13  and  CG_14
REMARK   14  A    between atoms: CG_14  and  CD1_22
REMARK   15  A    between atoms: CG_14  and  CD2_23
REMARK   16  A    between atoms: CA_15  and  CB_17
REMARK   17  A    between atoms: CA_15  and  C_26
REMARK   18  A    between atoms: CB_17  and  CG_19
REMARK   19  A    between atoms: CG_19  and  CD1_24
REMARK   20  A    between atoms: CG_19  and  CD2_25
REMARK   21  A    between atoms: C_28  and  C_29
REMARK                            x       y       z     vdW  Elec       q    Type
REMARK                         _______ _______ _______ _____ _____    ______ ____
ROOT
ATOM      1  O   UNL     1      49.798 -42.862  48.244  0.00  0.00    +0.000 OA
ATOM      2  N   UNL     1      47.855 -42.688  49.427  0.00  0.00    +0.000 N 
ATOM      3  C   UNL     1      48.979 -43.375  49.000  0.00  0.00    +0.000 C 
ATOM      4  H   UNL     1      47.542 -42.950  50.359  0.00  0.00    +0.000 HD
ENDROOT
BRANCH   2   5
ATOM      5  CA  UNL     1      47.700 -41.274  49.084  0.00  0.00    +0.000 C 
BRANCH   5   8
ATOM      6  O   UNL     1      46.963 -41.204  51.384  0.00  0.00    +0.000 OA
ATOM      7  N   UNL     1      47.592 -39.229  50.575  0.00  0.00    +0.000 N 
ATOM      8  C   UNL     1      47.403 -40.569  50.421  0.00  0.00    +0.000 C 
ATOM      9  H   UNL     1      47.377 -38.938  51.523  0.00  0.00    +0.000 HD
BRANCH   7  10
ATOM     10  CA  UNL     1      48.404 -38.312  49.775  0.00  0.00    +0.000 C 
BRANCH  10  12
ATOM     11  O   UNL     1      50.655 -38.563  48.877  0.00  0.00    +0.000 OA
ATOM     12  C   UNL     1      49.869 -38.747  49.804  0.00  0.00    +0.000 C 
ENDBRANCH  10  12
BRANCH  10  13
ATOM     13  CB  UNL     1      48.189 -36.844  50.178  0.00  0.00    +0.000 C 
BRANCH  13  14
ATOM     14  CG  UNL     1      47.980 -36.541  51.678  0.00  0.00    +0.000 C 
ATOM     15  CD1 UNL     1      49.280 -36.267  52.433  0.00  0.00    +0.000 C 
ATOM     16  CD2 UNL     1      47.041 -35.338  51.827  0.00  0.00    +0.000 C 
ENDBRANCH  13  14
ENDBRANCH  10  13
ENDBRANCH   7  10
ENDBRANCH   5   8
BRANCH   5  17
ATOM     17  CB  UNL     1      46.521 -41.097  48.115  0.00  0.00    +0.000 C 
BRANCH  17  18
ATOM     18  CG  UNL     1      46.777 -41.626  46.690  0.00  0.00    +0.000 C 
ATOM     19  CD1 UNL     1      45.709 -42.624  46.241  0.00  0.00    +0.000 C 
ATOM     20  CD2 UNL     1      46.822 -40.454  45.705  0.00  0.00    +0.000 C 
ENDBRANCH  17  18
ENDBRANCH   5  17
ENDBRANCH   2   5
BRANCH   3  21
ATOM     21  CA  UNL     1      49.146 -44.786  49.616  0.00  0.00    +0.000 C 
BRANCH  21  23
ATOM     22  O   UNL     1      48.277 -45.963  52.030  0.00  0.00    +0.000 OA
ATOM     23  N   UNL     1      47.826 -45.383  49.857  0.00  0.00    +0.000 N 
ATOM     24  C   ACE A   0      47.531 -45.959  51.064  0.00  0.00    +0.000 C 
ATOM     25  H   UNL     1      47.319 -45.735  49.058  0.00  0.00    +0.000 HD
BRANCH  24  26
ATOM     26  O   UNL     1      46.355 -46.632  51.050  0.00  0.00    +0.000 OA
BRANCH  26  27
ATOM     27  C   UNL     1      45.231 -45.924  51.587  0.00  0.00    +0.000 C 
BRANCH  27  28
ATOM     28  C   UNL     1      43.989 -46.770  51.457  0.00  0.00    +0.000 A 
ATOM     29  C   UNL     1      44.079 -48.105  51.039  0.00  0.00    +0.000 A 
ATOM     30  C   UNL     1      42.720 -46.222  51.694  0.00  0.00    +0.000 A 
ATOM     31  C   UNL     1      42.928 -48.881  50.887  0.00  0.00    +0.000 A 
ATOM     32  C   UNL     1      41.570 -46.998  51.542  0.00  0.00    +0.000 A 
ATOM     33  C   UNL     1      41.674 -48.328  51.139  0.00  0.00    +0.000 A 
ENDBRANCH  27  28
ENDBRANCH  26  27
ENDBRANCH  24  26
ENDBRANCH  21  23
BRANCH  21  34
ATOM     34  CB  UNL     1      49.975 -45.705  48.700  0.00  0.00    +0.000 C 
BRANCH  34  35
ATOM     35  CG  UNL     1      51.313 -46.209  49.280  0.00  0.00    +0.000 C 
ATOM     36  CD1 UNL     1      51.120 -47.291  50.342  0.00  0.00    +0.000 C 
ATOM     37  CD2 UNL     1      52.188 -46.753  48.146  0.00  0.00    +0.000 C 
ENDBRANCH  34  35
ENDBRANCH  21  34
ENDBRANCH   3  21
TORSDOF 15
ENDMDL
MODEL 7
REMARK VINA RESULT:      -6.4      2.002      3.175
REMARK  Name = 
REMARK  21 active torsions:
REMARK  status: ('A' for Active; 'I' for Inactive)
REMARK    1  A    between atoms: O_3  and  C_27
REMARK    2  A    between atoms: O_3  and  C_28
REMARK    3  A    between atoms: N_6  and  CA_9
REMARK    4  A    between atoms: N_7  and  CA_15
REMARK    5  A    between atoms: N_8  and  CA_12
REMARK    6  A    between atoms: CA_9  and  CB_10
REMARK    7  A    between atoms: CA_9  and  C_16
REMARK    8  A    between atoms: CB_10  and  CG_11
REMARK    9  A    between atoms: CG_11  and  CD1_20
REMARK   10  A    between atoms: CG_11  and  CD2_21
REMARK   11  A    between atoms: CA_12  and  CB_13
REMARK   12  A    between atoms: CA_12  and  C_18
REMARK   13  A    between atoms: CB_13  and  CG_14
REMARK   14  A    between atoms: CG_14  and  CD1_22
REMARK   15  A    between atoms: CG_14  and  CD2_23
REMARK   16  A    between atoms: CA_15  and  CB_17
REMARK   17  A    between atoms: CA_15  and  C_26
REMARK   18  A    between atoms: CB_17  and  CG_19
REMARK   19  A    between atoms: CG_19  and  CD1_24
REMARK   20  A    between atoms: CG_19  and  CD2_25
REMARK   21  A    between atoms: C_28  and  C_29
REMARK                            x       y       z     vdW  Elec       q    Type
REMARK                         _______ _______ _______ _____ _____    ______ ____
ROOT
ATOM      1  O   UNL     1      50.623 -38.277  49.046  0.00  0.00    +0.000 OA
ATOM      2  N   UNL     1      48.515 -38.484  48.199  0.00  0.00    +0.000 N 
ATOM      3  C   UNL     1      49.419 -38.412  49.245  0.00  0.00    +0.000 C 
ATOM      4  H   UNL     1      47.598 -38.102  48.422  0.00  0.00    +0.000 HD
ENDROOT
BRANCH   2   5
ATOM      5  CA  UNL     1      48.976 -38.262  46.828  0.00  0.00    +0.000 C 
BRANCH   5   8
ATOM      6  O   UNL     1      48.302 -36.009  47.388  0.00  0.00    +0.000 OA
ATOM      7  N   UNL     1      48.388 -36.412  45.201  0.00  0.00    +0.000 N 
ATOM      8  C   UNL     1      48.542 -36.823  46.490  0.00  0.00    +0.000 C 
ATOM      9  H   UNL     1      48.129 -35.432  45.160  0.00  0.00    +0.000 HD
BRANCH   7  10
ATOM     10  CA  UNL     1      48.920 -37.002  43.972  0.00  0.00    +0.000 C 
BRANCH  10  12
ATOM     11  O   UNL     1      51.027 -36.767  42.773  0.00  0.00    +0.000 OA
ATOM     12  C   UNL     1      50.221 -36.304  43.575  0.00  0.00    +0.000 C 
ENDBRANCH  10  12
BRANCH  10  13
ATOM     13  CB  UNL     1      47.874 -37.042  42.847  0.00  0.00    +0.000 C 
BRANCH  13  14
ATOM     14  CG  UNL     1      47.617 -38.403  42.162  0.00  0.00    +0.000 C 
ATOM     15  CD1 UNL     1      48.765 -39.397  42.327  0.00  0.00    +0.000 C 
ATOM     16  CD2 UNL     1      46.327 -39.016  42.718  0.00  0.00    +0.000 C 
ENDBRANCH  13  14
ENDBRANCH  10  13
ENDBRANCH   7  10
ENDBRANCH   5   8
BRANCH   5  17
ATOM     17  CB  UNL     1      48.297 -39.260  45.879  0.00  0.00    +0.000 C 
BRANCH  17  18
ATOM     18  CG  UNL     1      48.218 -40.703  46.415  0.00  0.00    +0.000 C 
ATOM     19  CD1 UNL     1      46.777 -41.204  46.523  0.00  0.00    +0.000 C 
ATOM     20  CD2 UNL     1      49.012 -41.638  45.498  0.00  0.00    +0.000 C 
ENDBRANCH  17  18
ENDBRANCH   5  17
ENDBRANCH   2   5
BRANCH   3  21
ATOM     21  CA  UNL     1      48.780 -38.431  50.655  0.00  0.00    +0.000 C 
BRANCH  21  23
ATOM     22  O   UNL     1      46.952 -40.573  50.458  0.00  0.00    +0.000 OA
ATOM     23  N   UNL     1      48.943 -39.762  51.256  0.00  0.00    +0.000 N 
ATOM     24  C   ACE A   0      47.967 -40.713  51.122  0.00  0.00    +0.000 C 
ATOM     25  H   UNL     1      49.530 -39.837  52.075  0.00  0.00    +0.000 HD
BRANCH  24  26
ATOM     26  O   UNL     1      48.185 -41.802  51.897  0.00  0.00    +0.000 OA
BRANCH  26  27
ATOM     27  C   UNL     1      47.484 -42.989  51.506  0.00  0.00    +0.000 C 
BRANCH  27  28
ATOM     28  C   UNL     1      48.410 -43.891  50.727  0.00  0.00    +0.000 A 
ATOM     29  C   UNL     1      48.437 -45.270  50.980  0.00  0.00    +0.000 A 
ATOM     30  C   UNL     1      49.301 -43.361  49.782  0.00  0.00    +0.000 A 
ATOM     31  C   UNL     1      49.316 -46.103  50.283  0.00  0.00    +0.000 A 
ATOM     32  C   UNL     1      50.179 -44.193  49.087  0.00  0.00    +0.000 A 
ATOM     33  C   UNL     1      50.186 -45.564  49.337  0.00  0.00    +0.000 A 
ENDBRANCH  27  28
ENDBRANCH  26  27
ENDBRANCH  24  26
ENDBRANCH  21  23
BRANCH  21  34
ATOM     34  CB  UNL     1      49.406 -37.365  51.572  0.00  0.00    +0.000 C 
BRANCH  34  35
ATOM     35  CG  UNL     1      48.777 -35.958  51.500  0.00  0.00    +0.000 C 
ATOM     36  CD1 UNL     1      47.281 -36.001  51.189  0.00  0.00    +0.000 C 
ATOM     37  CD2 UNL     1      49.004 -35.228  52.828  0.00  0.00    +0.000 C 
ENDBRANCH  34  35
ENDBRANCH  21  34
ENDBRANCH   3  21
TORSDOF 15
ENDMDL
MODEL 8
REMARK VINA RESULT:      -6.2      2.662      4.946
REMARK  Name = 
REMARK  21 active torsions:
REMARK  status: ('A' for Active; 'I' for Inactive)
REMARK    1  A    between atoms: O_3  and  C_27
REMARK    2  A    between atoms: O_3  and  C_28
REMARK    3  A    between atoms: N_6  and  CA_9
REMARK    4  A    between atoms: N_7  and  CA_15
REMARK    5  A    between atoms: N_8  and  CA_12
REMARK    6  A    between atoms: CA_9  and  CB_10
REMARK    7  A    between atoms: CA_9  and  C_16
REMARK    8  A    between atoms: CB_10  and  CG_11
REMARK    9  A    between atoms: CG_11  and  CD1_20
REMARK   10  A    between atoms: CG_11  and  CD2_21
REMARK   11  A    between atoms: CA_12  and  CB_13
REMARK   12  A    between atoms: CA_12  and  C_18
REMARK   13  A    between atoms: CB_13  and  CG_14
REMARK   14  A    between atoms: CG_14  and  CD1_22
REMARK   15  A    between atoms: CG_14  and  CD2_23
REMARK   16  A    between atoms: CA_15  and  CB_17
REMARK   17  A    between atoms: CA_15  and  C_26
REMARK   18  A    between atoms: CB_17  and  CG_19
REMARK   19  A    between atoms: CG_19  and  CD1_24
REMARK   20  A    between atoms: CG_19  and  CD2_25
REMARK   21  A    between atoms: C_28  and  C_29
REMARK                            x       y       z     vdW  Elec       q    Type
REMARK                         _______ _______ _______ _____ _____    ______ ____
ROOT
ATOM      1  O   UNL     1      46.740 -40.761  48.715  0.00  0.00    +0.000 OA
ATOM      2  N   UNL     1      48.588 -39.596  48.059  0.00  0.00    +0.000 N 
ATOM      3  C   UNL     1      47.753 -40.139  49.020  0.00  0.00    +0.000 C 
ATOM      4  H   UNL     1      49.567 -39.563  48.336  0.00  0.00    +0.000 HD
ENDROOT
BRANCH   2   5
ATOM      5  CA  UNL     1      48.341 -39.878  46.644  0.00  0.00    +0.000 C 
BRANCH   5   8
ATOM      6  O   UNL     1      50.563 -39.902  45.696  0.00  0.00    +0.000 OA
ATOM      7  N   UNL     1      49.754 -41.922  46.158  0.00  0.00    +0.000 N 
ATOM      8  C   UNL     1      49.624 -40.567  46.144  0.00  0.00    +0.000 C 
ATOM      9  H   UNL     1      50.670 -42.203  45.824  0.00  0.00    +0.000 HD
BRANCH   7  10
ATOM     10  CA  UNL     1      49.004 -42.916  46.926  0.00  0.00    +0.000 C 
BRANCH  10  12
ATOM     11  O   UNL     1      50.519 -44.343  48.192  0.00  0.00    +0.000 OA
ATOM     12  C   UNL     1      49.804 -43.344  48.156  0.00  0.00    +0.000 C 
ENDBRANCH  10  12
BRANCH  10  13
ATOM     13  CB  UNL     1      48.536 -44.092  46.054  0.00  0.00    +0.000 C 
BRANCH  13  14
ATOM     14  CG  UNL     1      47.106 -44.025  45.476  0.00  0.00    +0.000 C 
ATOM     15  CD1 UNL     1      46.107 -43.321  46.392  0.00  0.00    +0.000 C 
ATOM     16  CD2 UNL     1      47.140 -43.315  44.117  0.00  0.00    +0.000 C 
ENDBRANCH  13  14
ENDBRANCH  10  13
ENDBRANCH   7  10
ENDBRANCH   5   8
BRANCH   5  17
ATOM     17  CB  UNL     1      48.109 -38.566  45.881  0.00  0.00    +0.000 C 
BRANCH  17  18
ATOM     18  CG  UNL     1      47.044 -38.649  44.770  0.00  0.00    +0.000 C 
ATOM     19  CD1 UNL     1      47.662 -38.868  43.388  0.00  0.00    +0.000 C 
ATOM     20  CD2 UNL     1      46.068 -39.789  45.075  0.00  0.00    +0.000 C 
ENDBRANCH  17  18
ENDBRANCH   5  17
ENDBRANCH   2   5
BRANCH   3  21
ATOM     21  CA  UNL     1      48.246 -39.966  50.478  0.00  0.00    +0.000 C 
BRANCH  21  23
ATOM     22  O   UNL     1      46.753 -41.887  51.909  0.00  0.00    +0.000 OA
ATOM     23  N   UNL     1      48.753 -41.247  50.986  0.00  0.00    +0.000 N 
ATOM     24  C   ACE A   0      47.940 -42.086  51.702  0.00  0.00    +0.000 C 
ATOM     25  H   UNL     1      49.743 -41.317  51.174  0.00  0.00    +0.000 HD
BRANCH  24  26
ATOM     26  O   UNL     1      48.613 -43.119  52.261  0.00  0.00    +0.000 OA
BRANCH  26  27
ATOM     27  C   UNL     1      47.861 -44.326  52.434  0.00  0.00    +0.000 C 
BRANCH  27  28
ATOM     28  C   UNL     1      47.925 -45.150  51.172  0.00  0.00    +0.000 A 
ATOM     29  C   UNL     1      46.964 -44.985  50.165  0.00  0.00    +0.000 A 
ATOM     30  C   UNL     1      48.911 -46.136  51.009  0.00  0.00    +0.000 A 
ATOM     31  C   UNL     1      47.003 -45.769  49.010  0.00  0.00    +0.000 A 
ATOM     32  C   UNL     1      48.949 -46.919  49.854  0.00  0.00    +0.000 A 
ATOM     33  C   UNL     1      47.995 -46.735  48.855  0.00  0.00    +0.000 A 
ENDBRANCH  27  28
ENDBRANCH  26  27
ENDBRANCH  24  26
ENDBRANCH  21  23
BRANCH  21  34
ATOM     34  CB  UNL     1      49.346 -38.894  50.577  0.00  0.00    +0.000 C 
BRANCH  34  35
ATOM     35  CG  UNL     1      48.867 -37.463  50.901  0.00  0.00    +0.000 C 
ATOM     36  CD1 UNL     1      47.376 -37.406  51.234  0.00  0.00    +0.000 C 
ATOM     37  CD2 UNL     1      49.676 -36.908  52.078  0.00  0.00    +0.000 C 
ENDBRANCH  34  35
ENDBRANCH  21  34
ENDBRANCH   3  21
TORSDOF 15
ENDMDL
MODEL 9
REMARK VINA RESULT:      -5.9      3.092      8.545
REMARK  Name = 
REMARK  21 active torsions:
REMARK  status: ('A' for Active; 'I' for Inactive)
REMARK    1  A    between atoms: O_3  and  C_27
REMARK    2  A    between atoms: O_3  and  C_28
REMARK    3  A    between atoms: N_6  and  CA_9
REMARK    4  A    between atoms: N_7  and  CA_15
REMARK    5  A    between atoms: N_8  and  CA_12
REMARK    6  A    between atoms: CA_9  and  CB_10
REMARK    7  A    between atoms: CA_9  and  C_16
REMARK    8  A    between atoms: CB_10  and  CG_11
REMARK    9  A    between atoms: CG_11  and  CD1_20
REMARK   10  A    between atoms: CG_11  and  CD2_21
REMARK   11  A    between atoms: CA_12  and  CB_13
REMARK   12  A    between atoms: CA_12  and  C_18
REMARK   13  A    between atoms: CB_13  and  CG_14
REMARK   14  A    between atoms: CG_14  and  CD1_22
REMARK   15  A    between atoms: CG_14  and  CD2_23
REMARK   16  A    between atoms: CA_15  and  CB_17
REMARK   17  A    between atoms: CA_15  and  C_26
REMARK   18  A    between atoms: CB_17  and  CG_19
REMARK   19  A    between atoms: CG_19  and  CD1_24
REMARK   20  A    between atoms: CG_19  and  CD2_25
REMARK   21  A    between atoms: C_28  and  C_29
REMARK                            x       y       z     vdW  Elec       q    Type
REMARK                         _______ _______ _______ _____ _____    ______ ____
ROOT
ATOM      1  O   UNL     1      49.596 -43.525  49.676  0.00  0.00    +0.000 OA
ATOM      2  N   UNL     1      47.396 -43.737  49.109  0.00  0.00    +0.000 N 
ATOM      3  C   UNL     1      48.577 -43.021  49.213  0.00  0.00    +0.000 C 
ATOM      4  H   UNL     1      46.816 -43.461  48.320  0.00  0.00    +0.000 HD
ENDROOT
BRANCH   2   5
ATOM      5  CA  UNL     1      47.387 -45.165  49.430  0.00  0.00    +0.000 C 
BRANCH   5   8
ATOM      6  O   UNL     1      45.676 -45.906  47.893  0.00  0.00    +0.000 OA
ATOM      7  N   UNL     1      47.743 -46.459  47.282  0.00  0.00    +0.000 N 
ATOM      8  C   UNL     1      46.883 -45.859  48.151  0.00  0.00    +0.000 C 
ATOM      9  H   UNL     1      47.247 -46.838  46.482  0.00  0.00    +0.000 HD
BRANCH   7  10
ATOM     10  CA  UNL     1      49.185 -46.268  47.128  0.00  0.00    +0.000 C 
BRANCH  10  12
ATOM     11  O   UNL     1      48.718 -45.651  44.818  0.00  0.00    +0.000 OA
ATOM     12  C   UNL     1      49.489 -45.626  45.775  0.00  0.00    +0.000 C 
ENDBRANCH  10  12
BRANCH  10  13
ATOM     13  CB  UNL     1      49.973 -47.562  47.387  0.00  0.00    +0.000 C 
BRANCH  13  14
ATOM     14  CG  UNL     1      50.378 -47.869  48.846  0.00  0.00    +0.000 C 
ATOM     15  CD1 UNL     1      50.861 -46.643  49.618  0.00  0.00    +0.000 C 
ATOM     16  CD2 UNL     1      49.189 -48.499  49.581  0.00  0.00    +0.000 C 
ENDBRANCH  13  14
ENDBRANCH  10  13
ENDBRANCH   7  10
ENDBRANCH   5   8
BRANCH   5  17
ATOM     17  CB  UNL     1      46.425 -45.433  50.596  0.00  0.00    +0.000 C 
BRANCH  17  18
ATOM     18  CG  UNL     1      47.006 -46.315  51.719  0.00  0.00    +0.000 C 
ATOM     19  CD1 UNL     1      48.318 -45.759  52.273  0.00  0.00    +0.000 C 
ATOM     20  CD2 UNL     1      45.988 -46.440  52.856  0.00  0.00    +0.000 C 
ENDBRANCH  17  18
ENDBRANCH   5  17
ENDBRANCH   2   5
BRANCH   3  21
ATOM     21  CA  UNL     1      48.518 -41.589  48.628  0.00  0.00    +0.000 C 
BRANCH  21  23
ATOM     22  O   UNL     1      47.574 -40.056  50.802  0.00  0.00    +0.000 OA
ATOM     23  N   UNL     1      49.322 -40.680  49.456  0.00  0.00    +0.000 N 
ATOM     24  C   ACE A   0      48.743 -39.959  50.465  0.00  0.00    +0.000 C 
ATOM     25  H   UNL     1      50.153 -40.282  49.041  0.00  0.00    +0.000 HD
BRANCH  24  26
ATOM     26  O   UNL     1      49.577 -39.031  50.992  0.00  0.00    +0.000 OA
BRANCH  26  27
ATOM     27  C   UNL     1      49.577 -37.756  50.338  0.00  0.00    +0.000 C 
BRANCH  27  28
ATOM     28  C   UNL     1      48.707 -36.791  51.106  0.00  0.00    +0.000 A 
ATOM     29  C   UNL     1      49.197 -36.155  52.256  0.00  0.00    +0.000 A 
ATOM     30  C   UNL     1      47.379 -36.560  50.720  0.00  0.00    +0.000 A 
ATOM     31  C   UNL     1      48.383 -35.287  52.987  0.00  0.00    +0.000 A 
ATOM     32  C   UNL     1      46.567 -35.692  51.452  0.00  0.00    +0.000 A 
ATOM     33  C   UNL     1      47.070 -35.055  52.585  0.00  0.00    +0.000 A 
ENDBRANCH  27  28
ENDBRANCH  26  27
ENDBRANCH  24  26
ENDBRANCH  21  23
BRANCH  21  34
ATOM     34  CB  UNL     1      49.021 -41.553  47.174  0.00  0.00    +0.000 C 
BRANCH  34  35
ATOM     35  CG  UNL     1      47.935 -41.420  46.086  0.00  0.00    +0.000 C 
ATOM     36  CD1 UNL     1      46.557 -41.106  46.670  0.00  0.00    +0.000 C 
ATOM     37  CD2 UNL     1      48.335 -40.320  45.096  0.00  0.00    +0.000 C 
ENDBRANCH  34  35
ENDBRANCH  21  34
ENDBRANCH   3  21
TORSDOF 15
ENDMDL
