REMARK  Name = Monobenzone.pdbqt.pdb
REMARK  4 active torsions:
REMARK  status: ('A' for Active; 'I' for Inactive)
REMARK    1  A    between atoms: C_1  and  O_7
REMARK    2  A    between atoms: C_6  and  O_15
REMARK    3  A    between atoms: O_7  and  C_8
REMARK    4  A    between atoms: C_8  and  C_9
REMARK                            x       y       z     vdW  Elec       q    Type
REMARK                         _______ _______ _______ _____ _____    ______ ____
ROOT
ATOM      1  C   UNL     1       1.433  -0.958   0.003  0.00  0.00    +0.000 A 
ATOM      2  C   UNL     1       1.450   0.439  -0.004  0.00  0.00    +0.000 A 
ATOM      3  C   UNL     1       2.637  -1.664   0.007  0.00  0.00    +0.000 A 
ATOM      4  C   UNL     1       2.661   1.126  -0.006  0.00  0.00    +0.000 A 
ATOM      5  C   UNL     1       3.851  -0.982   0.004  0.00  0.00    +0.000 A 
ATOM      6  C   UNL     1       3.853   0.409  -0.002  0.00  0.00    +0.000 A 
ENDROOT
BRANCH   6   7
ATOM      7  O   UNL     1       5.054   1.056  -0.004  0.00  0.00    +0.000 OA
ATOM      8  H   UNL     1       4.885   2.014  -0.009  0.00  0.00    +0.000 HD
ENDBRANCH   6   7
BRANCH   1   9
ATOM      9  O   UNL     1       0.292  -1.721   0.006  0.00  0.00    +0.000 OA
BRANCH   9  10
ATOM     10  C   UNL     1      -0.844  -1.028   0.002  0.00  0.00    +0.000 C 
BRANCH  10  11
ATOM     11  C   UNL     1      -2.070  -0.299  -0.001  0.00  0.00    +0.000 A 
ATOM     12  C   UNL     1      -2.696  -0.001  -1.209  0.00  0.00    +0.000 A 
ATOM     13  C   UNL     1      -3.891   0.716  -1.212  0.00  0.00    +0.000 A 
ATOM     14  C   UNL     1      -4.456   1.132  -0.009  0.00  0.00    +0.000 A 
ATOM     15  C   UNL     1      -3.828   0.832   1.198  0.00  0.00    +0.000 A 
ATOM     16  C   UNL     1      -2.634   0.116   1.203  0.00  0.00    +0.000 A 
ENDBRANCH  10  11
ENDBRANCH   9  10
ENDBRANCH   1   9
TORSDOF 4
