MODEL 1
REMARK VINA RESULT:      -6.5      0.000      0.000
REMARK  Name = Monobenzone.pdbqt.pdb
REMARK  4 active torsions:
REMARK  status: ('A' for Active; 'I' for Inactive)
REMARK    1  A    between atoms: C_1  and  O_7
REMARK    2  A    between atoms: C_6  and  O_15
REMARK    3  A    between atoms: O_7  and  C_8
REMARK    4  A    between atoms: C_8  and  C_9
REMARK                            x       y       z     vdW  Elec       q    Type
REMARK                         _______ _______ _______ _____ _____    ______ ____
ROOT
ATOM      1  C   UNL     1      48.620 -40.728  49.953  0.00  0.00    +0.000 A 
ATOM      2  C   UNL     1      49.137 -41.894  49.383  0.00  0.00    +0.000 A 
ATOM      3  C   UNL     1      47.997 -40.785  51.200  0.00  0.00    +0.000 A 
ATOM      4  C   UNL     1      49.033 -43.109  50.055  0.00  0.00    +0.000 A 
ATOM      5  C   UNL     1      47.890 -41.998  51.876  0.00  0.00    +0.000 A 
ATOM      6  C   UNL     1      48.410 -43.151  51.297  0.00  0.00    +0.000 A 
ENDROOT
BRANCH   6   7
ATOM      7  O   UNL     1      48.294 -44.328  51.978  0.00  0.00    +0.000 OA
ATOM      8  H   UNL     1      47.899 -44.988  51.383  0.00  0.00    +0.000 HD
ENDBRANCH   6   7
BRANCH   1   9
ATOM      9  O   UNL     1      48.675 -39.487  49.368  0.00  0.00    +0.000 OA
BRANCH   9  10
ATOM     10  C   UNL     1      48.491 -38.467  50.203  0.00  0.00    +0.000 C 
BRANCH  10  11
ATOM     11  C   UNL     1      48.305 -37.380  51.108  0.00  0.00    +0.000 A 
ATOM     12  C   UNL     1      47.067 -36.746  51.185  0.00  0.00    +0.000 A 
ATOM     13  C   UNL     1      46.888 -35.681  52.065  0.00  0.00    +0.000 A 
ATOM     14  C   UNL     1      47.945 -35.253  52.864  0.00  0.00    +0.000 A 
ATOM     15  C   UNL     1      49.182 -35.889  52.785  0.00  0.00    +0.000 A 
ATOM     16  C   UNL     1      49.363 -36.953  51.907  0.00  0.00    +0.000 A 
ENDBRANCH  10  11
ENDBRANCH   9  10
ENDBRANCH   1   9
TORSDOF 4
ENDMDL
MODEL 2
REMARK VINA RESULT:      -6.4      2.577      3.554
REMARK  Name = Monobenzone.pdbqt.pdb
REMARK  4 active torsions:
REMARK  status: ('A' for Active; 'I' for Inactive)
REMARK    1  A    between atoms: C_1  and  O_7
REMARK    2  A    between atoms: C_6  and  O_15
REMARK    3  A    between atoms: O_7  and  C_8
REMARK    4  A    between atoms: C_8  and  C_9
REMARK                            x       y       z     vdW  Elec       q    Type
REMARK                         _______ _______ _______ _____ _____    ______ ____
ROOT
ATOM      1  C   UNL     1      50.100 -39.430  48.907  0.00  0.00    +0.000 A 
ATOM      2  C   UNL     1      49.745 -40.743  48.584  0.00  0.00    +0.000 A 
ATOM      3  C   UNL     1      50.051 -38.439  47.925  0.00  0.00    +0.000 A 
ATOM      4  C   UNL     1      49.344 -41.063  47.290  0.00  0.00    +0.000 A 
ATOM      5  C   UNL     1      49.651 -38.754  46.629  0.00  0.00    +0.000 A 
ATOM      6  C   UNL     1      49.299 -40.065  46.322  0.00  0.00    +0.000 A 
ENDROOT
BRANCH   6   7
ATOM      7  O   UNL     1      48.910 -40.350  45.046  0.00  0.00    +0.000 OA
ATOM      8  H   UNL     1      48.475 -39.562  44.676  0.00  0.00    +0.000 HD
ENDBRANCH   6   7
BRANCH   1   9
ATOM      9  O   UNL     1      50.507 -39.020  50.152  0.00  0.00    +0.000 OA
BRANCH   9  10
ATOM     10  C   UNL     1      49.726 -38.106  50.722  0.00  0.00    +0.000 C 
BRANCH  10  11
ATOM     11  C   UNL     1      48.882 -37.138  51.343  0.00  0.00    +0.000 A 
ATOM     12  C   UNL     1      47.539 -37.057  50.983  0.00  0.00    +0.000 A 
ATOM     13  C   UNL     1      46.715 -36.108  51.585  0.00  0.00    +0.000 A 
ATOM     14  C   UNL     1      47.236 -35.243  52.545  0.00  0.00    +0.000 A 
ATOM     15  C   UNL     1      48.580 -35.327  52.904  0.00  0.00    +0.000 A 
ATOM     16  C   UNL     1      49.404 -36.274  52.303  0.00  0.00    +0.000 A 
ENDBRANCH  10  11
ENDBRANCH   9  10
ENDBRANCH   1   9
TORSDOF 4
ENDMDL
MODEL 3
REMARK VINA RESULT:      -5.8      5.190      6.391
REMARK  Name = Monobenzone.pdbqt.pdb
REMARK  4 active torsions:
REMARK  status: ('A' for Active; 'I' for Inactive)
REMARK    1  A    between atoms: C_1  and  O_7
REMARK    2  A    between atoms: C_6  and  O_15
REMARK    3  A    between atoms: O_7  and  C_8
REMARK    4  A    between atoms: C_8  and  C_9
REMARK                            x       y       z     vdW  Elec       q    Type
REMARK                         _______ _______ _______ _____ _____    ______ ____
ROOT
ATOM      1  C   UNL     1      48.958 -36.569  48.323  0.00  0.00    +0.000 A 
ATOM      2  C   UNL     1      48.549 -36.265  49.624  0.00  0.00    +0.000 A 
ATOM      3  C   UNL     1      49.756 -37.691  48.094  0.00  0.00    +0.000 A 
ATOM      4  C   UNL     1      48.934 -37.076  50.688  0.00  0.00    +0.000 A 
ATOM      5  C   UNL     1      50.145 -38.505  49.154  0.00  0.00    +0.000 A 
ATOM      6  C   UNL     1      49.730 -38.191  50.444  0.00  0.00    +0.000 A 
ENDROOT
BRANCH   6   7
ATOM      7  O   UNL     1      50.122 -39.002  51.468  0.00  0.00    +0.000 OA
ATOM      8  H   UNL     1      49.366 -39.124  52.068  0.00  0.00    +0.000 HD
ENDBRANCH   6   7
BRANCH   1   9
ATOM      9  O   UNL     1      48.629 -35.832  47.213  0.00  0.00    +0.000 OA
BRANCH   9  10
ATOM     10  C   UNL     1      49.582 -35.006  46.788  0.00  0.00    +0.000 C 
BRANCH  10  11
ATOM     11  C   UNL     1      50.602 -34.126  46.318  0.00  0.00    +0.000 A 
ATOM     12  C   UNL     1      51.360 -34.477  45.203  0.00  0.00    +0.000 A 
ATOM     13  C   UNL     1      52.360 -33.621  44.748  0.00  0.00    +0.000 A 
ATOM     14  C   UNL     1      52.600 -32.418  45.407  0.00  0.00    +0.000 A 
ATOM     15  C   UNL     1      51.840 -32.069  46.522  0.00  0.00    +0.000 A 
ATOM     16  C   UNL     1      50.841 -32.924  46.979  0.00  0.00    +0.000 A 
ENDBRANCH  10  11
ENDBRANCH   9  10
ENDBRANCH   1   9
TORSDOF 4
ENDMDL
MODEL 4
REMARK VINA RESULT:      -5.4      5.370      7.671
REMARK  Name = Monobenzone.pdbqt.pdb
REMARK  4 active torsions:
REMARK  status: ('A' for Active; 'I' for Inactive)
REMARK    1  A    between atoms: C_1  and  O_7
REMARK    2  A    between atoms: C_6  and  O_15
REMARK    3  A    between atoms: O_7  and  C_8
REMARK    4  A    between atoms: C_8  and  C_9
REMARK                            x       y       z     vdW  Elec       q    Type
REMARK                         _______ _______ _______ _____ _____    ______ ____
ROOT
ATOM      1  C   UNL     1      49.745 -34.935  45.813  0.00  0.00    +0.000 A 
ATOM      2  C   UNL     1      50.060 -35.414  44.539  0.00  0.00    +0.000 A 
ATOM      3  C   UNL     1      50.598 -34.025  46.439  0.00  0.00    +0.000 A 
ATOM      4  C   UNL     1      51.218 -34.986  43.894  0.00  0.00    +0.000 A 
ATOM      5  C   UNL     1      51.757 -33.594  45.800  0.00  0.00    +0.000 A 
ATOM      6  C   UNL     1      52.058 -34.078  44.531  0.00  0.00    +0.000 A 
ENDROOT
BRANCH   6   7
ATOM      7  O   UNL     1      53.199 -33.642  43.923  0.00  0.00    +0.000 OA
ATOM      8  H   UNL     1      53.493 -32.830  44.372  0.00  0.00    +0.000 HD
ENDBRANCH   6   7
BRANCH   1   9
ATOM      9  O   UNL     1      48.630 -35.298  46.525  0.00  0.00    +0.000 OA
BRANCH   9  10
ATOM     10  C   UNL     1      48.870 -36.049  47.597  0.00  0.00    +0.000 C 
BRANCH  10  11
ATOM     11  C   UNL     1      49.124 -36.868  48.737  0.00  0.00    +0.000 A 
ATOM     12  C   UNL     1      49.885 -38.027  48.602  0.00  0.00    +0.000 A 
ATOM     13  C   UNL     1      50.128 -38.830  49.715  0.00  0.00    +0.000 A 
ATOM     14  C   UNL     1      49.610 -38.472  50.957  0.00  0.00    +0.000 A 
ATOM     15  C   UNL     1      48.850 -37.312  51.089  0.00  0.00    +0.000 A 
ATOM     16  C   UNL     1      48.606 -36.509  49.979  0.00  0.00    +0.000 A 
ENDBRANCH  10  11
ENDBRANCH   9  10
ENDBRANCH   1   9
TORSDOF 4
ENDMDL
MODEL 5
REMARK VINA RESULT:      -5.3      1.557      2.225
REMARK  Name = Monobenzone.pdbqt.pdb
REMARK  4 active torsions:
REMARK  status: ('A' for Active; 'I' for Inactive)
REMARK    1  A    between atoms: C_1  and  O_7
REMARK    2  A    between atoms: C_6  and  O_15
REMARK    3  A    between atoms: O_7  and  C_8
REMARK    4  A    between atoms: C_8  and  C_9
REMARK                            x       y       z     vdW  Elec       q    Type
REMARK                         _______ _______ _______ _____ _____    ______ ____
ROOT
ATOM      1  C   UNL     1      48.598 -42.644  49.925  0.00  0.00    +0.000 A 
ATOM      2  C   UNL     1      48.741 -44.027  49.784  0.00  0.00    +0.000 A 
ATOM      3  C   UNL     1      48.212 -42.111  51.155  0.00  0.00    +0.000 A 
ATOM      4  C   UNL     1      48.501 -44.870  50.865  0.00  0.00    +0.000 A 
ATOM      5  C   UNL     1      47.970 -42.950  52.240  0.00  0.00    +0.000 A 
ATOM      6  C   UNL     1      48.117 -44.324  52.086  0.00  0.00    +0.000 A 
ENDROOT
BRANCH   6   7
ATOM      7  O   UNL     1      47.875 -45.127  53.162  0.00  0.00    +0.000 OA
ATOM      8  H   UNL     1      47.945 -46.054  52.874  0.00  0.00    +0.000 HD
ENDBRANCH   6   7
BRANCH   1   9
ATOM      9  O   UNL     1      48.812 -41.735  48.919  0.00  0.00    +0.000 OA
BRANCH   9  10
ATOM     10  C   UNL     1      48.710 -40.460  49.287  0.00  0.00    +0.000 C 
BRANCH  10  11
ATOM     11  C   UNL     1      48.599 -39.098  49.697  0.00  0.00    +0.000 A 
ATOM     12  C   UNL     1      47.876 -38.776  50.843  0.00  0.00    +0.000 A 
ATOM     13  C   UNL     1      47.763 -37.445  51.240  0.00  0.00    +0.000 A 
ATOM     14  C   UNL     1      48.373 -36.441  50.491  0.00  0.00    +0.000 A 
ATOM     15  C   UNL     1      49.096 -36.766  49.346  0.00  0.00    +0.000 A 
ATOM     16  C   UNL     1      49.210 -38.096  48.947  0.00  0.00    +0.000 A 
ENDBRANCH  10  11
ENDBRANCH   9  10
ENDBRANCH   1   9
TORSDOF 4
ENDMDL
MODEL 6
REMARK VINA RESULT:      -5.2     16.549     17.781
REMARK  Name = Monobenzone.pdbqt.pdb
REMARK  4 active torsions:
REMARK  status: ('A' for Active; 'I' for Inactive)
REMARK    1  A    between atoms: C_1  and  O_7
REMARK    2  A    between atoms: C_6  and  O_15
REMARK    3  A    between atoms: O_7  and  C_8
REMARK    4  A    between atoms: C_8  and  C_9
REMARK                            x       y       z     vdW  Elec       q    Type
REMARK                         _______ _______ _______ _____ _____    ______ ____
ROOT
ATOM      1  C   UNL     1      58.842 -47.467  60.928  0.00  0.00    +0.000 A 
ATOM      2  C   UNL     1      59.525 -47.612  59.718  0.00  0.00    +0.000 A 
ATOM      3  C   UNL     1      59.138 -46.390  61.765  0.00  0.00    +0.000 A 
ATOM      4  C   UNL     1      60.497 -46.686  59.346  0.00  0.00    +0.000 A 
ATOM      5  C   UNL     1      60.110 -45.463  61.399  0.00  0.00    +0.000 A 
ATOM      6  C   UNL     1      60.781 -45.618  60.191  0.00  0.00    +0.000 A 
ENDROOT
BRANCH   6   7
ATOM      7  O   UNL     1      61.729 -44.697  59.852  0.00  0.00    +0.000 OA
ATOM      8  H   UNL     1      61.294 -43.832  59.759  0.00  0.00    +0.000 HD
ENDBRANCH   6   7
BRANCH   1   9
ATOM      9  O   UNL     1      57.870 -48.326  61.379  0.00  0.00    +0.000 OA
BRANCH   9  10
ATOM     10  C   UNL     1      57.800 -49.483  60.726  0.00  0.00    +0.000 C 
BRANCH  10  11
ATOM     11  C   UNL     1      57.738 -50.720  60.018  0.00  0.00    +0.000 A 
ATOM     12  C   UNL     1      58.260 -50.808  58.730  0.00  0.00    +0.000 A 
ATOM     13  C   UNL     1      58.195 -52.015  58.036  0.00  0.00    +0.000 A 
ATOM     14  C   UNL     1      57.609 -53.129  58.632  0.00  0.00    +0.000 A 
ATOM     15  C   UNL     1      57.089 -53.038  59.922  0.00  0.00    +0.000 A 
ATOM     16  C   UNL     1      57.153 -51.833  60.616  0.00  0.00    +0.000 A 
ENDBRANCH  10  11
ENDBRANCH   9  10
ENDBRANCH   1   9
TORSDOF 4
ENDMDL
MODEL 7
REMARK VINA RESULT:      -5.2      4.683      8.075
REMARK  Name = Monobenzone.pdbqt.pdb
REMARK  4 active torsions:
REMARK  status: ('A' for Active; 'I' for Inactive)
REMARK    1  A    between atoms: C_1  and  O_7
REMARK    2  A    between atoms: C_6  and  O_15
REMARK    3  A    between atoms: O_7  and  C_8
REMARK    4  A    between atoms: C_8  and  C_9
REMARK                            x       y       z     vdW  Elec       q    Type
REMARK                         _______ _______ _______ _____ _____    ______ ____
ROOT
ATOM      1  C   UNL     1      48.777 -45.216  50.433  0.00  0.00    +0.000 A 
ATOM      2  C   UNL     1      48.233 -45.340  51.714  0.00  0.00    +0.000 A 
ATOM      3  C   UNL     1      48.965 -43.948  49.881  0.00  0.00    +0.000 A 
ATOM      4  C   UNL     1      47.879 -44.205  52.438  0.00  0.00    +0.000 A 
ATOM      5  C   UNL     1      48.611 -42.810  50.600  0.00  0.00    +0.000 A 
ATOM      6  C   UNL     1      48.071 -42.947  51.875  0.00  0.00    +0.000 A 
ENDROOT
BRANCH   6   7
ATOM      7  O   UNL     1      47.734 -41.818  52.562  0.00  0.00    +0.000 OA
ATOM      8  H   UNL     1      47.712 -42.033  53.510  0.00  0.00    +0.000 HD
ENDBRANCH   6   7
BRANCH   1   9
ATOM      9  O   UNL     1      49.156 -46.274  49.645  0.00  0.00    +0.000 OA
BRANCH   9  10
ATOM     10  C   UNL     1      50.322 -46.118  49.022  0.00  0.00    +0.000 C 
BRANCH  10  11
ATOM     11  C   UNL     1      51.563 -45.951  48.340  0.00  0.00    +0.000 A 
ATOM     12  C   UNL     1      51.620 -45.176  47.184  0.00  0.00    +0.000 A 
ATOM     13  C   UNL     1      52.832 -45.017  46.515  0.00  0.00    +0.000 A 
ATOM     14  C   UNL     1      53.983 -45.631  47.003  0.00  0.00    +0.000 A 
ATOM     15  C   UNL     1      53.923 -46.405  48.161  0.00  0.00    +0.000 A 
ATOM     16  C   UNL     1      52.713 -46.565  48.831  0.00  0.00    +0.000 A 
ENDBRANCH  10  11
ENDBRANCH   9  10
ENDBRANCH   1   9
TORSDOF 4
ENDMDL
MODEL 8
REMARK VINA RESULT:      -5.1      3.678      7.883
REMARK  Name = Monobenzone.pdbqt.pdb
REMARK  4 active torsions:
REMARK  status: ('A' for Active; 'I' for Inactive)
REMARK    1  A    between atoms: C_1  and  O_7
REMARK    2  A    between atoms: C_6  and  O_15
REMARK    3  A    between atoms: O_7  and  C_8
REMARK    4  A    between atoms: C_8  and  C_9
REMARK                            x       y       z     vdW  Elec       q    Type
REMARK                         _______ _______ _______ _____ _____    ______ ____
ROOT
ATOM      1  C   UNL     1      49.153 -43.054  49.257  0.00  0.00    +0.000 A 
ATOM      2  C   UNL     1      48.717 -42.140  48.294  0.00  0.00    +0.000 A 
ATOM      3  C   UNL     1      48.708 -42.935  50.574  0.00  0.00    +0.000 A 
ATOM      4  C   UNL     1      47.842 -41.116  48.644  0.00  0.00    +0.000 A 
ATOM      5  C   UNL     1      47.833 -41.912  50.930  0.00  0.00    +0.000 A 
ATOM      6  C   UNL     1      47.407 -41.010  49.961  0.00  0.00    +0.000 A 
ENDROOT
BRANCH   6   7
ATOM      7  O   UNL     1      46.549 -40.016  50.333  0.00  0.00    +0.000 OA
ATOM      8  H   UNL     1      45.782 -40.422  50.773  0.00  0.00    +0.000 HD
ENDBRANCH   6   7
BRANCH   1   9
ATOM      9  O   UNL     1      50.013 -44.094  49.007  0.00  0.00    +0.000 OA
BRANCH   9  10
ATOM     10  C   UNL     1      49.758 -45.206  49.692  0.00  0.00    +0.000 C 
BRANCH  10  11
ATOM     11  C   UNL     1      49.501 -46.402  50.426  0.00  0.00    +0.000 A 
ATOM     12  C   UNL     1      50.498 -47.367  50.549  0.00  0.00    +0.000 A 
ATOM     13  C   UNL     1      50.245 -48.538  51.261  0.00  0.00    +0.000 A 
ATOM     14  C   UNL     1      48.998 -48.740  51.847  0.00  0.00    +0.000 A 
ATOM     15  C   UNL     1      48.003 -47.773  51.723  0.00  0.00    +0.000 A 
ATOM     16  C   UNL     1      48.254 -46.603  51.012  0.00  0.00    +0.000 A 
ENDBRANCH  10  11
ENDBRANCH   9  10
ENDBRANCH   1   9
TORSDOF 4
ENDMDL
MODEL 9
REMARK VINA RESULT:      -5.1     11.411     14.654
REMARK  Name = Monobenzone.pdbqt.pdb
REMARK  4 active torsions:
REMARK  status: ('A' for Active; 'I' for Inactive)
REMARK    1  A    between atoms: C_1  and  O_7
REMARK    2  A    between atoms: C_6  and  O_15
REMARK    3  A    between atoms: O_7  and  C_8
REMARK    4  A    between atoms: C_8  and  C_9
REMARK                            x       y       z     vdW  Elec       q    Type
REMARK                         _______ _______ _______ _____ _____    ______ ____
ROOT
ATOM      1  C   UNL     1      47.436 -53.800  57.202  0.00  0.00    +0.000 A 
ATOM      2  C   UNL     1      47.241 -54.809  58.148  0.00  0.00    +0.000 A 
ATOM      3  C   UNL     1      48.729 -53.361  56.915  0.00  0.00    +0.000 A 
ATOM      4  C   UNL     1      48.331 -55.377  58.802  0.00  0.00    +0.000 A 
ATOM      5  C   UNL     1      49.823 -53.926  57.566  0.00  0.00    +0.000 A 
ATOM      6  C   UNL     1      49.615 -54.930  58.506  0.00  0.00    +0.000 A 
ENDROOT
BRANCH   6   7
ATOM      7  O   UNL     1      50.701 -55.469  59.131  0.00  0.00    +0.000 OA
ATOM      8  H   UNL     1      50.860 -54.969  59.950  0.00  0.00    +0.000 HD
ENDBRANCH   6   7
BRANCH   1   9
ATOM      9  O   UNL     1      46.426 -53.181  56.508  0.00  0.00    +0.000 OA
BRANCH   9  10
ATOM     10  C   UNL     1      46.829 -52.428  55.488  0.00  0.00    +0.000 C 
BRANCH  10  11
ATOM     11  C   UNL     1      47.271 -51.632  54.389  0.00  0.00    +0.000 A 
ATOM     12  C   UNL     1      48.072 -52.199  53.401  0.00  0.00    +0.000 A 
ATOM     13  C   UNL     1      48.508 -51.420  52.331  0.00  0.00    +0.000 A 
ATOM     14  C   UNL     1      48.142 -50.079  52.252  0.00  0.00    +0.000 A 
ATOM     15  C   UNL     1      47.340 -49.514  53.242  0.00  0.00    +0.000 A 
ATOM     16  C   UNL     1      46.904 -50.291  54.312  0.00  0.00    +0.000 A 
ENDBRANCH  10  11
ENDBRANCH   9  10
ENDBRANCH   1   9
TORSDOF 4
ENDMDL
