MODEL 1
REMARK VINA RESULT:      -8.1      0.000      0.000
REMARK  Name = OTSSP167.pdbqt.pdb
REMARK  7 active torsions:
REMARK  status: ('A' for Active; 'I' for Inactive)
REMARK    1  A    between atoms: C_5  and  N_19
REMARK    2  A    between atoms: C_7  and  C_31
REMARK    3  A    between atoms: C_11  and  C_13
REMARK    4  A    between atoms: C_18  and  O_34
REMARK    5  A    between atoms: N_19  and  C_21
REMARK    6  A    between atoms: C_24  and  C_27
REMARK    7  A    between atoms: C_27  and  N_28
REMARK                            x       y       z     vdW  Elec       q    Type
REMARK                         _______ _______ _______ _____ _____    ______ ____
ROOT
ATOM      1  N   UNL     1      48.974 -42.624  49.538  0.00  0.00    +0.000 NA
ATOM      2  N   UNL     1      47.904 -44.300  52.604  0.00  0.00    +0.000 NA
ATOM      3  C   UNL     1      49.032 -44.988  50.117  0.00  0.00    +0.000 A 
ATOM      4  C   UNL     1      48.747 -43.630  50.420  0.00  0.00    +0.000 A 
ATOM      5  C   UNL     1      48.731 -45.965  51.089  0.00  0.00    +0.000 A 
ATOM      6  C   UNL     1      48.179 -43.362  51.683  0.00  0.00    +0.000 A 
ATOM      7  C   UNL     1      48.181 -45.579  52.291  0.00  0.00    +0.000 A 
ATOM      8  C   UNL     1      47.888 -42.043  51.983  0.00  0.00    +0.000 A 
ATOM      9  C   UNL     1      48.687 -41.339  49.862  0.00  0.00    +0.000 A 
ATOM     10  C   UNL     1      48.136 -41.015  51.087  0.00  0.00    +0.000 A 
ENDROOT
BRANCH   9  13
ATOM     11 CL   UNL     1      49.010 -36.336  48.615  0.00  0.00    +0.000 Cl
ATOM     12 CL   UNL     1      50.213 -40.269  45.041  0.00  0.00    +0.000 Cl
ATOM     13  C   UNL     1      49.010 -40.331  48.849  0.00  0.00    +0.000 A 
ATOM     14  C   UNL     1      49.420 -40.687  47.559  0.00  0.00    +0.000 A 
ATOM     15  C   UNL     1      48.904 -38.964  49.138  0.00  0.00    +0.000 A 
ATOM     16  C   UNL     1      49.189 -37.992  48.182  0.00  0.00    +0.000 A 
ATOM     17  C   UNL     1      49.715 -39.722  46.596  0.00  0.00    +0.000 A 
ATOM     18  C   UNL     1      49.599 -38.366  46.903  0.00  0.00    +0.000 A 
BRANCH  18  19
ATOM     19  O   UNL     1      49.886 -37.423  45.952  0.00  0.00    +0.000 OA
ATOM     20  H   UNL     1      50.393 -37.852  45.237  0.00  0.00    +0.000 HD
ENDBRANCH  18  19
ENDBRANCH   9  13
BRANCH   5  21
ATOM     21  C   UNL     1      48.937 -47.395  50.872  0.00  0.00    +0.000 C 
ATOM     22  O   UNL     1      48.244 -48.102  50.158  0.00  0.00    +0.000 OA
ATOM     23  C   UNL     1      50.009 -48.197  51.545  0.00  0.00    +0.000 C 
ENDBRANCH   5  21
BRANCH   3  24
ATOM     24  N   UNL     1      49.702 -45.396  48.920  0.00  0.00    +0.000 N 
ATOM     25  H   UNL     1      49.091 -45.491  48.103  0.00  0.00    +0.000 HD
BRANCH  24  26
ATOM     26  C   UNL     1      51.020 -45.229  48.597  0.00  0.00    +0.000 A 
ATOM     27  C   UNL     1      51.327 -44.751  47.273  0.00  0.00    +0.000 A 
ATOM     28  C   UNL     1      52.479 -45.253  46.365  0.00  0.00    +0.000 A 
ATOM     29  C   UNL     1      53.415 -46.294  46.717  0.00  0.00    +0.000 A 
ATOM     30  C   UNL     1      53.094 -46.792  48.031  0.00  0.00    +0.000 A 
ATOM     31  C   UNL     1      51.941 -46.288  48.934  0.00  0.00    +0.000 A 
BRANCH  29  32
ATOM     32  C   UNL     1      54.548 -46.666  45.960  0.00  0.00    +0.000 C 
BRANCH  32  33
ATOM     33  N   UNL     1      55.716 -47.063  45.194  0.00  0.00    +0.000 NA
ATOM     34  C   UNL     1      56.081 -45.941  44.344  0.00  0.00    +0.000 C 
ATOM     35  C   UNL     1      55.311 -48.148  44.317  0.00  0.00    +0.000 C 
ENDBRANCH  32  33
ENDBRANCH  29  32
ENDBRANCH  24  26
ENDBRANCH   3  24
TORSDOF 7
ENDMDL
MODEL 2
REMARK VINA RESULT:      -7.6      4.846      8.380
REMARK  Name = OTSSP167.pdbqt.pdb
REMARK  7 active torsions:
REMARK  status: ('A' for Active; 'I' for Inactive)
REMARK    1  A    between atoms: C_5  and  N_19
REMARK    2  A    between atoms: C_7  and  C_31
REMARK    3  A    between atoms: C_11  and  C_13
REMARK    4  A    between atoms: C_18  and  O_34
REMARK    5  A    between atoms: N_19  and  C_21
REMARK    6  A    between atoms: C_24  and  C_27
REMARK    7  A    between atoms: C_27  and  N_28
REMARK                            x       y       z     vdW  Elec       q    Type
REMARK                         _______ _______ _______ _____ _____    ______ ____
ROOT
ATOM      1  N   UNL     1      47.798 -46.381  50.853  0.00  0.00    +0.000 NA
ATOM      2  N   UNL     1      49.583 -49.534  51.323  0.00  0.00    +0.000 NA
ATOM      3  C   UNL     1      47.087 -48.414  51.989  0.00  0.00    +0.000 A 
ATOM      4  C   UNL     1      48.033 -47.657  51.246  0.00  0.00    +0.000 A 
ATOM      5  C   UNL     1      47.438 -49.723  52.379  0.00  0.00    +0.000 A 
ATOM      6  C   UNL     1      49.263 -48.283  50.953  0.00  0.00    +0.000 A 
ATOM      7  C   UNL     1      48.671 -50.227  52.028  0.00  0.00    +0.000 A 
ATOM      8  C   UNL     1      50.195 -47.551  50.240  0.00  0.00    +0.000 A 
ATOM      9  C   UNL     1      48.725 -45.689  50.147  0.00  0.00    +0.000 A 
ATOM     10  C   UNL     1      49.945 -46.251  49.824  0.00  0.00    +0.000 A 
ENDROOT
BRANCH   9  13
ATOM     11 CL   UNL     1      48.150 -40.727  51.463  0.00  0.00    +0.000 Cl
ATOM     12 CL   UNL     1      46.972 -42.524  46.456  0.00  0.00    +0.000 Cl
ATOM     13  C   UNL     1      48.348 -44.333  49.740  0.00  0.00    +0.000 A 
ATOM     14  C   UNL     1      47.890 -44.052  48.448  0.00  0.00    +0.000 A 
ATOM     15  C   UNL     1      48.422 -43.266  50.645  0.00  0.00    +0.000 A 
ATOM     16  C   UNL     1      48.050 -41.974  50.281  0.00  0.00    +0.000 A 
ATOM     17  C   UNL     1      47.521 -42.760  48.071  0.00  0.00    +0.000 A 
ATOM     18  C   UNL     1      47.598 -41.713  48.989  0.00  0.00    +0.000 A 
BRANCH  18  19
ATOM     19  O   UNL     1      47.231 -40.447  48.614  0.00  0.00    +0.000 OA
ATOM     20  H   UNL     1      48.010 -39.866  48.690  0.00  0.00    +0.000 HD
ENDBRANCH  18  19
ENDBRANCH   9  13
BRANCH   5  21
ATOM     21  C   UNL     1      46.567 -50.576  53.183  0.00  0.00    +0.000 C 
ATOM     22  O   UNL     1      45.519 -51.067  52.798  0.00  0.00    +0.000 OA
ATOM     23  C   UNL     1      46.827 -50.922  54.618  0.00  0.00    +0.000 C 
ENDBRANCH   5  21
BRANCH   3  24
ATOM     24  N   UNL     1      45.763 -47.948  52.269  0.00  0.00    +0.000 N 
ATOM     25  H   UNL     1      45.645 -47.536  53.199  0.00  0.00    +0.000 HD
BRANCH  24  26
ATOM     26  C   UNL     1      44.805 -47.555  51.375  0.00  0.00    +0.000 A 
ATOM     27  C   UNL     1      44.135 -46.304  51.622  0.00  0.00    +0.000 A 
ATOM     28  C   UNL     1      42.621 -46.025  51.433  0.00  0.00    +0.000 A 
ATOM     29  C   UNL     1      41.652 -46.997  50.986  0.00  0.00    +0.000 A 
ATOM     30  C   UNL     1      42.316 -48.257  50.763  0.00  0.00    +0.000 A 
ATOM     31  C   UNL     1      43.828 -48.530  50.954  0.00  0.00    +0.000 A 
BRANCH  29  32
ATOM     32  C   UNL     1      40.301 -46.724  50.679  0.00  0.00    +0.000 C 
BRANCH  32  33
ATOM     33  N   UNL     1      38.915 -46.424  50.366  0.00  0.00    +0.000 NA
ATOM     34  C   UNL     1      38.254 -47.684  50.065  0.00  0.00    +0.000 C 
ATOM     35  C   UNL     1      38.906 -45.636  49.145  0.00  0.00    +0.000 C 
ENDBRANCH  32  33
ENDBRANCH  29  32
ENDBRANCH  24  26
ENDBRANCH   3  24
TORSDOF 7
ENDMDL
MODEL 3
REMARK VINA RESULT:      -7.2      2.505      4.279
REMARK  Name = OTSSP167.pdbqt.pdb
REMARK  7 active torsions:
REMARK  status: ('A' for Active; 'I' for Inactive)
REMARK    1  A    between atoms: C_5  and  N_19
REMARK    2  A    between atoms: C_7  and  C_31
REMARK    3  A    between atoms: C_11  and  C_13
REMARK    4  A    between atoms: C_18  and  O_34
REMARK    5  A    between atoms: N_19  and  C_21
REMARK    6  A    between atoms: C_24  and  C_27
REMARK    7  A    between atoms: C_27  and  N_28
REMARK                            x       y       z     vdW  Elec       q    Type
REMARK                         _______ _______ _______ _____ _____    ______ ____
ROOT
ATOM      1  N   UNL     1      49.081 -42.660  49.531  0.00  0.00    +0.000 NA
ATOM      2  N   UNL     1      47.947 -44.694  52.347  0.00  0.00    +0.000 NA
ATOM      3  C   UNL     1      49.302 -45.056  49.906  0.00  0.00    +0.000 A 
ATOM      4  C   UNL     1      48.881 -43.759  50.302  0.00  0.00    +0.000 A 
ATOM      5  C   UNL     1      49.018 -46.140  50.763  0.00  0.00    +0.000 A 
ATOM      6  C   UNL     1      48.205 -43.655  51.536  0.00  0.00    +0.000 A 
ATOM      7  C   UNL     1      48.354 -45.912  51.947  0.00  0.00    +0.000 A 
ATOM      8  C   UNL     1      47.780 -42.398  51.926  0.00  0.00    +0.000 A 
ATOM      9  C   UNL     1      48.663 -41.438  49.942  0.00  0.00    +0.000 A 
ATOM     10  C   UNL     1      48.001 -41.274  51.143  0.00  0.00    +0.000 A 
ENDROOT
BRANCH   9  13
ATOM     11 CL   UNL     1      50.302 -39.861  45.303  0.00  0.00    +0.000 Cl
ATOM     12 CL   UNL     1      48.945 -36.327  49.223  0.00  0.00    +0.000 Cl
ATOM     13  C   UNL     1      48.969 -40.318  49.049  0.00  0.00    +0.000 A 
ATOM     14  C   UNL     1      48.838 -38.987  49.464  0.00  0.00    +0.000 A 
ATOM     15  C   UNL     1      49.419 -40.544  47.742  0.00  0.00    +0.000 A 
ATOM     16  C   UNL     1      49.732 -39.491  46.885  0.00  0.00    +0.000 A 
ATOM     17  C   UNL     1      49.143 -37.925  48.612  0.00  0.00    +0.000 A 
ATOM     18  C   UNL     1      49.593 -38.173  47.316  0.00  0.00    +0.000 A 
BRANCH  18  19
ATOM     19  O   UNL     1      49.895 -37.126  46.485  0.00  0.00    +0.000 OA
ATOM     20  H   UNL     1      50.330 -36.431  47.014  0.00  0.00    +0.000 HD
ENDBRANCH  18  19
ENDBRANCH   9  13
BRANCH   5  21
ATOM     21  C   UNL     1      49.362 -47.523  50.439  0.00  0.00    +0.000 C 
ATOM     22  O   UNL     1      48.948 -48.139  49.471  0.00  0.00    +0.000 OA
ATOM     23  C   UNL     1      50.238 -48.388  51.293  0.00  0.00    +0.000 C 
ENDBRANCH   5  21
BRANCH   3  24
ATOM     24  N   UNL     1      50.087 -45.297  48.733  0.00  0.00    +0.000 N 
ATOM     25  H   UNL     1      50.902 -45.898  48.885  0.00  0.00    +0.000 HD
BRANCH  24  26
ATOM     26  C   UNL     1      49.684 -45.246  47.428  0.00  0.00    +0.000 A 
ATOM     27  C   UNL     1      50.347 -44.305  46.561  0.00  0.00    +0.000 A 
ATOM     28  C   UNL     1      49.669 -43.421  45.482  0.00  0.00    +0.000 A 
ATOM     29  C   UNL     1      48.255 -43.408  45.195  0.00  0.00    +0.000 A 
ATOM     30  C   UNL     1      47.585 -44.329  46.079  0.00  0.00    +0.000 A 
ATOM     31  C   UNL     1      48.267 -45.209  47.156  0.00  0.00    +0.000 A 
BRANCH  29  32
ATOM     32  C   UNL     1      47.643 -42.714  44.128  0.00  0.00    +0.000 C 
BRANCH  32  33
ATOM     33  N   UNL     1      47.031 -41.996  43.023  0.00  0.00    +0.000 NA
ATOM     34  C   UNL     1      47.840 -40.815  42.771  0.00  0.00    +0.000 C 
ATOM     35  C   UNL     1      45.729 -41.534  43.475  0.00  0.00    +0.000 C 
ENDBRANCH  32  33
ENDBRANCH  29  32
ENDBRANCH  24  26
ENDBRANCH   3  24
TORSDOF 7
ENDMDL
MODEL 4
REMARK VINA RESULT:      -7.1      3.878      8.392
REMARK  Name = OTSSP167.pdbqt.pdb
REMARK  7 active torsions:
REMARK  status: ('A' for Active; 'I' for Inactive)
REMARK    1  A    between atoms: C_5  and  N_19
REMARK    2  A    between atoms: C_7  and  C_31
REMARK    3  A    between atoms: C_11  and  C_13
REMARK    4  A    between atoms: C_18  and  O_34
REMARK    5  A    between atoms: N_19  and  C_21
REMARK    6  A    between atoms: C_24  and  C_27
REMARK    7  A    between atoms: C_27  and  N_28
REMARK                            x       y       z     vdW  Elec       q    Type
REMARK                         _______ _______ _______ _____ _____    ______ ____
ROOT
ATOM      1  N   UNL     1      49.061 -42.491  49.444  0.00  0.00    +0.000 NA
ATOM      2  N   UNL     1      47.901 -39.529  51.241  0.00  0.00    +0.000 NA
ATOM      3  C   UNL     1      49.353 -40.134  48.906  0.00  0.00    +0.000 A 
ATOM      4  C   UNL     1      48.850 -41.181  49.724  0.00  0.00    +0.000 A 
ATOM      5  C   UNL     1      49.107 -38.803  49.300  0.00  0.00    +0.000 A 
ATOM      6  C   UNL     1      48.135 -40.801  50.880  0.00  0.00    +0.000 A 
ATOM      7  C   UNL     1      48.391 -38.557  50.450  0.00  0.00    +0.000 A 
ATOM      8  C   UNL     1      47.651 -41.813  51.689  0.00  0.00    +0.000 A 
ATOM      9  C   UNL     1      48.567 -43.462  50.250  0.00  0.00    +0.000 A 
ATOM     10  C   UNL     1      47.854 -43.152  51.391  0.00  0.00    +0.000 A 
ENDROOT
BRANCH   9  13
ATOM     11 CL   UNL     1      46.798 -48.295  49.792  0.00  0.00    +0.000 Cl
ATOM     12 CL   UNL     1      51.849 -46.930  48.269  0.00  0.00    +0.000 Cl
ATOM     13  C   UNL     1      48.821 -44.842  49.828  0.00  0.00    +0.000 A 
ATOM     14  C   UNL     1      50.056 -45.236  49.298  0.00  0.00    +0.000 A 
ATOM     15  C   UNL     1      47.832 -45.826  49.956  0.00  0.00    +0.000 A 
ATOM     16  C   UNL     1      48.062 -47.146  49.578  0.00  0.00    +0.000 A 
ATOM     17  C   UNL     1      50.296 -46.554  48.910  0.00  0.00    +0.000 A 
ATOM     18  C   UNL     1      49.297 -47.518  49.050  0.00  0.00    +0.000 A 
BRANCH  18  19
ATOM     19  O   UNL     1      49.540 -48.812  48.671  0.00  0.00    +0.000 OA
ATOM     20  H   UNL     1      48.800 -49.111  48.109  0.00  0.00    +0.000 HD
ENDBRANCH  18  19
ENDBRANCH   9  13
BRANCH   5  21
ATOM     21  C   UNL     1      49.614 -37.647  48.564  0.00  0.00    +0.000 C 
ATOM     22  O   UNL     1      50.782 -37.465  48.264  0.00  0.00    +0.000 OA
ATOM     23  C   UNL     1      48.760 -36.498  48.120  0.00  0.00    +0.000 C 
ENDBRANCH   5  21
BRANCH   3  24
ATOM     24  N   UNL     1      50.005 -40.369  47.653  0.00  0.00    +0.000 N 
ATOM     25  H   UNL     1      50.853 -40.939  47.716  0.00  0.00    +0.000 HD
BRANCH  24  26
ATOM     26  C   UNL     1      49.450 -40.355  46.403  0.00  0.00    +0.000 A 
ATOM     27  C   UNL     1      50.165 -39.658  45.364  0.00  0.00    +0.000 A 
ATOM     28  C   UNL     1      49.538 -38.756  44.270  0.00  0.00    +0.000 A 
ATOM     29  C   UNL     1      48.129 -38.472  44.142  0.00  0.00    +0.000 A 
ATOM     30  C   UNL     1      47.414 -39.147  45.196  0.00  0.00    +0.000 A 
ATOM     31  C   UNL     1      48.045 -40.047  46.287  0.00  0.00    +0.000 A 
BRANCH  29  32
ATOM     32  C   UNL     1      47.530 -37.767  43.075  0.00  0.00    +0.000 C 
BRANCH  32  33
ATOM     33  N   UNL     1      46.927 -37.049  41.966  0.00  0.00    +0.000 NA
ATOM     34  C   UNL     1      47.380 -37.684  40.739  0.00  0.00    +0.000 C 
ATOM     35  C   UNL     1      47.472 -35.701  41.974  0.00  0.00    +0.000 C 
ENDBRANCH  32  33
ENDBRANCH  29  32
ENDBRANCH  24  26
ENDBRANCH   3  24
TORSDOF 7
ENDMDL
MODEL 5
REMARK VINA RESULT:      -7.0     10.778     13.972
REMARK  Name = OTSSP167.pdbqt.pdb
REMARK  7 active torsions:
REMARK  status: ('A' for Active; 'I' for Inactive)
REMARK    1  A    between atoms: C_5  and  N_19
REMARK    2  A    between atoms: C_7  and  C_31
REMARK    3  A    between atoms: C_11  and  C_13
REMARK    4  A    between atoms: C_18  and  O_34
REMARK    5  A    between atoms: N_19  and  C_21
REMARK    6  A    between atoms: C_24  and  C_27
REMARK    7  A    between atoms: C_27  and  N_28
REMARK                            x       y       z     vdW  Elec       q    Type
REMARK                         _______ _______ _______ _____ _____    ______ ____
ROOT
ATOM      1  N   UNL     1      44.095 -54.001  56.065  0.00  0.00    +0.000 NA
ATOM      2  N   UNL     1      41.828 -56.441  57.566  0.00  0.00    +0.000 NA
ATOM      3  C   UNL     1      44.242 -55.144  58.209  0.00  0.00    +0.000 A 
ATOM      4  C   UNL     1      43.589 -54.864  56.980  0.00  0.00    +0.000 A 
ATOM      5  C   UNL     1      43.651 -56.081  59.081  0.00  0.00    +0.000 A 
ATOM      6  C   UNL     1      42.385 -55.555  56.724  0.00  0.00    +0.000 A 
ATOM      7  C   UNL     1      42.469 -56.689  58.722  0.00  0.00    +0.000 A 
ATOM      8  C   UNL     1      41.747 -55.299  55.525  0.00  0.00    +0.000 A 
ATOM      9  C   UNL     1      43.444 -53.761  54.900  0.00  0.00    +0.000 A 
ATOM     10  C   UNL     1      42.258 -54.402  54.598  0.00  0.00    +0.000 A 
ENDROOT
BRANCH   9  13
ATOM     11 CL   UNL     1      47.113 -50.196  54.179  0.00  0.00    +0.000 Cl
ATOM     12 CL   UNL     1      43.457 -51.376  50.315  0.00  0.00    +0.000 Cl
ATOM     13  C   UNL     1      44.062 -52.780  54.005  0.00  0.00    +0.000 A 
ATOM     14  C   UNL     1      43.563 -52.538  52.720  0.00  0.00    +0.000 A 
ATOM     15  C   UNL     1      45.175 -52.034  54.416  0.00  0.00    +0.000 A 
ATOM     16  C   UNL     1      45.763 -51.084  53.585  0.00  0.00    +0.000 A 
ATOM     17  C   UNL     1      44.149 -51.593  51.876  0.00  0.00    +0.000 A 
ATOM     18  C   UNL     1      45.254 -50.859  52.307  0.00  0.00    +0.000 A 
BRANCH  18  19
ATOM     19  O   UNL     1      45.823 -49.930  51.476  0.00  0.00    +0.000 OA
ATOM     20  H   UNL     1      46.584 -50.344  51.028  0.00  0.00    +0.000 HD
ENDBRANCH  18  19
ENDBRANCH   9  13
BRANCH   5  21
ATOM     21  C   UNL     1      44.255 -56.482  60.350  0.00  0.00    +0.000 C 
ATOM     22  O   UNL     1      45.426 -56.787  60.502  0.00  0.00    +0.000 OA
ATOM     23  C   UNL     1      43.493 -56.619  61.633  0.00  0.00    +0.000 C 
ENDBRANCH   5  21
BRANCH   3  24
ATOM     24  N   UNL     1      45.412 -54.444  58.647  0.00  0.00    +0.000 N 
ATOM     25  H   UNL     1      45.388 -54.149  59.628  0.00  0.00    +0.000 HD
BRANCH  24  26
ATOM     26  C   UNL     1      46.676 -54.518  58.132  0.00  0.00    +0.000 A 
ATOM     27  C   UNL     1      47.213 -53.336  57.507  0.00  0.00    +0.000 A 
ATOM     28  C   UNL     1      48.050 -53.291  56.202  0.00  0.00    +0.000 A 
ATOM     29  C   UNL     1      48.408 -54.444  55.411  0.00  0.00    +0.000 A 
ATOM     30  C   UNL     1      47.851 -55.626  56.021  0.00  0.00    +0.000 A 
ATOM     31  C   UNL     1      47.014 -55.665  57.323  0.00  0.00    +0.000 A 
BRANCH  29  32
ATOM     32  C   UNL     1      49.281 -54.435  54.301  0.00  0.00    +0.000 C 
BRANCH  32  33
ATOM     33  N   UNL     1      50.171 -54.410  53.154  0.00  0.00    +0.000 NA
ATOM     34  C   UNL     1      49.785 -55.507  52.280  0.00  0.00    +0.000 C 
ATOM     35  C   UNL     1      51.511 -54.702  53.637  0.00  0.00    +0.000 C 
ENDBRANCH  32  33
ENDBRANCH  29  32
ENDBRANCH  24  26
ENDBRANCH   3  24
TORSDOF 7
ENDMDL
MODEL 6
REMARK VINA RESULT:      -7.0      6.536     11.325
REMARK  Name = OTSSP167.pdbqt.pdb
REMARK  7 active torsions:
REMARK  status: ('A' for Active; 'I' for Inactive)
REMARK    1  A    between atoms: C_5  and  N_19
REMARK    2  A    between atoms: C_7  and  C_31
REMARK    3  A    between atoms: C_11  and  C_13
REMARK    4  A    between atoms: C_18  and  O_34
REMARK    5  A    between atoms: N_19  and  C_21
REMARK    6  A    between atoms: C_24  and  C_27
REMARK    7  A    between atoms: C_27  and  N_28
REMARK                            x       y       z     vdW  Elec       q    Type
REMARK                         _______ _______ _______ _____ _____    ______ ____
ROOT
ATOM      1  N   UNL     1      47.195 -48.359  51.752  0.00  0.00    +0.000 NA
ATOM      2  N   UNL     1      50.061 -46.735  50.172  0.00  0.00    +0.000 NA
ATOM      3  C   UNL     1      47.350 -46.175  50.687  0.00  0.00    +0.000 A 
ATOM      4  C   UNL     1      47.918 -47.405  51.114  0.00  0.00    +0.000 A 
ATOM      5  C   UNL     1      48.177 -45.261  50.003  0.00  0.00    +0.000 A 
ATOM      6  C   UNL     1      49.281 -47.617  50.818  0.00  0.00    +0.000 A 
ATOM      7  C   UNL     1      49.498 -45.579  49.776  0.00  0.00    +0.000 A 
ATOM      8  C   UNL     1      49.841 -48.816  51.220  0.00  0.00    +0.000 A 
ATOM      9  C   UNL     1      47.771 -49.522  52.144  0.00  0.00    +0.000 A 
ATOM     10  C   UNL     1      49.103 -49.783  51.887  0.00  0.00    +0.000 A 
ENDROOT
BRANCH   9  13
ATOM     11 CL   UNL     1      47.069 -52.552  56.269  0.00  0.00    +0.000 Cl
ATOM     12 CL   UNL     1      43.350 -52.195  52.303  0.00  0.00    +0.000 Cl
ATOM     13  C   UNL     1      46.905 -50.462  52.860  0.00  0.00    +0.000 A 
ATOM     14  C   UNL     1      45.668 -50.864  52.344  0.00  0.00    +0.000 A 
ATOM     15  C   UNL     1      47.299 -51.006  54.090  0.00  0.00    +0.000 A 
ATOM     16  C   UNL     1      46.497 -51.915  54.775  0.00  0.00    +0.000 A 
ATOM     17  C   UNL     1      44.853 -51.769  53.025  0.00  0.00    +0.000 A 
ATOM     18  C   UNL     1      45.266 -52.301  54.247  0.00  0.00    +0.000 A 
BRANCH  18  19
ATOM     19  O   UNL     1      44.464 -53.193  54.910  0.00  0.00    +0.000 OA
ATOM     20  H   UNL     1      44.540 -53.021  55.867  0.00  0.00    +0.000 HD
ENDBRANCH  18  19
ENDBRANCH   9  13
BRANCH   5  21
ATOM     21  C   UNL     1      47.693 -43.987  49.476  0.00  0.00    +0.000 C 
ATOM     22  O   UNL     1      47.481 -42.988  50.144  0.00  0.00    +0.000 OA
ATOM     23  C   UNL     1      47.343 -43.755  48.037  0.00  0.00    +0.000 C 
ENDBRANCH   5  21
BRANCH   3  24
ATOM     24  N   UNL     1      46.012 -45.781  51.008  0.00  0.00    +0.000 N 
ATOM     25  H   UNL     1      45.858 -44.768  51.018  0.00  0.00    +0.000 HD
BRANCH  24  26
ATOM     26  C   UNL     1      44.862 -46.504  50.846  0.00  0.00    +0.000 A 
ATOM     27  C   UNL     1      44.204 -46.433  49.567  0.00  0.00    +0.000 A 
ATOM     28  C   UNL     1      42.675 -46.337  49.329  0.00  0.00    +0.000 A 
ATOM     29  C   UNL     1      41.679 -46.295  50.372  0.00  0.00    +0.000 A 
ATOM     30  C   UNL     1      42.336 -46.340  51.654  0.00  0.00    +0.000 A 
ATOM     31  C   UNL     1      43.864 -46.434  51.886  0.00  0.00    +0.000 A 
BRANCH  29  32
ATOM     32  C   UNL     1      40.281 -46.347  50.172  0.00  0.00    +0.000 C 
BRANCH  32  33
ATOM     33  N   UNL     1      38.844 -46.416  49.977  0.00  0.00    +0.000 NA
ATOM     34  C   UNL     1      38.526 -47.773  49.564  0.00  0.00    +0.000 C 
ATOM     35  C   UNL     1      38.516 -45.544  48.861  0.00  0.00    +0.000 C 
ENDBRANCH  32  33
ENDBRANCH  29  32
ENDBRANCH  24  26
ENDBRANCH   3  24
TORSDOF 7
ENDMDL
MODEL 7
REMARK VINA RESULT:      -6.9      3.997      7.931
REMARK  Name = OTSSP167.pdbqt.pdb
REMARK  7 active torsions:
REMARK  status: ('A' for Active; 'I' for Inactive)
REMARK    1  A    between atoms: C_5  and  N_19
REMARK    2  A    between atoms: C_7  and  C_31
REMARK    3  A    between atoms: C_11  and  C_13
REMARK    4  A    between atoms: C_18  and  O_34
REMARK    5  A    between atoms: N_19  and  C_21
REMARK    6  A    between atoms: C_24  and  C_27
REMARK    7  A    between atoms: C_27  and  N_28
REMARK                            x       y       z     vdW  Elec       q    Type
REMARK                         _______ _______ _______ _____ _____    ______ ____
ROOT
ATOM      1  N   UNL     1      49.064 -42.624  49.394  0.00  0.00    +0.000 NA
ATOM      2  N   UNL     1      47.969 -39.812  51.455  0.00  0.00    +0.000 NA
ATOM      3  C   UNL     1      49.318 -40.231  49.020  0.00  0.00    +0.000 A 
ATOM      4  C   UNL     1      48.858 -41.340  49.780  0.00  0.00    +0.000 A 
ATOM      5  C   UNL     1      49.083 -38.934  49.522  0.00  0.00    +0.000 A 
ATOM      6  C   UNL     1      48.194 -41.052  50.991  0.00  0.00    +0.000 A 
ATOM      7  C   UNL     1      48.417 -38.781  50.717  0.00  0.00    +0.000 A 
ATOM      8  C   UNL     1      47.751 -42.124  51.744  0.00  0.00    +0.000 A 
ATOM      9  C   UNL     1      48.611 -43.656  50.148  0.00  0.00    +0.000 A 
ATOM     10  C   UNL     1      47.948 -43.436  51.339  0.00  0.00    +0.000 A 
ENDROOT
BRANCH   9  13
ATOM     11 CL   UNL     1      48.616 -46.803  46.050  0.00  0.00    +0.000 Cl
ATOM     12 CL   UNL     1      49.971 -48.565  51.025  0.00  0.00    +0.000 Cl
ATOM     13  C   UNL     1      48.854 -44.999  49.615  0.00  0.00    +0.000 A 
ATOM     14  C   UNL     1      49.257 -46.057  50.438  0.00  0.00    +0.000 A 
ATOM     15  C   UNL     1      48.675 -45.274  48.253  0.00  0.00    +0.000 A 
ATOM     16  C   UNL     1      48.883 -46.548  47.732  0.00  0.00    +0.000 A 
ATOM     17  C   UNL     1      49.475 -47.336  49.926  0.00  0.00    +0.000 A 
ATOM     18  C   UNL     1      49.287 -47.589  48.567  0.00  0.00    +0.000 A 
BRANCH  18  19
ATOM     19  O   UNL     1      49.498 -48.848  48.070  0.00  0.00    +0.000 OA
ATOM     20  H   UNL     1      50.066 -48.775  47.281  0.00  0.00    +0.000 HD
ENDBRANCH  18  19
ENDBRANCH   9  13
BRANCH   5  21
ATOM     21  C   UNL     1      49.550 -37.723  48.851  0.00  0.00    +0.000 C 
ATOM     22  O   UNL     1      50.657 -37.578  48.359  0.00  0.00    +0.000 OA
ATOM     23  C   UNL     1      48.736 -36.471  48.723  0.00  0.00    +0.000 C 
ENDBRANCH   5  21
BRANCH   3  24
ATOM     24  N   UNL     1      49.915 -40.367  47.725  0.00  0.00    +0.000 N 
ATOM     25  H   UNL     1      50.892 -40.674  47.738  0.00  0.00    +0.000 HD
BRANCH  24  26
ATOM     26  C   UNL     1      49.287 -40.599  46.533  0.00  0.00    +0.000 A 
ATOM     27  C   UNL     1      48.034 -39.929  46.297  0.00  0.00    +0.000 A 
ATOM     28  C   UNL     1      46.778 -40.547  45.630  0.00  0.00    +0.000 A 
ATOM     29  C   UNL     1      46.682 -41.905  45.151  0.00  0.00    +0.000 A 
ATOM     30  C   UNL     1      47.926 -42.586  45.409  0.00  0.00    +0.000 A 
ATOM     31  C   UNL     1      49.177 -41.964  46.077  0.00  0.00    +0.000 A 
BRANCH  29  32
ATOM     32  C   UNL     1      45.598 -42.440  44.420  0.00  0.00    +0.000 C 
BRANCH  32  33
ATOM     33  N   UNL     1      44.474 -42.974  43.672  0.00  0.00    +0.000 NA
ATOM     34  C   UNL     1      43.267 -42.366  44.207  0.00  0.00    +0.000 C 
ATOM     35  C   UNL     1      44.397 -44.397  43.960  0.00  0.00    +0.000 C 
ENDBRANCH  32  33
ENDBRANCH  29  32
ENDBRANCH  24  26
ENDBRANCH   3  24
TORSDOF 7
ENDMDL
MODEL 8
REMARK VINA RESULT:      -6.9      8.227     11.643
REMARK  Name = OTSSP167.pdbqt.pdb
REMARK  7 active torsions:
REMARK  status: ('A' for Active; 'I' for Inactive)
REMARK    1  A    between atoms: C_5  and  N_19
REMARK    2  A    between atoms: C_7  and  C_31
REMARK    3  A    between atoms: C_11  and  C_13
REMARK    4  A    between atoms: C_18  and  O_34
REMARK    5  A    between atoms: N_19  and  C_21
REMARK    6  A    between atoms: C_24  and  C_27
REMARK    7  A    between atoms: C_27  and  N_28
REMARK                            x       y       z     vdW  Elec       q    Type
REMARK                         _______ _______ _______ _____ _____    ______ ____
ROOT
ATOM      1  N   UNL     1      46.482 -51.455  54.199  0.00  0.00    +0.000 NA
ATOM      2  N   UNL     1      44.047 -54.163  54.494  0.00  0.00    +0.000 NA
ATOM      3  C   UNL     1      46.342 -53.246  55.843  0.00  0.00    +0.000 A 
ATOM      4  C   UNL     1      45.861 -52.551  54.701  0.00  0.00    +0.000 A 
ATOM      5  C   UNL     1      45.643 -54.395  56.268  0.00  0.00    +0.000 A 
ATOM      6  C   UNL     1      44.708 -53.072  54.075  0.00  0.00    +0.000 A 
ATOM      7  C   UNL     1      44.525 -54.803  55.576  0.00  0.00    +0.000 A 
ATOM      8  C   UNL     1      44.238 -52.410  52.955  0.00  0.00    +0.000 A 
ATOM      9  C   UNL     1      45.994 -50.820  53.105  0.00  0.00    +0.000 A 
ATOM     10  C   UNL     1      44.866 -51.279  52.454  0.00  0.00    +0.000 A 
ENDROOT
BRANCH   9  13
ATOM     11 CL   UNL     1      45.858 -45.773  52.007  0.00  0.00    +0.000 Cl
ATOM     12 CL   UNL     1      50.440 -48.688  51.552  0.00  0.00    +0.000 Cl
ATOM     13  C   UNL     1      46.722 -49.623  52.676  0.00  0.00    +0.000 A 
ATOM     14  C   UNL     1      48.082 -49.666  52.348  0.00  0.00    +0.000 A 
ATOM     15  C   UNL     1      46.070 -48.388  52.563  0.00  0.00    +0.000 A 
ATOM     16  C   UNL     1      46.742 -47.244  52.139  0.00  0.00    +0.000 A 
ATOM     17  C   UNL     1      48.767 -48.525  51.928  0.00  0.00    +0.000 A 
ATOM     18  C   UNL     1      48.098 -47.306  51.820  0.00  0.00    +0.000 A 
BRANCH  18  19
ATOM     19  O   UNL     1      48.774 -46.190  51.403  0.00  0.00    +0.000 OA
ATOM     20  H   UNL     1      49.282 -46.420  50.602  0.00  0.00    +0.000 HD
ENDBRANCH  18  19
ENDBRANCH   9  13
BRANCH   5  21
ATOM     21  C   UNL     1      46.071 -55.214  57.400  0.00  0.00    +0.000 C 
ATOM     22  O   UNL     1      45.947 -54.906  58.573  0.00  0.00    +0.000 OA
ATOM     23  C   UNL     1      46.769 -56.533  57.261  0.00  0.00    +0.000 C 
ENDBRANCH   5  21
BRANCH   3  24
ATOM     24  N   UNL     1      47.436 -52.775  56.637  0.00  0.00    +0.000 N 
ATOM     25  H   UNL     1      47.173 -52.453  57.573  0.00  0.00    +0.000 HD
BRANCH  24  26
ATOM     26  C   UNL     1      48.757 -53.111  56.529  0.00  0.00    +0.000 A 
ATOM     27  C   UNL     1      49.169 -53.825  55.347  0.00  0.00    +0.000 A 
ATOM     28  C   UNL     1      50.172 -55.006  55.296  0.00  0.00    +0.000 A 
ATOM     29  C   UNL     1      50.839 -55.573  56.444  0.00  0.00    +0.000 A 
ATOM     30  C   UNL     1      50.408 -54.878  57.631  0.00  0.00    +0.000 A 
ATOM     31  C   UNL     1      49.405 -53.699  57.676  0.00  0.00    +0.000 A 
BRANCH  29  32
ATOM     32  C   UNL     1      51.854 -56.554  56.398  0.00  0.00    +0.000 C 
BRANCH  32  33
ATOM     33  N   UNL     1      52.904 -57.557  56.369  0.00  0.00    +0.000 NA
ATOM     34  C   UNL     1      53.745 -57.341  57.535  0.00  0.00    +0.000 C 
ATOM     35  C   UNL     1      53.724 -57.294  55.198  0.00  0.00    +0.000 C 
ENDBRANCH  32  33
ENDBRANCH  29  32
ENDBRANCH  24  26
ENDBRANCH   3  24
TORSDOF 7
ENDMDL
MODEL 9
REMARK VINA RESULT:      -6.7      6.292     10.909
REMARK  Name = OTSSP167.pdbqt.pdb
REMARK  7 active torsions:
REMARK  status: ('A' for Active; 'I' for Inactive)
REMARK    1  A    between atoms: C_5  and  N_19
REMARK    2  A    between atoms: C_7  and  C_31
REMARK    3  A    between atoms: C_11  and  C_13
REMARK    4  A    between atoms: C_18  and  O_34
REMARK    5  A    between atoms: N_19  and  C_21
REMARK    6  A    between atoms: C_24  and  C_27
REMARK    7  A    between atoms: C_27  and  N_28
REMARK                            x       y       z     vdW  Elec       q    Type
REMARK                         _______ _______ _______ _____ _____    ______ ____
ROOT
ATOM      1  N   UNL     1      47.166 -48.249  51.925  0.00  0.00    +0.000 NA
ATOM      2  N   UNL     1      49.989 -46.576  50.319  0.00  0.00    +0.000 NA
ATOM      3  C   UNL     1      47.341 -45.978  51.064  0.00  0.00    +0.000 A 
ATOM      4  C   UNL     1      47.885 -47.262  51.334  0.00  0.00    +0.000 A 
ATOM      5  C   UNL     1      48.159 -45.030  50.416  0.00  0.00    +0.000 A 
ATOM      6  C   UNL     1      49.217 -47.490  50.929  0.00  0.00    +0.000 A 
ATOM      7  C   UNL     1      49.449 -45.369  50.072  0.00  0.00    +0.000 A 
ATOM      8  C   UNL     1      49.753 -48.741  51.177  0.00  0.00    +0.000 A 
ATOM      9  C   UNL     1      47.719 -49.463  52.165  0.00  0.00    +0.000 A 
ATOM     10  C   UNL     1      49.021 -49.743  51.797  0.00  0.00    +0.000 A 
ENDROOT
BRANCH   9  13
ATOM     11 CL   UNL     1      43.280 -52.106  52.216  0.00  0.00    +0.000 Cl
ATOM     12 CL   UNL     1      46.964 -52.604  56.200  0.00  0.00    +0.000 Cl
ATOM     13  C   UNL     1      46.863 -50.439  52.845  0.00  0.00    +0.000 A 
ATOM     14  C   UNL     1      47.235 -51.024  54.061  0.00  0.00    +0.000 A 
ATOM     15  C   UNL     1      45.627 -50.811  52.302  0.00  0.00    +0.000 A 
ATOM     16  C   UNL     1      44.793 -51.723  52.943  0.00  0.00    +0.000 A 
ATOM     17  C   UNL     1      46.410 -51.943  54.710  0.00  0.00    +0.000 A 
ATOM     18  C   UNL     1      45.181 -52.297  54.153  0.00  0.00    +0.000 A 
BRANCH  18  19
ATOM     19  O   UNL     1      44.373 -53.198  54.796  0.00  0.00    +0.000 OA
ATOM     20  H   UNL     1      43.649 -53.447  54.191  0.00  0.00    +0.000 HD
ENDBRANCH  18  19
ENDBRANCH   9  13
BRANCH   5  21
ATOM     21  C   UNL     1      47.694 -43.695  50.046  0.00  0.00    +0.000 C 
ATOM     22  O   UNL     1      47.212 -42.883  50.818  0.00  0.00    +0.000 OA
ATOM     23  C   UNL     1      47.704 -43.164  48.645  0.00  0.00    +0.000 C 
ENDBRANCH   5  21
BRANCH   3  24
ATOM     24  N   UNL     1      46.042 -45.572  51.510  0.00  0.00    +0.000 N 
ATOM     25  H   UNL     1      46.031 -44.698  52.043  0.00  0.00    +0.000 HD
BRANCH  24  26
ATOM     26  C   UNL     1      44.830 -45.893  50.965  0.00  0.00    +0.000 A 
ATOM     27  C   UNL     1      43.929 -46.685  51.763  0.00  0.00    +0.000 A 
ATOM     28  C   UNL     1      43.041 -47.850  51.254  0.00  0.00    +0.000 A 
ATOM     29  C   UNL     1      42.998 -48.321  49.891  0.00  0.00    +0.000 A 
ATOM     30  C   UNL     1      43.917 -47.547  49.095  0.00  0.00    +0.000 A 
ATOM     31  C   UNL     1      44.803 -46.385  49.609  0.00  0.00    +0.000 A 
BRANCH  29  32
ATOM     32  C   UNL     1      42.098 -49.285  49.386  0.00  0.00    +0.000 C 
BRANCH  32  33
ATOM     33  N   UNL     1      41.171 -50.285  48.884  0.00  0.00    +0.000 NA
ATOM     34  C   UNL     1      40.281 -50.640  49.978  0.00  0.00    +0.000 C 
ATOM     35  C   UNL     1      41.946 -51.472  48.564  0.00  0.00    +0.000 C 
ENDBRANCH  32  33
ENDBRANCH  29  32
ENDBRANCH  24  26
ENDBRANCH   3  24
TORSDOF 7
ENDMDL
