MODEL 1
REMARK VINA RESULT:      -6.1      0.000      0.000
REMARK  Name = 
REMARK  0 active torsions:
REMARK  status: ('A' for Active; 'I' for Inactive)
REMARK                            x       y       z     vdW  Elec       q    Type
REMARK                         _______ _______ _______ _____ _____    ______ ____
ROOT
ATOM      1  O   UNL     1      47.196 -40.722  47.001  0.00  0.00    +0.000 OA
ATOM      2  O   UNL     1      48.797 -35.923  48.248  0.00  0.00    +0.000 OA
ATOM      3  N   UNL     1      48.311 -41.499  46.848  0.00  0.00    +0.000 N 
ATOM      4  N   UNL     1      49.048 -38.204  48.552  0.00  0.00    +0.000 N 
ATOM      5  C   UNL     1      49.581 -40.844  47.425  0.00  0.00    +0.000 C 
ATOM      6  C   UNL     1      49.506 -40.620  48.948  0.00  0.00    +0.000 C 
ATOM      7  C   UNL     1      49.983 -39.558  46.693  0.00  0.00    +0.000 C 
ATOM      8  C   UNL     1      48.623 -39.395  49.321  0.00  0.00    +0.000 C 
ATOM      9  C   UNL     1      49.147 -41.942  49.650  0.00  0.00    +0.000 C 
ATOM     10  C   UNL     1      49.105 -38.374  47.097  0.00  0.00    +0.000 C 
ATOM     11  C   UNL     1      48.070 -42.814  47.557  0.00  0.00    +0.000 C 
ATOM     12  C   UNL     1      50.040 -39.763  45.174  0.00  0.00    +0.000 C 
ATOM     13  C   UNL     1      48.518 -41.755  45.370  0.00  0.00    +0.000 C 
ATOM     14  C   UNL     1      47.913 -42.613  49.060  0.00  0.00    +0.000 C 
ATOM     15  C   UNL     1      48.808 -40.464  44.615  0.00  0.00    +0.000 C 
ATOM     16  C   UNL     1      48.652 -39.144  50.837  0.00  0.00    +0.000 C 
ATOM     17  C   UNL     1      47.933 -37.850  51.169  0.00  0.00    +0.000 C 
ATOM     18  C   UNL     1      48.786 -36.905  48.994  0.00  0.00    +0.000 C 
ATOM     19  C   UNL     1      48.642 -36.704  50.485  0.00  0.00    +0.000 C 
ENDROOT
TORSDOF 0
ENDMDL
MODEL 2
REMARK VINA RESULT:      -6.0      1.853      3.516
REMARK  Name = 
REMARK  0 active torsions:
REMARK  status: ('A' for Active; 'I' for Inactive)
REMARK                            x       y       z     vdW  Elec       q    Type
REMARK                         _______ _______ _______ _____ _____    ______ ____
ROOT
ATOM      1  O   UNL     1      47.111 -40.433  49.037  0.00  0.00    +0.000 OA
ATOM      2  O   UNL     1      48.834 -38.823  44.391  0.00  0.00    +0.000 OA
ATOM      3  N   UNL     1      48.164 -41.019  49.683  0.00  0.00    +0.000 N 
ATOM      4  N   UNL     1      49.238 -39.014  46.662  0.00  0.00    +0.000 N 
ATOM      5  C   UNL     1      49.522 -40.699  49.029  0.00  0.00    +0.000 C 
ATOM      6  C   UNL     1      49.870 -39.198  49.064  0.00  0.00    +0.000 C 
ATOM      7  C   UNL     1      49.658 -41.269  47.612  0.00  0.00    +0.000 C 
ATOM      8  C   UNL     1      49.086 -38.386  47.994  0.00  0.00    +0.000 C 
ATOM      9  C   UNL     1      49.767 -38.675  50.508  0.00  0.00    +0.000 C 
ATOM     10  C   UNL     1      48.889 -40.436  46.587  0.00  0.00    +0.000 C 
ATOM     11  C   UNL     1      48.176 -40.519  51.113  0.00  0.00    +0.000 C 
ATOM     12  C   UNL     1      49.293 -42.758  47.561  0.00  0.00    +0.000 C 
ATOM     13  C   UNL     1      47.955 -42.519  49.677  0.00  0.00    +0.000 C 
ATOM     14  C   UNL     1      48.441 -39.020  51.174  0.00  0.00    +0.000 C 
ATOM     15  C   UNL     1      47.977 -43.079  48.261  0.00  0.00    +0.000 C 
ATOM     16  C   UNL     1      49.531 -36.915  47.992  0.00  0.00    +0.000 C 
ATOM     17  C   UNL     1      48.891 -36.174  46.834  0.00  0.00    +0.000 C 
ATOM     18  C   UNL     1      49.066 -38.292  45.479  0.00  0.00    +0.000 C 
ATOM     19  C   UNL     1      49.340 -36.806  45.537  0.00  0.00    +0.000 C 
ENDROOT
TORSDOF 0
ENDMDL
MODEL 3
REMARK VINA RESULT:      -5.9      3.636      6.480
REMARK  Name = 
REMARK  0 active torsions:
REMARK  status: ('A' for Active; 'I' for Inactive)
REMARK                            x       y       z     vdW  Elec       q    Type
REMARK                         _______ _______ _______ _____ _____    ______ ____
ROOT
ATOM      1  O   UNL     1      47.310 -43.111  48.390  0.00  0.00    +0.000 OA
ATOM      2  O   UNL     1      46.467 -45.679  52.845  0.00  0.00    +0.000 OA
ATOM      3  N   UNL     1      48.453 -42.379  48.550  0.00  0.00    +0.000 N 
ATOM      4  N   UNL     1      47.997 -44.984  51.254  0.00  0.00    +0.000 N 
ATOM      5  C   UNL     1      49.276 -42.813  49.779  0.00  0.00    +0.000 C 
ATOM      6  C   UNL     1      49.789 -44.263  49.682  0.00  0.00    +0.000 C 
ATOM      7  C   UNL     1      48.550 -42.568  51.108  0.00  0.00    +0.000 C 
ATOM      8  C   UNL     1      48.672 -45.305  49.976  0.00  0.00    +0.000 C 
ATOM      9  C   UNL     1      50.550 -44.455  48.357  0.00  0.00    +0.000 C 
ATOM     10  C   UNL     1      47.473 -43.619  51.370  0.00  0.00    +0.000 C 
ATOM     11  C   UNL     1      49.299 -42.550  47.306  0.00  0.00    +0.000 C 
ATOM     12  C   UNL     1      48.016 -41.133  51.207  0.00  0.00    +0.000 C 
ATOM     13  C   UNL     1      48.072 -40.921  48.702  0.00  0.00    +0.000 C 
ATOM     14  C   UNL     1      49.757 -43.994  47.141  0.00  0.00    +0.000 C 
ATOM     15  C   UNL     1      47.253 -40.688  49.965  0.00  0.00    +0.000 C 
ATOM     16  C   UNL     1      49.242 -46.732  49.967  0.00  0.00    +0.000 C 
ATOM     17  C   UNL     1      48.188 -47.721  50.425  0.00  0.00    +0.000 C 
ATOM     18  C   UNL     1      47.317 -45.952  51.995  0.00  0.00    +0.000 C 
ATOM     19  C   UNL     1      47.778 -47.384  51.840  0.00  0.00    +0.000 C 
ENDROOT
TORSDOF 0
ENDMDL
MODEL 4
REMARK VINA RESULT:      -5.8      6.033      8.654
REMARK  Name = 
REMARK  0 active torsions:
REMARK  status: ('A' for Active; 'I' for Inactive)
REMARK                            x       y       z     vdW  Elec       q    Type
REMARK                         _______ _______ _______ _____ _____    ______ ____
ROOT
ATOM      1  O   UNL     1      46.803 -48.115  49.959  0.00  0.00    +0.000 OA
ATOM      2  O   UNL     1      51.660 -46.863  48.547  0.00  0.00    +0.000 OA
ATOM      3  N   UNL     1      46.808 -48.309  51.312  0.00  0.00    +0.000 N 
ATOM      4  N   UNL     1      49.941 -46.592  50.073  0.00  0.00    +0.000 N 
ATOM      5  C   UNL     1      48.078 -47.763  51.992  0.00  0.00    +0.000 C 
ATOM      6  C   UNL     1      48.231 -46.236  51.848  0.00  0.00    +0.000 C 
ATOM      7  C   UNL     1      49.355 -48.493  51.559  0.00  0.00    +0.000 C 
ATOM      8  C   UNL     1      48.728 -45.823  50.434  0.00  0.00    +0.000 C 
ATOM      9  C   UNL     1      46.947 -45.539  52.336  0.00  0.00    +0.000 C 
ATOM     10  C   UNL     1      49.822 -48.050  50.173  0.00  0.00    +0.000 C 
ATOM     11  C   UNL     1      45.598 -47.608  51.892  0.00  0.00    +0.000 C 
ATOM     12  C   UNL     1      49.208 -50.015  51.677  0.00  0.00    +0.000 C 
ATOM     13  C   UNL     1      46.704 -49.796  51.583  0.00  0.00    +0.000 C 
ATOM     14  C   UNL     1      45.685 -46.099  51.695  0.00  0.00    +0.000 C 
ATOM     15  C   UNL     1      47.921 -50.544  51.055  0.00  0.00    +0.000 C 
ATOM     16  C   UNL     1      48.962 -44.306  50.359  0.00  0.00    +0.000 C 
ATOM     17  C   UNL     1      49.610 -43.939  49.038  0.00  0.00    +0.000 C 
ATOM     18  C   UNL     1      50.856 -46.128  49.125  0.00  0.00    +0.000 C 
ATOM     19  C   UNL     1      50.950 -44.631  48.938  0.00  0.00    +0.000 C 
ENDROOT
TORSDOF 0
ENDMDL
MODEL 5
REMARK VINA RESULT:      -5.8     17.619     19.375
REMARK  Name = 
REMARK  0 active torsions:
REMARK  status: ('A' for Active; 'I' for Inactive)
REMARK                            x       y       z     vdW  Elec       q    Type
REMARK                         _______ _______ _______ _____ _____    ______ ____
ROOT
ATOM      1  O   UNL     1      60.780 -50.925  61.173  0.00  0.00    +0.000 OA
ATOM      2  O   UNL     1      59.440 -45.944  61.914  0.00  0.00    +0.000 OA
ATOM      3  N   UNL     1      59.633 -51.623  60.916  0.00  0.00    +0.000 N 
ATOM      4  N   UNL     1      59.148 -47.880  60.679  0.00  0.00    +0.000 N 
ATOM      5  C   UNL     1      58.439 -50.710  60.576  0.00  0.00    +0.000 C 
ATOM      6  C   UNL     1      58.655 -49.888  59.290  0.00  0.00    +0.000 C 
ATOM      7  C   UNL     1      58.013 -49.814  61.745  0.00  0.00    +0.000 C 
ATOM      8  C   UNL     1      59.604 -48.677  59.517  0.00  0.00    +0.000 C 
ATOM      9  C   UNL     1      59.035 -50.828  58.131  0.00  0.00    +0.000 C 
ATOM     10  C   UNL     1      58.958 -48.627  61.926  0.00  0.00    +0.000 C 
ATOM     11  C   UNL     1      59.896 -52.546  59.745  0.00  0.00    +0.000 C 
ATOM     12  C   UNL     1      57.816 -50.619  63.036  0.00  0.00    +0.000 C 
ATOM     13  C   UNL     1      59.289 -52.449  62.139  0.00  0.00    +0.000 C 
ATOM     14  C   UNL     1      60.190 -51.759  58.474  0.00  0.00    +0.000 C 
ATOM     15  C   UNL     1      58.973 -51.563  63.338  0.00  0.00    +0.000 C 
ATOM     16  C   UNL     1      59.717 -47.826  58.242  0.00  0.00    +0.000 C 
ATOM     17  C   UNL     1      60.501 -46.559  58.524  0.00  0.00    +0.000 C 
ATOM     18  C   UNL     1      59.488 -46.534  60.832  0.00  0.00    +0.000 C 
ATOM     19  C   UNL     1      59.769 -45.750  59.570  0.00  0.00    +0.000 C 
ENDROOT
TORSDOF 0
ENDMDL
MODEL 6
REMARK VINA RESULT:      -5.8     18.177     19.498
REMARK  Name = 
REMARK  0 active torsions:
REMARK  status: ('A' for Active; 'I' for Inactive)
REMARK                            x       y       z     vdW  Elec       q    Type
REMARK                         _______ _______ _______ _____ _____    ______ ____
ROOT
ATOM      1  O   UNL     1      59.298 -47.278  59.202  0.00  0.00    +0.000 OA
ATOM      2  O   UNL     1      56.896 -51.729  60.456  0.00  0.00    +0.000 OA
ATOM      3  N   UNL     1      60.248 -47.043  60.157  0.00  0.00    +0.000 N 
ATOM      4  N   UNL     1      58.893 -50.571  60.283  0.00  0.00    +0.000 N 
ATOM      5  C   UNL     1      60.540 -48.279  61.029  0.00  0.00    +0.000 C 
ATOM      6  C   UNL     1      61.122 -49.460  60.226  0.00  0.00    +0.000 C 
ATOM      7  C   UNL     1      59.339 -48.719  61.874  0.00  0.00    +0.000 C 
ATOM      8  C   UNL     1      60.032 -50.210  59.408  0.00  0.00    +0.000 C 
ATOM      9  C   UNL     1      62.352 -48.990  59.429  0.00  0.00    +0.000 C 
ATOM     10  C   UNL     1      58.299 -49.466  61.041  0.00  0.00    +0.000 C 
ATOM     11  C   UNL     1      61.523 -46.621  59.457  0.00  0.00    +0.000 C 
ATOM     12  C   UNL     1      58.739 -47.547  62.661  0.00  0.00    +0.000 C 
ATOM     13  C   UNL     1      59.767 -45.916  61.046  0.00  0.00    +0.000 C 
ATOM     14  C   UNL     1      62.080 -47.746  58.593  0.00  0.00    +0.000 C 
ATOM     15  C   UNL     1      58.506 -46.306  61.807  0.00  0.00    +0.000 C 
ATOM     16  C   UNL     1      60.629 -51.437  58.701  0.00  0.00    +0.000 C 
ATOM     17  C   UNL     1      59.530 -52.256  58.052  0.00  0.00    +0.000 C 
ATOM     18  C   UNL     1      58.025 -51.620  59.972  0.00  0.00    +0.000 C 
ATOM     19  C   UNL     1      58.580 -52.741  59.124  0.00  0.00    +0.000 C 
ENDROOT
TORSDOF 0
ENDMDL
MODEL 7
REMARK VINA RESULT:      -5.7     15.584     18.071
REMARK  Name = 
REMARK  0 active torsions:
REMARK  status: ('A' for Active; 'I' for Inactive)
REMARK                            x       y       z     vdW  Elec       q    Type
REMARK                         _______ _______ _______ _____ _____    ______ ____
ROOT
ATOM      1  O   UNL     1      45.945 -55.547  55.469  0.00  0.00    +0.000 OA
ATOM      2  O   UNL     1      48.736 -56.907  59.653  0.00  0.00    +0.000 OA
ATOM      3  N   UNL     1      45.282 -54.392  55.777  0.00  0.00    +0.000 N 
ATOM      4  N   UNL     1      48.021 -55.209  58.253  0.00  0.00    +0.000 N 
ATOM      5  C   UNL     1      45.830 -53.706  57.043  0.00  0.00    +0.000 C 
ATOM      6  C   UNL     1      47.295 -53.250  56.897  0.00  0.00    +0.000 C 
ATOM      7  C   UNL     1      45.631 -54.539  58.315  0.00  0.00    +0.000 C 
ATOM      8  C   UNL     1      48.296 -54.434  57.022  0.00  0.00    +0.000 C 
ATOM      9  C   UNL     1      47.443 -52.380  55.635  0.00  0.00    +0.000 C 
ATOM     10  C   UNL     1      46.642 -55.681  58.412  0.00  0.00    +0.000 C 
ATOM     11  C   UNL     1      45.417 -53.444  54.605  0.00  0.00    +0.000 C 
ATOM     12  C   UNL     1      44.180 -55.017  58.461  0.00  0.00    +0.000 C 
ATOM     13  C   UNL     1      43.818 -54.722  55.990  0.00  0.00    +0.000 C 
ATOM     14  C   UNL     1      46.870 -53.037  54.387  0.00  0.00    +0.000 C 
ATOM     15  C   UNL     1      43.623 -55.642  57.188  0.00  0.00    +0.000 C 
ATOM     16  C   UNL     1      49.747 -53.929  56.969  0.00  0.00    +0.000 C 
ATOM     17  C   UNL     1      50.709 -55.063  57.267  0.00  0.00    +0.000 C 
ATOM     18  C   UNL     1      48.999 -55.996  58.866  0.00  0.00    +0.000 C 
ATOM     19  C   UNL     1      50.439 -55.585  58.659  0.00  0.00    +0.000 C 
ENDROOT
TORSDOF 0
ENDMDL
MODEL 8
REMARK VINA RESULT:      -5.7     18.246     20.332
REMARK  Name = 
REMARK  0 active torsions:
REMARK  status: ('A' for Active; 'I' for Inactive)
REMARK                            x       y       z     vdW  Elec       q    Type
REMARK                         _______ _______ _______ _____ _____    ______ ____
ROOT
ATOM      1  O   UNL     1      57.532 -49.126  60.348  0.00  0.00    +0.000 OA
ATOM      2  O   UNL     1      56.508 -52.476  64.205  0.00  0.00    +0.000 OA
ATOM      3  N   UNL     1      58.884 -48.920  60.333  0.00  0.00    +0.000 N 
ATOM      4  N   UNL     1      57.884 -51.901  62.435  0.00  0.00    +0.000 N 
ATOM      5  C   UNL     1      59.658 -49.964  61.161  0.00  0.00    +0.000 C 
ATOM      6  C   UNL     1      59.508 -51.398  60.616  0.00  0.00    +0.000 C 
ATOM      7  C   UNL     1      59.341 -49.903  62.660  0.00  0.00    +0.000 C 
ATOM      8  C   UNL     1      58.134 -52.028  60.982  0.00  0.00    +0.000 C 
ATOM      9  C   UNL     1      59.880 -51.426  59.122  0.00  0.00    +0.000 C 
ATOM     10  C   UNL     1      57.992 -50.545  62.983  0.00  0.00    +0.000 C 
ATOM     11  C   UNL     1      59.354 -48.983  58.896  0.00  0.00    +0.000 C 
ATOM     12  C   UNL     1      59.466 -48.476  63.209  0.00  0.00    +0.000 C 
ATOM     13  C   UNL     1      59.164 -47.541  60.894  0.00  0.00    +0.000 C 
ATOM     14  C   UNL     1      59.145 -50.372  58.305  0.00  0.00    +0.000 C 
ATOM     15  C   UNL     1      58.747 -47.438  62.355  0.00  0.00    +0.000 C 
ATOM     16  C   UNL     1      58.060 -53.488  60.508  0.00  0.00    +0.000 C 
ATOM     17  C   UNL     1      56.791 -54.142  61.022  0.00  0.00    +0.000 C 
ATOM     18  C   UNL     1      57.009 -52.752  63.113  0.00  0.00    +0.000 C 
ATOM     19  C   UNL     1      56.810 -54.134  62.533  0.00  0.00    +0.000 C 
ENDROOT
TORSDOF 0
ENDMDL
MODEL 9
REMARK VINA RESULT:      -5.7     15.264     18.009
REMARK  Name = 
REMARK  0 active torsions:
REMARK  status: ('A' for Active; 'I' for Inactive)
REMARK                            x       y       z     vdW  Elec       q    Type
REMARK                         _______ _______ _______ _____ _____    ______ ____
ROOT
ATOM      1  O   UNL     1      44.072 -56.675  55.641  0.00  0.00    +0.000 OA
ATOM      2  O   UNL     1      47.772 -53.366  57.225  0.00  0.00    +0.000 OA
ATOM      3  N   UNL     1      42.909 -56.317  56.264  0.00  0.00    +0.000 N 
ATOM      4  N   UNL     1      45.585 -53.658  56.526  0.00  0.00    +0.000 N 
ATOM      5  C   UNL     1      42.976 -54.914  56.898  0.00  0.00    +0.000 C 
ATOM      6  C   UNL     1      43.188 -53.793  55.862  0.00  0.00    +0.000 C 
ATOM      7  C   UNL     1      43.995 -54.816  58.040  0.00  0.00    +0.000 C 
ATOM      8  C   UNL     1      44.662 -53.716  55.370  0.00  0.00    +0.000 C 
ATOM      9  C   UNL     1      42.120 -53.898  54.758  0.00  0.00    +0.000 C 
ATOM     10  C   UNL     1      45.428 -54.725  57.519  0.00  0.00    +0.000 C 
ATOM     11  C   UNL     1      41.798 -56.341  55.236  0.00  0.00    +0.000 C 
ATOM     12  C   UNL     1      43.806 -55.940  59.067  0.00  0.00    +0.000 C 
ATOM     13  C   UNL     1      42.612 -57.333  57.347  0.00  0.00    +0.000 C 
ATOM     14  C   UNL     1      42.023 -55.292  54.153  0.00  0.00    +0.000 C 
ATOM     15  C   UNL     1      43.682 -57.320  58.432  0.00  0.00    +0.000 C 
ATOM     16  C   UNL     1      44.857 -52.527  54.415  0.00  0.00    +0.000 C 
ATOM     17  C   UNL     1      46.326 -52.357  54.081  0.00  0.00    +0.000 C 
ATOM     18  C   UNL     1      46.870 -53.121  56.421  0.00  0.00    +0.000 C 
ATOM     19  C   UNL     1      47.090 -52.073  55.354  0.00  0.00    +0.000 C 
ENDROOT
TORSDOF 0
ENDMDL
