MODEL 1
REMARK VINA RESULT:      -7.3      0.000      0.000
REMARK  Name = 
REMARK  23 active torsions:
REMARK  status: ('A' for Active; 'I' for Inactive)
REMARK    1  A    between atoms: O_2  and  C_17
REMARK    2  A    between atoms: O_2  and  C_36
REMARK    3  A    between atoms: O_3  and  C_20
REMARK    4  A    between atoms: O_3  and  C_37
REMARK    5  A    between atoms: O_4  and  C_21
REMARK    6  A    between atoms: O_5  and  C_22
REMARK    7  A    between atoms: O_6  and  C_30
REMARK    8  A    between atoms: O_6  and  C_39
REMARK    9  A    between atoms: O_8  and  C_31
REMARK   10  A    between atoms: O_8  and  C_40
REMARK   11  A    between atoms: O_13  and  C_42
REMARK   12  A    between atoms: N_15  and  C_46
REMARK   13  A    between atoms: C_18  and  C_29
REMARK   14  A    between atoms: C_24  and  C_33
REMARK   15  A    between atoms: C_24  and  C_34
REMARK   16  A    between atoms: C_32  and  C_35
REMARK   17  A    between atoms: C_36  and  C_38
REMARK   18  A    between atoms: C_37  and  C_41
REMARK   19  A    between atoms: C_39  and  C_43
REMARK   20  A    between atoms: C_40  and  C_42
REMARK   21  A    between atoms: C_42  and  C_46
REMARK   22  A    between atoms: C_46  and  C_50
REMARK   23  A    between atoms: C_53  and  C_56
REMARK                            x       y       z     vdW  Elec       q    Type
REMARK                         _______ _______ _______ _____ _____    ______ ____
ROOT
ATOM      1  O   UNL     1      53.858 -47.162  45.775  0.00  0.00    +0.000 OA
ATOM      2  O   UNL     1      50.569 -42.097  42.949  0.00  0.00    +0.000 OA
ATOM      3  C   UNL     1      51.474 -44.735  46.295  0.00  0.00    +0.000 C 
ATOM      4  C   UNL     1      51.991 -46.200  46.187  0.00  0.00    +0.000 C 
ATOM      5  C   UNL     1      50.966 -44.196  44.549  0.00  0.00    +0.000 C 
ATOM      6  C   UNL     1      53.295 -45.891  45.345  0.00  0.00    +0.000 C 
ATOM      7  C   UNL     1      50.355 -44.498  47.768  0.00  0.00    +0.000 C 
ATOM      8  C   UNL     1      49.284 -43.189  48.620  0.00  0.00    +0.000 C 
ATOM      9  C   UNL     1      52.302 -44.316  43.702  0.00  0.00    +0.000 C 
ATOM     10  C   UNL     1      53.087 -45.652  43.867  0.00  0.00    +0.000 C 
ATOM     11  C   UNL     1      48.787 -41.598  48.011  0.00  0.00    +0.000 C 
ATOM     12  C   UNL     1      53.092 -46.961  47.025  0.00  0.00    +0.000 C 
ATOM     13  C   UNL     1      50.179 -42.564  44.041  0.00  0.00    +0.000 C 
ATOM     14  C   UNL     1      47.849 -43.862  48.820  0.00  0.00    +0.000 C 
ATOM     15  C   UNL     1      48.076 -41.704  46.576  0.00  0.00    +0.000 C 
ATOM     16  C   UNL     1      50.006 -45.242  43.844  0.00  0.00    +0.000 C 
ATOM     17  C   UNL     1      48.879 -41.506  44.980  0.00  0.00    +0.000 C 
ATOM     18  C   UNL     1      46.716 -43.569  47.736  0.00  0.00    +0.000 C 
ATOM     19  C   UNL     1      46.936 -42.472  46.632  0.00  0.00    +0.000 C 
ATOM     20  C   UNL     1      47.687 -41.040  49.047  0.00  0.00    +0.000 C 
ATOM     21  C   UNL     1      49.756 -40.383  48.174  0.00  0.00    +0.000 C 
ATOM     22  C   UNL     1      45.939 -42.523  45.501  0.00  0.00    +0.000 C 
ENDROOT
BRANCH   9  23
ATOM     23  O   UNL     1      53.189 -43.264  44.081  0.00  0.00    +0.000 OA
ATOM     24  H   UNL     1      53.670 -43.581  44.872  0.00  0.00    +0.000 HD
ENDBRANCH   9  23
BRANCH   8  25
ATOM     25  O   UNL     1      49.847 -43.024  49.935  0.00  0.00    +0.000 OA
ATOM     26  H   UNL     1      49.583 -43.781  50.486  0.00  0.00    +0.000 HD
ENDBRANCH   8  25
BRANCH  18  27
ATOM     27  O   UNL     1      46.437 -44.814  47.030  0.00  0.00    +0.000 OA
BRANCH  27  29
ATOM     28  O   UNL     1      44.238 -45.106  47.476  0.00  0.00    +0.000 OA
ATOM     29  C   UNL     1      45.382 -45.547  47.470  0.00  0.00    +0.000 C 
BRANCH  29  30
ATOM     30  C   UNL     1      45.762 -46.890  48.101  0.00  0.00    +0.000 C 
BRANCH  30  31
ATOM     31  O   UNL     1      46.105 -47.927  47.174  0.00  0.00    +0.000 OA
ATOM     32  H   UNL     1      45.613 -48.719  47.460  0.00  0.00    +0.000 HD
ENDBRANCH  30  31
BRANCH  30  33
ATOM     33  C   UNL     1      44.590 -47.343  49.015  0.00  0.00    +0.000 C 
BRANCH  33  34
ATOM     34  C   UNL     1      45.073 -47.550  50.444  0.00  0.00    +0.000 A 
ATOM     35  C   UNL     1      45.126 -46.453  51.321  0.00  0.00    +0.000 A 
ATOM     36  C   UNL     1      45.501 -48.803  50.910  0.00  0.00    +0.000 A 
ATOM     37  C   UNL     1      45.577 -46.610  52.632  0.00  0.00    +0.000 A 
ATOM     38  C   UNL     1      45.950 -48.958  52.222  0.00  0.00    +0.000 A 
ATOM     39  C   UNL     1      45.986 -47.862  53.084  0.00  0.00    +0.000 A 
ENDBRANCH  33  34
BRANCH  33  41
ATOM     40  O   UNL     1      42.241 -49.722  47.637  0.00  0.00    +0.000 OA
ATOM     41  N   UNL     1      43.969 -48.564  48.487  0.00  0.00    +0.000 N 
ATOM     42  C   UNL     1      42.649 -48.925  48.475  0.00  0.00    +0.000 C 
ATOM     43  H   UNL     1      44.536 -49.071  47.813  0.00  0.00    +0.000 HD
BRANCH  42  44
ATOM     44  C   UNL     1      41.699 -48.323  49.438  0.00  0.00    +0.000 A 
ATOM     45  C   UNL     1      40.943 -47.195  49.108  0.00  0.00    +0.000 A 
ATOM     46  C   UNL     1      41.620 -48.865  50.726  0.00  0.00    +0.000 A 
ATOM     47  C   UNL     1      40.064 -46.649  50.045  0.00  0.00    +0.000 A 
ATOM     48  C   UNL     1      40.743 -48.316  51.662  0.00  0.00    +0.000 A 
ATOM     49  C   UNL     1      39.959 -47.214  51.317  0.00  0.00    +0.000 A 
ENDBRANCH  42  44
ENDBRANCH  33  41
ENDBRANCH  30  33
ENDBRANCH  29  30
ENDBRANCH  27  29
ENDBRANCH  18  27
BRANCH  17  50
ATOM     50  O   UNL     1      49.168 -40.093  44.919  0.00  0.00    +0.000 OA
BRANCH  50  52
ATOM     51  O   UNL     1      48.522 -39.089  43.026  0.00  0.00    +0.000 OA
ATOM     52  C   UNL     1      48.399 -39.211  44.241  0.00  0.00    +0.000 C 
ATOM     53  C   UNL     1      47.470 -38.338  45.031  0.00  0.00    +0.000 C 
ENDBRANCH  50  52
ENDBRANCH  17  50
BRANCH   7  54
ATOM     54  O   UNL     1      49.362 -44.720  46.932  0.00  0.00    +0.000 OA
BRANCH  54  56
ATOM     55  O   UNL     1      48.579 -46.517  46.494  0.00  0.00    +0.000 OA
ATOM     56  C   UNL     1      49.227 -46.005  47.400  0.00  0.00    +0.000 C 
BRANCH  56  57
ATOM     57  C   UNL     1      49.694 -46.559  49.172  0.00  0.00    +0.000 A 
ATOM     58  C   UNL     1      48.785 -46.587  50.315  0.00  0.00    +0.000 A 
ATOM     59  C   UNL     1      50.926 -47.138  49.605  0.00  0.00    +0.000 A 
ATOM     60  C   UNL     1      49.052 -47.092  51.612  0.00  0.00    +0.000 A 
ATOM     61  C   UNL     1      51.214 -47.648  50.902  0.00  0.00    +0.000 A 
ATOM     62  C   UNL     1      50.278 -47.630  51.908  0.00  0.00    +0.000 A 
ENDBRANCH  56  57
ENDBRANCH  54  56
ENDBRANCH   7  54
BRANCH   4  63
ATOM     63  O   UNL     1      51.043 -47.068  45.522  0.00  0.00    +0.000 OA
BRANCH  63  65
ATOM     64  O   UNL     1      51.674 -48.905  44.414  0.00  0.00    +0.000 OA
ATOM     65  C   UNL     1      51.172 -48.411  45.422  0.00  0.00    +0.000 C 
ATOM     66  C   UNL     1      50.595 -49.286  46.488  0.00  0.00    +0.000 C 
ENDBRANCH  63  65
ENDBRANCH   4  63
TORSDOF 17
ENDMDL
MODEL 2
REMARK VINA RESULT:      -7.2      7.565     13.492
REMARK  Name = 
REMARK  23 active torsions:
REMARK  status: ('A' for Active; 'I' for Inactive)
REMARK    1  A    between atoms: O_2  and  C_17
REMARK    2  A    between atoms: O_2  and  C_36
REMARK    3  A    between atoms: O_3  and  C_20
REMARK    4  A    between atoms: O_3  and  C_37
REMARK    5  A    between atoms: O_4  and  C_21
REMARK    6  A    between atoms: O_5  and  C_22
REMARK    7  A    between atoms: O_6  and  C_30
REMARK    8  A    between atoms: O_6  and  C_39
REMARK    9  A    between atoms: O_8  and  C_31
REMARK   10  A    between atoms: O_8  and  C_40
REMARK   11  A    between atoms: O_13  and  C_42
REMARK   12  A    between atoms: N_15  and  C_46
REMARK   13  A    between atoms: C_18  and  C_29
REMARK   14  A    between atoms: C_24  and  C_33
REMARK   15  A    between atoms: C_24  and  C_34
REMARK   16  A    between atoms: C_32  and  C_35
REMARK   17  A    between atoms: C_36  and  C_38
REMARK   18  A    between atoms: C_37  and  C_41
REMARK   19  A    between atoms: C_39  and  C_43
REMARK   20  A    between atoms: C_40  and  C_42
REMARK   21  A    between atoms: C_42  and  C_46
REMARK   22  A    between atoms: C_46  and  C_50
REMARK   23  A    between atoms: C_53  and  C_56
REMARK                            x       y       z     vdW  Elec       q    Type
REMARK                         _______ _______ _______ _____ _____    ______ ____
ROOT
ATOM      1  O   UNL     1      42.097 -58.230  55.529  0.00  0.00    +0.000 OA
ATOM      2  O   UNL     1      48.490 -58.996  53.795  0.00  0.00    +0.000 OA
ATOM      3  C   UNL     1      45.248 -56.868  55.780  0.00  0.00    +0.000 C 
ATOM      4  C   UNL     1      43.751 -56.883  55.351  0.00  0.00    +0.000 C 
ATOM      5  C   UNL     1      46.232 -57.704  54.390  0.00  0.00    +0.000 C 
ATOM      6  C   UNL     1      43.532 -58.448  55.437  0.00  0.00    +0.000 C 
ATOM      7  C   UNL     1      45.752 -55.222  56.496  0.00  0.00    +0.000 C 
ATOM      8  C   UNL     1      47.260 -54.302  57.180  0.00  0.00    +0.000 C 
ATOM      9  C   UNL     1      45.627 -59.169  54.314  0.00  0.00    +0.000 C 
ATOM     10  C   UNL     1      44.071 -59.255  54.278  0.00  0.00    +0.000 C 
ATOM     11  C   UNL     1      48.969 -54.773  57.109  0.00  0.00    +0.000 C 
ATOM     12  C   UNL     1      42.438 -56.968  56.224  0.00  0.00    +0.000 C 
ATOM     13  C   UNL     1      48.098 -57.911  54.276  0.00  0.00    +0.000 C 
ATOM     14  C   UNL     1      47.325 -52.919  56.384  0.00  0.00    +0.000 C 
ATOM     15  C   UNL     1      49.441 -55.079  55.606  0.00  0.00    +0.000 C 
ATOM     16  C   UNL     1      45.891 -57.108  52.961  0.00  0.00    +0.000 C 
ATOM     17  C   UNL     1      49.483 -56.695  54.818  0.00  0.00    +0.000 C 
ATOM     18  C   UNL     1      48.288 -52.820  55.115  0.00  0.00    +0.000 C 
ATOM     19  C   UNL     1      49.308 -53.974  54.798  0.00  0.00    +0.000 C 
ATOM     20  C   UNL     1      49.811 -53.499  57.621  0.00  0.00    +0.000 C 
ATOM     21  C   UNL     1      49.536 -55.752  58.187  0.00  0.00    +0.000 C 
ATOM     22  C   UNL     1      49.915 -53.901  53.419  0.00  0.00    +0.000 C 
ENDROOT
BRANCH   9  23
ATOM     23  O   UNL     1      46.058 -59.909  55.456  0.00  0.00    +0.000 OA
ATOM     24  H   UNL     1      46.955 -59.585  55.672  0.00  0.00    +0.000 HD
ENDBRANCH   9  23
BRANCH   8  25
ATOM     25  O   UNL     1      46.928 -53.976  58.544  0.00  0.00    +0.000 OA
ATOM     26  H   UNL     1      47.542 -54.445  59.136  0.00  0.00    +0.000 HD
ENDBRANCH   8  25
BRANCH  18  27
ATOM     27  O   UNL     1      47.454 -52.670  53.929  0.00  0.00    +0.000 OA
BRANCH  27  29
ATOM     28  O   UNL     1      46.989 -50.475  54.221  0.00  0.00    +0.000 OA
ATOM     29  C   UNL     1      47.258 -51.407  53.471  0.00  0.00    +0.000 C 
BRANCH  29  30
ATOM     30  C   UNL     1      47.242 -51.281  51.944  0.00  0.00    +0.000 C 
BRANCH  30  31
ATOM     31  O   UNL     1      48.311 -51.947  51.263  0.00  0.00    +0.000 OA
ATOM     32  H   UNL     1      48.185 -51.762  50.314  0.00  0.00    +0.000 HD
ENDBRANCH  30  31
BRANCH  30  33
ATOM     33  C   UNL     1      47.225 -49.769  51.585  0.00  0.00    +0.000 C 
BRANCH  33  34
ATOM     34  C   UNL     1      45.921 -49.396  50.895  0.00  0.00    +0.000 A 
ATOM     35  C   UNL     1      45.704 -49.795  49.565  0.00  0.00    +0.000 A 
ATOM     36  C   UNL     1      44.932 -48.633  51.536  0.00  0.00    +0.000 A 
ATOM     37  C   UNL     1      44.524 -49.456  48.902  0.00  0.00    +0.000 A 
ATOM     38  C   UNL     1      43.751 -48.297  50.872  0.00  0.00    +0.000 A 
ATOM     39  C   UNL     1      43.547 -48.710  49.556  0.00  0.00    +0.000 A 
ENDBRANCH  33  34
BRANCH  33  41
ATOM     40  O   UNL     1      50.138 -48.143  50.187  0.00  0.00    +0.000 OA
ATOM     41  N   UNL     1      48.381 -49.429  50.745  0.00  0.00    +0.000 N 
ATOM     42  C   UNL     1      48.962 -48.209  50.532  0.00  0.00    +0.000 C 
ATOM     43  H   UNL     1      48.984 -50.213  50.516  0.00  0.00    +0.000 HD
BRANCH  42  44
ATOM     44  C   UNL     1      48.196 -46.963  50.761  0.00  0.00    +0.000 A 
ATOM     45  C   UNL     1      47.414 -46.391  49.752  0.00  0.00    +0.000 A 
ATOM     46  C   UNL     1      48.323 -46.317  51.996  0.00  0.00    +0.000 A 
ATOM     47  C   UNL     1      46.713 -45.210  50.000  0.00  0.00    +0.000 A 
ATOM     48  C   UNL     1      47.624 -45.135  52.241  0.00  0.00    +0.000 A 
ATOM     49  C   UNL     1      46.813 -44.589  51.246  0.00  0.00    +0.000 A 
ENDBRANCH  42  44
ENDBRANCH  33  41
ENDBRANCH  30  33
ENDBRANCH  29  30
ENDBRANCH  27  29
ENDBRANCH  18  27
BRANCH  17  50
ATOM     50  O   UNL     1      50.580 -57.364  55.477  0.00  0.00    +0.000 OA
BRANCH  50  52
ATOM     51  O   UNL     1      52.079 -58.664  54.443  0.00  0.00    +0.000 OA
ATOM     52  C   UNL     1      51.783 -57.561  54.892  0.00  0.00    +0.000 C 
ATOM     53  C   UNL     1      52.759 -56.423  54.895  0.00  0.00    +0.000 C 
ENDBRANCH  50  52
ENDBRANCH  17  50
BRANCH   7  54
ATOM     54  O   UNL     1      46.163 -54.925  55.281  0.00  0.00    +0.000 OA
BRANCH  54  56
ATOM     55  O   UNL     1      44.617 -54.070  56.239  0.00  0.00    +0.000 OA
ATOM     56  C   UNL     1      45.112 -54.053  55.117  0.00  0.00    +0.000 C 
BRANCH  56  57
ATOM     57  C   UNL     1      44.536 -53.370  53.424  0.00  0.00    +0.000 A 
ATOM     58  C   UNL     1      44.910 -53.917  52.122  0.00  0.00    +0.000 A 
ATOM     59  C   UNL     1      43.576 -52.340  53.184  0.00  0.00    +0.000 A 
ATOM     60  C   UNL     1      44.422 -53.518  50.852  0.00  0.00    +0.000 A 
ATOM     61  C   UNL     1      43.076 -51.924  51.918  0.00  0.00    +0.000 A 
ATOM     62  C   UNL     1      43.495 -52.514  50.750  0.00  0.00    +0.000 A 
ENDBRANCH  56  57
ENDBRANCH  54  56
ENDBRANCH   7  54
BRANCH   4  63
ATOM     63  O   UNL     1      43.554 -56.324  54.031  0.00  0.00    +0.000 OA
BRANCH  63  65
ATOM     64  O   UNL     1      41.682 -55.105  54.115  0.00  0.00    +0.000 OA
ATOM     65  C   UNL     1      42.356 -55.950  53.528  0.00  0.00    +0.000 C 
ATOM     66  C   UNL     1      41.810 -56.654  52.327  0.00  0.00    +0.000 C 
ENDBRANCH  63  65
ENDBRANCH   4  63
TORSDOF 17
ENDMDL
MODEL 3
REMARK VINA RESULT:      -7.1      1.252      2.428
REMARK  Name = 
REMARK  23 active torsions:
REMARK  status: ('A' for Active; 'I' for Inactive)
REMARK    1  A    between atoms: O_2  and  C_17
REMARK    2  A    between atoms: O_2  and  C_36
REMARK    3  A    between atoms: O_3  and  C_20
REMARK    4  A    between atoms: O_3  and  C_37
REMARK    5  A    between atoms: O_4  and  C_21
REMARK    6  A    between atoms: O_5  and  C_22
REMARK    7  A    between atoms: O_6  and  C_30
REMARK    8  A    between atoms: O_6  and  C_39
REMARK    9  A    between atoms: O_8  and  C_31
REMARK   10  A    between atoms: O_8  and  C_40
REMARK   11  A    between atoms: O_13  and  C_42
REMARK   12  A    between atoms: N_15  and  C_46
REMARK   13  A    between atoms: C_18  and  C_29
REMARK   14  A    between atoms: C_24  and  C_33
REMARK   15  A    between atoms: C_24  and  C_34
REMARK   16  A    between atoms: C_32  and  C_35
REMARK   17  A    between atoms: C_36  and  C_38
REMARK   18  A    between atoms: C_37  and  C_41
REMARK   19  A    between atoms: C_39  and  C_43
REMARK   20  A    between atoms: C_40  and  C_42
REMARK   21  A    between atoms: C_42  and  C_46
REMARK   22  A    between atoms: C_46  and  C_50
REMARK   23  A    between atoms: C_53  and  C_56
REMARK                            x       y       z     vdW  Elec       q    Type
REMARK                         _______ _______ _______ _____ _____    ______ ____
ROOT
ATOM      1  O   UNL     1      54.016 -47.181  45.861  0.00  0.00    +0.000 OA
ATOM      2  O   UNL     1      50.718 -42.188  42.921  0.00  0.00    +0.000 OA
ATOM      3  C   UNL     1      51.571 -44.800  46.301  0.00  0.00    +0.000 C 
ATOM      4  C   UNL     1      52.119 -46.255  46.212  0.00  0.00    +0.000 C 
ATOM      5  C   UNL     1      51.106 -44.275  44.538  0.00  0.00    +0.000 C 
ATOM      6  C   UNL     1      53.443 -45.922  45.410  0.00  0.00    +0.000 C 
ATOM      7  C   UNL     1      50.402 -44.582  47.738  0.00  0.00    +0.000 C 
ATOM      8  C   UNL     1      49.280 -43.292  48.552  0.00  0.00    +0.000 C 
ATOM      9  C   UNL     1      52.469 -44.370  43.733  0.00  0.00    +0.000 C 
ATOM     10  C   UNL     1      53.275 -45.691  43.926  0.00  0.00    +0.000 C 
ATOM     11  C   UNL     1      48.772 -41.713  47.924  0.00  0.00    +0.000 C 
ATOM     12  C   UNL     1      53.209 -46.992  47.086  0.00  0.00    +0.000 C 
ATOM     13  C   UNL     1      50.304 -42.660  44.001  0.00  0.00    +0.000 C 
ATOM     14  C   UNL     1      47.853 -43.993  48.710  0.00  0.00    +0.000 C 
ATOM     15  C   UNL     1      48.107 -41.835  46.468  0.00  0.00    +0.000 C 
ATOM     16  C   UNL     1      50.189 -45.342  43.807  0.00  0.00    +0.000 C 
ATOM     17  C   UNL     1      48.954 -41.626  44.897  0.00  0.00    +0.000 C 
ATOM     18  C   UNL     1      46.748 -43.725  47.591  0.00  0.00    +0.000 C 
ATOM     19  C   UNL     1      46.981 -42.625  46.491  0.00  0.00    +0.000 C 
ATOM     20  C   UNL     1      47.629 -41.174  48.924  0.00  0.00    +0.000 C 
ATOM     21  C   UNL     1      49.711 -40.478  48.114  0.00  0.00    +0.000 C 
ATOM     22  C   UNL     1      46.020 -42.699  45.330  0.00  0.00    +0.000 C 
ENDROOT
BRANCH   9  23
ATOM     23  O   UNL     1      53.324 -43.300  44.136  0.00  0.00    +0.000 OA
ATOM     24  H   UNL     1      54.240 -43.615  44.001  0.00  0.00    +0.000 HD
ENDBRANCH   9  23
BRANCH   8  25
ATOM     25  O   UNL     1      49.799 -43.113  49.884  0.00  0.00    +0.000 OA
ATOM     26  H   UNL     1      50.765 -43.231  49.862  0.00  0.00    +0.000 HD
ENDBRANCH   8  25
BRANCH  18  27
ATOM     27  O   UNL     1      46.516 -44.976  46.880  0.00  0.00    +0.000 OA
BRANCH  27  29
ATOM     28  O   UNL     1      44.542 -45.233  47.956  0.00  0.00    +0.000 OA
ATOM     29  C   UNL     1      45.431 -45.703  47.254  0.00  0.00    +0.000 C 
BRANCH  29  30
ATOM     30  C   UNL     1      45.494 -47.183  46.865  0.00  0.00    +0.000 C 
BRANCH  30  31
ATOM     31  O   UNL     1      44.376 -47.666  46.110  0.00  0.00    +0.000 OA
ATOM     32  H   UNL     1      44.738 -47.971  45.257  0.00  0.00    +0.000 HD
ENDBRANCH  30  31
BRANCH  30  33
ATOM     33  C   UNL     1      45.675 -48.016  48.164  0.00  0.00    +0.000 C 
BRANCH  33  34
ATOM     34  C   UNL     1      46.678 -49.140  47.945  0.00  0.00    +0.000 A 
ATOM     35  C   UNL     1      47.448 -49.599  49.028  0.00  0.00    +0.000 A 
ATOM     36  C   UNL     1      46.886 -49.717  46.682  0.00  0.00    +0.000 A 
ATOM     37  C   UNL     1      48.385 -50.618  48.856  0.00  0.00    +0.000 A 
ATOM     38  C   UNL     1      47.823 -50.738  46.513  0.00  0.00    +0.000 A 
ATOM     39  C   UNL     1      48.570 -51.190  47.599  0.00  0.00    +0.000 A 
ENDBRANCH  33  34
BRANCH  33  41
ATOM     40  O   UNL     1      42.570 -48.528  49.946  0.00  0.00    +0.000 OA
ATOM     41  N   UNL     1      44.382 -48.545  48.618  0.00  0.00    +0.000 N 
ATOM     42  C   UNL     1      43.790 -48.435  49.846  0.00  0.00    +0.000 C 
ATOM     43  H   UNL     1      43.734 -48.779  47.872  0.00  0.00    +0.000 HD
BRANCH  42  44
ATOM     44  C   UNL     1      44.605 -48.157  51.050  0.00  0.00    +0.000 A 
ATOM     45  C   UNL     1      44.723 -46.864  51.568  0.00  0.00    +0.000 A 
ATOM     46  C   UNL     1      45.322 -49.210  51.630  0.00  0.00    +0.000 A 
ATOM     47  C   UNL     1      45.509 -46.637  52.699  0.00  0.00    +0.000 A 
ATOM     48  C   UNL     1      46.109 -48.981  52.758  0.00  0.00    +0.000 A 
ATOM     49  C   UNL     1      46.193 -47.696  53.297  0.00  0.00    +0.000 A 
ENDBRANCH  42  44
ENDBRANCH  33  41
ENDBRANCH  30  33
ENDBRANCH  29  30
ENDBRANCH  27  29
ENDBRANCH  18  27
BRANCH  17  50
ATOM     50  O   UNL     1      49.217 -40.207  44.841  0.00  0.00    +0.000 OA
BRANCH  50  52
ATOM     51  O   UNL     1      48.539 -39.277  42.921  0.00  0.00    +0.000 OA
ATOM     52  C   UNL     1      48.448 -39.341  44.144  0.00  0.00    +0.000 C 
ATOM     53  C   UNL     1      47.560 -38.413  44.917  0.00  0.00    +0.000 C 
ENDBRANCH  50  52
ENDBRANCH  17  50
BRANCH   7  54
ATOM     54  O   UNL     1      49.440 -44.825  46.872  0.00  0.00    +0.000 OA
BRANCH  54  56
ATOM     55  O   UNL     1      48.691 -46.637  46.437  0.00  0.00    +0.000 OA
ATOM     56  C   UNL     1      49.297 -46.103  47.359  0.00  0.00    +0.000 C 
BRANCH  56  57
ATOM     57  C   UNL     1      49.695 -46.619  49.158  0.00  0.00    +0.000 A 
ATOM     58  C   UNL     1      48.761 -46.557  50.281  0.00  0.00    +0.000 A 
ATOM     59  C   UNL     1      50.883 -47.249  49.639  0.00  0.00    +0.000 A 
ATOM     60  C   UNL     1      48.973 -47.030  51.600  0.00  0.00    +0.000 A 
ATOM     61  C   UNL     1      51.115 -47.729  50.959  0.00  0.00    +0.000 A 
ATOM     62  C   UNL     1      50.160 -47.624  51.941  0.00  0.00    +0.000 A 
ENDBRANCH  56  57
ENDBRANCH  54  56
ENDBRANCH   7  54
BRANCH   4  63
ATOM     63  O   UNL     1      51.209 -47.143  45.521  0.00  0.00    +0.000 OA
BRANCH  63  65
ATOM     64  O   UNL     1      50.988 -49.079  46.617  0.00  0.00    +0.000 OA
ATOM     65  C   UNL     1      51.268 -48.493  45.573  0.00  0.00    +0.000 C 
ATOM     66  C   UNL     1      51.788 -49.252  44.394  0.00  0.00    +0.000 C 
ENDBRANCH  63  65
ENDBRANCH   4  63
TORSDOF 17
ENDMDL
MODEL 4
REMARK VINA RESULT:      -7.1      3.230      9.370
REMARK  Name = 
REMARK  23 active torsions:
REMARK  status: ('A' for Active; 'I' for Inactive)
REMARK    1  A    between atoms: O_2  and  C_17
REMARK    2  A    between atoms: O_2  and  C_36
REMARK    3  A    between atoms: O_3  and  C_20
REMARK    4  A    between atoms: O_3  and  C_37
REMARK    5  A    between atoms: O_4  and  C_21
REMARK    6  A    between atoms: O_5  and  C_22
REMARK    7  A    between atoms: O_6  and  C_30
REMARK    8  A    between atoms: O_6  and  C_39
REMARK    9  A    between atoms: O_8  and  C_31
REMARK   10  A    between atoms: O_8  and  C_40
REMARK   11  A    between atoms: O_13  and  C_42
REMARK   12  A    between atoms: N_15  and  C_46
REMARK   13  A    between atoms: C_18  and  C_29
REMARK   14  A    between atoms: C_24  and  C_33
REMARK   15  A    between atoms: C_24  and  C_34
REMARK   16  A    between atoms: C_32  and  C_35
REMARK   17  A    between atoms: C_36  and  C_38
REMARK   18  A    between atoms: C_37  and  C_41
REMARK   19  A    between atoms: C_39  and  C_43
REMARK   20  A    between atoms: C_40  and  C_42
REMARK   21  A    between atoms: C_42  and  C_46
REMARK   22  A    between atoms: C_46  and  C_50
REMARK   23  A    between atoms: C_53  and  C_56
REMARK                            x       y       z     vdW  Elec       q    Type
REMARK                         _______ _______ _______ _____ _____    ______ ____
ROOT
ATOM      1  O   UNL     1      38.289 -50.004  49.965  0.00  0.00    +0.000 OA
ATOM      2  O   UNL     1      38.392 -43.917  47.246  0.00  0.00    +0.000 OA
ATOM      3  C   UNL     1      39.786 -48.031  47.576  0.00  0.00    +0.000 C 
ATOM      4  C   UNL     1      39.758 -48.901  48.866  0.00  0.00    +0.000 C 
ATOM      5  C   UNL     1      39.352 -46.258  48.094  0.00  0.00    +0.000 C 
ATOM      6  C   UNL     1      38.201 -48.812  49.136  0.00  0.00    +0.000 C 
ATOM      7  C   UNL     1      41.266 -48.414  46.508  0.00  0.00    +0.000 C 
ATOM      8  C   UNL     1      42.118 -47.871  44.906  0.00  0.00    +0.000 C 
ATOM      9  C   UNL     1      37.901 -46.381  48.721  0.00  0.00    +0.000 C 
ATOM     10  C   UNL     1      37.712 -47.526  49.762  0.00  0.00    +0.000 C 
ATOM     11  C   UNL     1      41.800 -46.434  43.916  0.00  0.00    +0.000 C 
ATOM     12  C   UNL     1      39.386 -50.423  49.065  0.00  0.00    +0.000 C 
ATOM     13  C   UNL     1      39.312 -44.726  47.002  0.00  0.00    +0.000 C 
ATOM     14  C   UNL     1      43.644 -47.602  45.294  0.00  0.00    +0.000 C 
ATOM     15  C   UNL     1      41.869 -45.085  44.783  0.00  0.00    +0.000 C 
ATOM     16  C   UNL     1      40.224 -45.751  49.317  0.00  0.00    +0.000 C 
ATOM     17  C   UNL     1      40.476 -44.247  45.550  0.00  0.00    +0.000 C 
ATOM     18  C   UNL     1      44.092 -46.106  45.618  0.00  0.00    +0.000 C 
ATOM     19  C   UNL     1      43.113 -44.906  45.341  0.00  0.00    +0.000 C 
ATOM     20  C   UNL     1      42.987 -46.362  42.829  0.00  0.00    +0.000 C 
ATOM     21  C   UNL     1      40.650 -46.475  42.858  0.00  0.00    +0.000 C 
ATOM     22  C   UNL     1      43.533 -43.606  45.981  0.00  0.00    +0.000 C 
ENDROOT
BRANCH   9  23
ATOM     23  O   UNL     1      36.959 -46.613  47.674  0.00  0.00    +0.000 OA
ATOM     24  H   UNL     1      37.436 -47.114  46.981  0.00  0.00    +0.000 HD
ENDBRANCH   9  23
BRANCH   8  25
ATOM     25  O   UNL     1      42.109 -49.031  44.051  0.00  0.00    +0.000 OA
ATOM     26  H   UNL     1      41.919 -49.817  44.592  0.00  0.00    +0.000 HD
ENDBRANCH   8  25
BRANCH  18  27
ATOM     27  O   UNL     1      44.439 -46.037  47.032  0.00  0.00    +0.000 OA
BRANCH  27  29
ATOM     28  O   UNL     1      46.274 -47.314  47.379  0.00  0.00    +0.000 OA
ATOM     29  C   UNL     1      45.747 -46.207  47.352  0.00  0.00    +0.000 C 
BRANCH  29  30
ATOM     30  C   UNL     1      46.455 -44.934  47.827  0.00  0.00    +0.000 C 
BRANCH  30  31
ATOM     31  O   UNL     1      46.973 -44.096  46.786  0.00  0.00    +0.000 OA
ATOM     32  H   UNL     1      46.209 -43.608  46.427  0.00  0.00    +0.000 HD
ENDBRANCH  30  31
BRANCH  30  33
ATOM     33  C   UNL     1      47.587 -45.348  48.807  0.00  0.00    +0.000 C 
BRANCH  33  34
ATOM     34  C   UNL     1      47.749 -44.311  49.909  0.00  0.00    +0.000 A 
ATOM     35  C   UNL     1      47.849 -42.951  49.569  0.00  0.00    +0.000 A 
ATOM     36  C   UNL     1      47.834 -44.671  51.264  0.00  0.00    +0.000 A 
ATOM     37  C   UNL     1      48.011 -41.978  50.556  0.00  0.00    +0.000 A 
ATOM     38  C   UNL     1      47.994 -43.697  52.250  0.00  0.00    +0.000 A 
ATOM     39  C   UNL     1      48.080 -42.351  51.897  0.00  0.00    +0.000 A 
ENDBRANCH  33  34
BRANCH  33  41
ATOM     40  O   UNL     1      50.454 -46.829  47.173  0.00  0.00    +0.000 OA
ATOM     41  N   UNL     1      48.848 -45.544  48.080  0.00  0.00    +0.000 N 
ATOM     42  C   UNL     1      49.712 -46.605  48.124  0.00  0.00    +0.000 C 
ATOM     43  H   UNL     1      48.956 -44.966  47.253  0.00  0.00    +0.000 HD
BRANCH  42  44
ATOM     44  C   UNL     1      49.725 -47.513  49.293  0.00  0.00    +0.000 A 
ATOM     45  C   UNL     1      48.875 -48.620  49.366  0.00  0.00    +0.000 A 
ATOM     46  C   UNL     1      50.563 -47.203  50.371  0.00  0.00    +0.000 A 
ATOM     47  C   UNL     1      48.908 -49.449  50.489  0.00  0.00    +0.000 A 
ATOM     48  C   UNL     1      50.593 -48.032  51.493  0.00  0.00    +0.000 A 
ATOM     49  C   UNL     1      49.772 -49.159  51.546  0.00  0.00    +0.000 A 
ENDBRANCH  42  44
ENDBRANCH  33  41
ENDBRANCH  30  33
ENDBRANCH  29  30
ENDBRANCH  27  29
ENDBRANCH  18  27
BRANCH  17  50
ATOM     50  O   UNL     1      39.759 -43.688  44.428  0.00  0.00    +0.000 OA
BRANCH  50  52
ATOM     51  O   UNL     1      38.548 -41.806  44.428  0.00  0.00    +0.000 OA
ATOM     52  C   UNL     1      39.625 -42.358  44.226  0.00  0.00    +0.000 C 
ATOM     53  C   UNL     1      40.801 -41.612  43.669  0.00  0.00    +0.000 C 
ENDBRANCH  50  52
ENDBRANCH  17  50
BRANCH   7  54
ATOM     54  O   UNL     1      41.853 -47.409  47.123  0.00  0.00    +0.000 OA
BRANCH  54  56
ATOM     55  O   UNL     1      42.379 -49.342  47.281  0.00  0.00    +0.000 OA
ATOM     56  C   UNL     1      42.642 -48.281  47.836  0.00  0.00    +0.000 C 
BRANCH  56  57
ATOM     57  C   UNL     1      43.562 -47.822  49.451  0.00  0.00    +0.000 A 
ATOM     58  C   UNL     1      44.559 -48.655  50.120  0.00  0.00    +0.000 A 
ATOM     59  C   UNL     1      43.518 -46.580  50.153  0.00  0.00    +0.000 A 
ATOM     60  C   UNL     1      45.344 -48.313  51.249  0.00  0.00    +0.000 A 
ATOM     61  C   UNL     1      44.297 -46.218  51.288  0.00  0.00    +0.000 A 
ATOM     62  C   UNL     1      45.214 -47.082  51.837  0.00  0.00    +0.000 A 
ENDBRANCH  56  57
ENDBRANCH  54  56
ENDBRANCH   7  54
BRANCH   4  63
ATOM     63  O   UNL     1      40.579 -48.346  49.921  0.00  0.00    +0.000 OA
BRANCH  63  65
ATOM     64  O   UNL     1      41.437 -49.962  51.206  0.00  0.00    +0.000 OA
ATOM     65  C   UNL     1      40.777 -48.927  51.125  0.00  0.00    +0.000 C 
ATOM     66  C   UNL     1      40.091 -48.370  52.332  0.00  0.00    +0.000 C 
ENDBRANCH  63  65
ENDBRANCH   4  63
TORSDOF 17
ENDMDL
MODEL 5
REMARK VINA RESULT:      -7.1      4.028      7.616
REMARK  Name = 
REMARK  23 active torsions:
REMARK  status: ('A' for Active; 'I' for Inactive)
REMARK    1  A    between atoms: O_2  and  C_17
REMARK    2  A    between atoms: O_2  and  C_36
REMARK    3  A    between atoms: O_3  and  C_20
REMARK    4  A    between atoms: O_3  and  C_37
REMARK    5  A    between atoms: O_4  and  C_21
REMARK    6  A    between atoms: O_5  and  C_22
REMARK    7  A    between atoms: O_6  and  C_30
REMARK    8  A    between atoms: O_6  and  C_39
REMARK    9  A    between atoms: O_8  and  C_31
REMARK   10  A    between atoms: O_8  and  C_40
REMARK   11  A    between atoms: O_13  and  C_42
REMARK   12  A    between atoms: N_15  and  C_46
REMARK   13  A    between atoms: C_18  and  C_29
REMARK   14  A    between atoms: C_24  and  C_33
REMARK   15  A    between atoms: C_24  and  C_34
REMARK   16  A    between atoms: C_32  and  C_35
REMARK   17  A    between atoms: C_36  and  C_38
REMARK   18  A    between atoms: C_37  and  C_41
REMARK   19  A    between atoms: C_39  and  C_43
REMARK   20  A    between atoms: C_40  and  C_42
REMARK   21  A    between atoms: C_42  and  C_46
REMARK   22  A    between atoms: C_46  and  C_50
REMARK   23  A    between atoms: C_53  and  C_56
REMARK                            x       y       z     vdW  Elec       q    Type
REMARK                         _______ _______ _______ _____ _____    ______ ____
ROOT
ATOM      1  O   UNL     1      48.798 -44.154  49.971  0.00  0.00    +0.000 OA
ATOM      2  O   UNL     1      45.237 -47.164  45.204  0.00  0.00    +0.000 OA
ATOM      3  C   UNL     1      45.788 -45.660  49.255  0.00  0.00    +0.000 C 
ATOM      4  C   UNL     1      47.149 -45.519  49.997  0.00  0.00    +0.000 C 
ATOM      5  C   UNL     1      46.121 -46.643  47.668  0.00  0.00    +0.000 C 
ATOM      6  C   UNL     1      47.855 -44.570  48.945  0.00  0.00    +0.000 C 
ATOM      7  C   UNL     1      44.401 -46.104  50.421  0.00  0.00    +0.000 C 
ATOM      8  C   UNL     1      42.552 -46.515  50.436  0.00  0.00    +0.000 C 
ATOM      9  C   UNL     1      47.166 -45.753  46.873  0.00  0.00    +0.000 C 
ATOM     10  C   UNL     1      48.385 -45.243  47.700  0.00  0.00    +0.000 C 
ATOM     11  C   UNL     1      41.486 -46.871  49.063  0.00  0.00    +0.000 C 
ATOM     12  C   UNL     1      47.690 -44.364  50.929  0.00  0.00    +0.000 C 
ATOM     13  C   UNL     1      44.862 -47.219  46.395  0.00  0.00    +0.000 C 
ATOM     14  C   UNL     1      42.417 -47.885  51.246  0.00  0.00    +0.000 C 
ATOM     15  C   UNL     1      42.066 -48.056  48.149  0.00  0.00    +0.000 C 
ATOM     16  C   UNL     1      46.930 -47.980  47.939  0.00  0.00    +0.000 C 
ATOM     17  C   UNL     1      43.071 -47.858  46.671  0.00  0.00    +0.000 C 
ATOM     18  C   UNL     1      42.349 -49.250  50.423  0.00  0.00    +0.000 C 
ATOM     19  C   UNL     1      42.190 -49.228  48.858  0.00  0.00    +0.000 C 
ATOM     20  C   UNL     1      40.097 -47.391  49.691  0.00  0.00    +0.000 C 
ATOM     21  C   UNL     1      40.842 -45.687  48.271  0.00  0.00    +0.000 C 
ATOM     22  C   UNL     1      42.459 -50.554  48.191  0.00  0.00    +0.000 C 
ENDROOT
BRANCH   9  23
ATOM     23  O   UNL     1      46.500 -44.600  46.361  0.00  0.00    +0.000 OA
ATOM     24  H   UNL     1      46.347 -44.770  45.409  0.00  0.00    +0.000 HD
ENDBRANCH   9  23
BRANCH   8  25
ATOM     25  O   UNL     1      41.936 -45.496  51.246  0.00  0.00    +0.000 OA
ATOM     26  H   UNL     1      41.984 -45.767  52.180  0.00  0.00    +0.000 HD
ENDBRANCH   8  25
BRANCH  18  27
ATOM     27  O   UNL     1      43.564 -50.005  50.702  0.00  0.00    +0.000 OA
BRANCH  27  29
ATOM     28  O   UNL     1      42.311 -51.650  51.621  0.00  0.00    +0.000 OA
ATOM     29  C   UNL     1      43.412 -51.216  51.297  0.00  0.00    +0.000 C 
BRANCH  29  30
ATOM     30  C   UNL     1      44.725 -51.910  51.670  0.00  0.00    +0.000 C 
BRANCH  30  31
ATOM     31  O   UNL     1      45.340 -52.664  50.619  0.00  0.00    +0.000 OA
ATOM     32  H   UNL     1      44.661 -53.288  50.301  0.00  0.00    +0.000 HD
ENDBRANCH  30  31
BRANCH  30  33
ATOM     33  C   UNL     1      44.459 -52.814  52.906  0.00  0.00    +0.000 C 
BRANCH  33  34
ATOM     34  C   UNL     1      45.719 -52.956  53.748  0.00  0.00    +0.000 A 
ATOM     35  C   UNL     1      46.769 -53.772  53.290  0.00  0.00    +0.000 A 
ATOM     36  C   UNL     1      45.859 -52.320  54.992  0.00  0.00    +0.000 A 
ATOM     37  C   UNL     1      47.930 -53.932  54.047  0.00  0.00    +0.000 A 
ATOM     38  C   UNL     1      47.022 -52.479  55.746  0.00  0.00    +0.000 A 
ATOM     39  C   UNL     1      48.058 -53.283  55.273  0.00  0.00    +0.000 A 
ENDBRANCH  33  34
BRANCH  33  41
ATOM     40  O   UNL     1      42.564 -55.883  52.639  0.00  0.00    +0.000 OA
ATOM     41  N   UNL     1      43.960 -54.129  52.481  0.00  0.00    +0.000 N 
ATOM     42  C   UNL     1      43.285 -55.070  53.210  0.00  0.00    +0.000 C 
ATOM     43  H   UNL     1      43.857 -54.239  51.477  0.00  0.00    +0.000 HD
BRANCH  42  44
ATOM     44  C   UNL     1      43.379 -55.085  54.687  0.00  0.00    +0.000 A 
ATOM     45  C   UNL     1      42.517 -54.323  55.481  0.00  0.00    +0.000 A 
ATOM     46  C   UNL     1      44.405 -55.829  55.283  0.00  0.00    +0.000 A 
ATOM     47  C   UNL     1      42.642 -54.354  56.871  0.00  0.00    +0.000 A 
ATOM     48  C   UNL     1      44.529 -55.856  56.672  0.00  0.00    +0.000 A 
ATOM     49  C   UNL     1      43.642 -55.126  57.464  0.00  0.00    +0.000 A 
ENDBRANCH  42  44
ENDBRANCH  33  41
ENDBRANCH  30  33
ENDBRANCH  29  30
ENDBRANCH  27  29
ENDBRANCH  18  27
BRANCH  17  50
ATOM     50  O   UNL     1      42.141 -47.336  45.698  0.00  0.00    +0.000 OA
BRANCH  50  52
ATOM     51  O   UNL     1      42.118 -47.690  43.488  0.00  0.00    +0.000 OA
ATOM     52  C   UNL     1      41.746 -48.031  44.607  0.00  0.00    +0.000 C 
ATOM     53  C   UNL     1      40.781 -49.160  44.806  0.00  0.00    +0.000 C 
ENDBRANCH  50  52
ENDBRANCH  17  50
BRANCH   7  54
ATOM     54  O   UNL     1      44.643 -47.354  50.083  0.00  0.00    +0.000 OA
BRANCH  54  56
ATOM     55  O   UNL     1      44.819 -46.620  51.946  0.00  0.00    +0.000 OA
ATOM     56  C   UNL     1      45.203 -47.599  51.315  0.00  0.00    +0.000 C 
BRANCH  56  57
ATOM     57  C   UNL     1      46.493 -48.972  51.655  0.00  0.00    +0.000 A 
ATOM     58  C   UNL     1      47.149 -49.786  50.634  0.00  0.00    +0.000 A 
ATOM     59  C   UNL     1      47.094 -49.309  52.906  0.00  0.00    +0.000 A 
ATOM     60  C   UNL     1      48.187 -50.732  50.827  0.00  0.00    +0.000 A 
ATOM     61  C   UNL     1      48.135 -50.256  53.121  0.00  0.00    +0.000 A 
ATOM     62  C   UNL     1      48.686 -50.967  52.082  0.00  0.00    +0.000 A 
ENDBRANCH  56  57
ENDBRANCH  54  56
ENDBRANCH   7  54
BRANCH   4  63
ATOM     63  O   UNL     1      47.806 -46.794  50.186  0.00  0.00    +0.000 OA
BRANCH  63  65
ATOM     64  O   UNL     1      49.061 -46.677  52.033  0.00  0.00    +0.000 OA
ATOM     65  C   UNL     1      48.978 -46.964  50.840  0.00  0.00    +0.000 C 
ATOM     66  C   UNL     1      50.191 -47.388  50.076  0.00  0.00    +0.000 C 
ENDBRANCH  63  65
ENDBRANCH   4  63
TORSDOF 17
ENDMDL
MODEL 6
REMARK VINA RESULT:      -6.6      3.732      7.766
REMARK  Name = 
REMARK  23 active torsions:
REMARK  status: ('A' for Active; 'I' for Inactive)
REMARK    1  A    between atoms: O_2  and  C_17
REMARK    2  A    between atoms: O_2  and  C_36
REMARK    3  A    between atoms: O_3  and  C_20
REMARK    4  A    between atoms: O_3  and  C_37
REMARK    5  A    between atoms: O_4  and  C_21
REMARK    6  A    between atoms: O_5  and  C_22
REMARK    7  A    between atoms: O_6  and  C_30
REMARK    8  A    between atoms: O_6  and  C_39
REMARK    9  A    between atoms: O_8  and  C_31
REMARK   10  A    between atoms: O_8  and  C_40
REMARK   11  A    between atoms: O_13  and  C_42
REMARK   12  A    between atoms: N_15  and  C_46
REMARK   13  A    between atoms: C_18  and  C_29
REMARK   14  A    between atoms: C_24  and  C_33
REMARK   15  A    between atoms: C_24  and  C_34
REMARK   16  A    between atoms: C_32  and  C_35
REMARK   17  A    between atoms: C_36  and  C_38
REMARK   18  A    between atoms: C_37  and  C_41
REMARK   19  A    between atoms: C_39  and  C_43
REMARK   20  A    between atoms: C_40  and  C_42
REMARK   21  A    between atoms: C_42  and  C_46
REMARK   22  A    between atoms: C_46  and  C_50
REMARK   23  A    between atoms: C_53  and  C_56
REMARK                            x       y       z     vdW  Elec       q    Type
REMARK                         _______ _______ _______ _____ _____    ______ ____
ROOT
ATOM      1  O   UNL     1      47.365 -43.376  46.471  0.00  0.00    +0.000 OA
ATOM      2  O   UNL     1      44.411 -49.203  45.140  0.00  0.00    +0.000 OA
ATOM      3  C   UNL     1      45.262 -45.797  47.719  0.00  0.00    +0.000 C 
ATOM      4  C   UNL     1      46.560 -44.938  47.694  0.00  0.00    +0.000 C 
ATOM      5  C   UNL     1      45.575 -47.306  46.611  0.00  0.00    +0.000 C 
ATOM      6  C   UNL     1      46.474 -44.488  46.178  0.00  0.00    +0.000 C 
ATOM      7  C   UNL     1      44.569 -45.963  49.442  0.00  0.00    +0.000 C 
ATOM      8  C   UNL     1      43.167 -46.801  50.401  0.00  0.00    +0.000 C 
ATOM      9  C   UNL     1      45.873 -46.683  45.183  0.00  0.00    +0.000 C 
ATOM     10  C   UNL     1      46.907 -45.517  45.159  0.00  0.00    +0.000 C 
ATOM     11  C   UNL     1      42.055 -48.070  49.853  0.00  0.00    +0.000 C 
ATOM     12  C   UNL     1      46.754 -43.375  47.819  0.00  0.00    +0.000 C 
ATOM     13  C   UNL     1      44.420 -48.759  46.308  0.00  0.00    +0.000 C 
ATOM     14  C   UNL     1      43.867 -47.561  51.619  0.00  0.00    +0.000 C 
ATOM     15  C   UNL     1      42.842 -49.341  49.268  0.00  0.00    +0.000 C 
ATOM     16  C   UNL     1      46.931 -48.047  46.963  0.00  0.00    +0.000 C 
ATOM     17  C   UNL     1      43.236 -49.639  47.540  0.00  0.00    +0.000 C 
ATOM     18  C   UNL     1      44.200 -49.113  51.455  0.00  0.00    +0.000 C 
ATOM     19  C   UNL     1      43.650 -49.917  50.220  0.00  0.00    +0.000 C 
ATOM     20  C   UNL     1      41.255 -48.566  51.159  0.00  0.00    +0.000 C 
ATOM     21  C   UNL     1      40.774 -47.668  49.053  0.00  0.00    +0.000 C 
ATOM     22  C   UNL     1      44.296 -51.266  50.025  0.00  0.00    +0.000 C 
ENDROOT
BRANCH   9  23
ATOM     23  O   UNL     1      44.658 -46.172  44.636  0.00  0.00    +0.000 OA
ATOM     24  H   UNL     1      44.482 -45.327  45.098  0.00  0.00    +0.000 HD
ENDBRANCH   9  23
BRANCH   8  25
ATOM     25  O   UNL     1      42.395 -45.728  50.975  0.00  0.00    +0.000 OA
ATOM     26  H   UNL     1      42.990 -45.156  51.491  0.00  0.00    +0.000 HD
ENDBRANCH   8  25
BRANCH  18  27
ATOM     27  O   UNL     1      45.650 -49.261  51.430  0.00  0.00    +0.000 OA
BRANCH  27  29
ATOM     28  O   UNL     1      46.240 -48.922  53.588  0.00  0.00    +0.000 OA
ATOM     29  C   UNL     1      46.249 -49.634  52.590  0.00  0.00    +0.000 C 
BRANCH  29  30
ATOM     30  C   UNL     1      47.064 -50.928  52.495  0.00  0.00    +0.000 C 
BRANCH  30  31
ATOM     31  O   UNL     1      47.328 -51.390  51.166  0.00  0.00    +0.000 OA
ATOM     32  H   UNL     1      46.748 -52.162  51.027  0.00  0.00    +0.000 HD
ENDBRANCH  30  31
BRANCH  30  33
ATOM     33  C   UNL     1      46.327 -52.023  53.316  0.00  0.00    +0.000 C 
BRANCH  33  34
ATOM     34  C   UNL     1      47.238 -52.586  54.399  0.00  0.00    +0.000 A 
ATOM     35  C   UNL     1      46.881 -52.433  55.750  0.00  0.00    +0.000 A 
ATOM     36  C   UNL     1      48.447 -53.230  54.093  0.00  0.00    +0.000 A 
ATOM     37  C   UNL     1      47.702 -52.927  56.765  0.00  0.00    +0.000 A 
ATOM     38  C   UNL     1      49.266 -53.724  55.109  0.00  0.00    +0.000 A 
ATOM     39  C   UNL     1      48.893 -53.575  56.444  0.00  0.00    +0.000 A 
ENDBRANCH  33  34
BRANCH  33  41
ATOM     40  O   UNL     1      44.234 -54.422  51.601  0.00  0.00    +0.000 OA
ATOM     41  N   UNL     1      45.842 -53.089  52.430  0.00  0.00    +0.000 N 
ATOM     42  C   UNL     1      44.760 -53.912  52.585  0.00  0.00    +0.000 C 
ATOM     43  H   UNL     1      46.174 -53.028  51.472  0.00  0.00    +0.000 HD
BRANCH  42  44
ATOM     44  C   UNL     1      44.190 -54.157  53.930  0.00  0.00    +0.000 A 
ATOM     45  C   UNL     1      43.172 -53.350  54.448  0.00  0.00    +0.000 A 
ATOM     46  C   UNL     1      44.741 -55.177  54.714  0.00  0.00    +0.000 A 
ATOM     47  C   UNL     1      42.665 -53.604  55.723  0.00  0.00    +0.000 A 
ATOM     48  C   UNL     1      44.235 -55.427  55.989  0.00  0.00    +0.000 A 
ATOM     49  C   UNL     1      43.191 -54.646  56.488  0.00  0.00    +0.000 A 
ENDBRANCH  42  44
ENDBRANCH  33  41
ENDBRANCH  30  33
ENDBRANCH  29  30
ENDBRANCH  27  29
ENDBRANCH  18  27
BRANCH  17  50
ATOM     50  O   UNL     1      41.956 -49.949  46.950  0.00  0.00    +0.000 OA
BRANCH  50  52
ATOM     51  O   UNL     1      40.475 -51.427  46.153  0.00  0.00    +0.000 OA
ATOM     52  C   UNL     1      41.623 -51.187  46.517  0.00  0.00    +0.000 C 
ATOM     53  C   UNL     1      42.669 -52.258  46.585  0.00  0.00    +0.000 C 
ENDBRANCH  50  52
ENDBRANCH  17  50
BRANCH   7  54
ATOM     54  O   UNL     1      45.243 -47.092  49.504  0.00  0.00    +0.000 OA
BRANCH  54  56
ATOM     55  O   UNL     1      45.581 -45.460  50.626  0.00  0.00    +0.000 OA
ATOM     56  C   UNL     1      46.107 -46.549  50.425  0.00  0.00    +0.000 C 
BRANCH  56  57
ATOM     57  C   UNL     1      47.806 -47.304  50.881  0.00  0.00    +0.000 A 
ATOM     58  C   UNL     1      48.530 -48.295  50.088  0.00  0.00    +0.000 A 
ATOM     59  C   UNL     1      48.663 -46.928  51.960  0.00  0.00    +0.000 A 
ATOM     60  C   UNL     1      49.834 -48.797  50.325  0.00  0.00    +0.000 A 
ATOM     61  C   UNL     1      49.973 -47.421  52.216  0.00  0.00    +0.000 A 
ATOM     62  C   UNL     1      50.563 -48.354  51.397  0.00  0.00    +0.000 A 
ENDBRANCH  56  57
ENDBRANCH  54  56
ENDBRANCH   7  54
BRANCH   4  63
ATOM     63  O   UNL     1      47.738 -45.712  48.021  0.00  0.00    +0.000 OA
BRANCH  63  65
ATOM     64  O   UNL     1      48.983 -44.524  49.448  0.00  0.00    +0.000 OA
ATOM     65  C   UNL     1      48.919 -45.183  48.412  0.00  0.00    +0.000 C 
ATOM     66  C   UNL     1      50.111 -45.307  47.516  0.00  0.00    +0.000 C 
ENDBRANCH  63  65
ENDBRANCH   4  63
TORSDOF 17
ENDMDL
MODEL 7
REMARK VINA RESULT:      -6.6      3.471      7.732
REMARK  Name = 
REMARK  23 active torsions:
REMARK  status: ('A' for Active; 'I' for Inactive)
REMARK    1  A    between atoms: O_2  and  C_17
REMARK    2  A    between atoms: O_2  and  C_36
REMARK    3  A    between atoms: O_3  and  C_20
REMARK    4  A    between atoms: O_3  and  C_37
REMARK    5  A    between atoms: O_4  and  C_21
REMARK    6  A    between atoms: O_5  and  C_22
REMARK    7  A    between atoms: O_6  and  C_30
REMARK    8  A    between atoms: O_6  and  C_39
REMARK    9  A    between atoms: O_8  and  C_31
REMARK   10  A    between atoms: O_8  and  C_40
REMARK   11  A    between atoms: O_13  and  C_42
REMARK   12  A    between atoms: N_15  and  C_46
REMARK   13  A    between atoms: C_18  and  C_29
REMARK   14  A    between atoms: C_24  and  C_33
REMARK   15  A    between atoms: C_24  and  C_34
REMARK   16  A    between atoms: C_32  and  C_35
REMARK   17  A    between atoms: C_36  and  C_38
REMARK   18  A    between atoms: C_37  and  C_41
REMARK   19  A    between atoms: C_39  and  C_43
REMARK   20  A    between atoms: C_40  and  C_42
REMARK   21  A    between atoms: C_42  and  C_46
REMARK   22  A    between atoms: C_46  and  C_50
REMARK   23  A    between atoms: C_53  and  C_56
REMARK                            x       y       z     vdW  Elec       q    Type
REMARK                         _______ _______ _______ _____ _____    ______ ____
ROOT
ATOM      1  O   UNL     1      50.124 -38.824  45.506  0.00  0.00    +0.000 OA
ATOM      2  O   UNL     1      47.636 -41.782  50.938  0.00  0.00    +0.000 OA
ATOM      3  C   UNL     1      49.367 -41.858  46.942  0.00  0.00    +0.000 C 
ATOM      4  C   UNL     1      49.235 -40.736  45.870  0.00  0.00    +0.000 C 
ATOM      5  C   UNL     1      48.170 -41.425  48.348  0.00  0.00    +0.000 C 
ATOM      6  C   UNL     1      49.857 -39.562  46.730  0.00  0.00    +0.000 C 
ATOM      7  C   UNL     1      49.415 -43.556  46.172  0.00  0.00    +0.000 C 
ATOM      8  C   UNL     1      49.492 -45.391  46.634  0.00  0.00    +0.000 C 
ATOM      9  C   UNL     1      48.676 -40.015  48.868  0.00  0.00    +0.000 C 
ATOM     10  C   UNL     1      48.944 -38.946  47.765  0.00  0.00    +0.000 C 
ATOM     11  C   UNL     1      49.277 -46.141  48.227  0.00  0.00    +0.000 C 
ATOM     12  C   UNL     1      50.306 -40.147  44.869  0.00  0.00    +0.000 C 
ATOM     13  C   UNL     1      47.803 -42.440  49.889  0.00  0.00    +0.000 C 
ATOM     14  C   UNL     1      48.295 -46.090  45.841  0.00  0.00    +0.000 C 
ATOM     15  C   UNL     1      47.894 -45.700  48.912  0.00  0.00    +0.000 C 
ATOM     16  C   UNL     1      46.708 -41.104  47.825  0.00  0.00    +0.000 C 
ATOM     17  C   UNL     1      47.673 -44.348  50.076  0.00  0.00    +0.000 C 
ATOM     18  C   UNL     1      46.913 -46.323  46.604  0.00  0.00    +0.000 C 
ATOM     19  C   UNL     1      46.811 -46.079  48.154  0.00  0.00    +0.000 C 
ATOM     20  C   UNL     1      49.197 -47.729  47.972  0.00  0.00    +0.000 C 
ATOM     21  C   UNL     1      50.496 -46.222  49.202  0.00  0.00    +0.000 C 
ATOM     22  C   UNL     1      45.398 -46.027  48.679  0.00  0.00    +0.000 C 
ENDROOT
BRANCH   9  23
ATOM     23  O   UNL     1      49.901 -40.193  49.579  0.00  0.00    +0.000 OA
ATOM     24  H   UNL     1      49.662 -40.577  50.447  0.00  0.00    +0.000 HD
ENDBRANCH   9  23
BRANCH   8  25
ATOM     25  O   UNL     1      50.714 -45.885  46.052  0.00  0.00    +0.000 OA
ATOM     26  H   UNL     1      50.699 -46.858  46.072  0.00  0.00    +0.000 HD
ENDBRANCH   8  25
BRANCH  18  27
ATOM     27  O   UNL     1      45.908 -45.468  45.985  0.00  0.00    +0.000 OA
BRANCH  27  29
ATOM     28  O   UNL     1      45.360 -46.532  44.065  0.00  0.00    +0.000 OA
ATOM     29  C   UNL     1      45.022 -46.068  45.149  0.00  0.00    +0.000 C 
BRANCH  29  30
ATOM     30  C   UNL     1      43.561 -45.971  45.596  0.00  0.00    +0.000 C 
BRANCH  30  31
ATOM     31  O   UNL     1      43.004 -47.175  46.137  0.00  0.00    +0.000 OA
ATOM     32  H   UNL     1      43.620 -47.890  45.894  0.00  0.00    +0.000 HD
ENDBRANCH  30  31
BRANCH  30  33
ATOM     33  C   UNL     1      42.718 -45.476  44.388  0.00  0.00    +0.000 C 
BRANCH  33  34
ATOM     34  C   UNL     1      41.689 -44.448  44.837  0.00  0.00    +0.000 A 
ATOM     35  C   UNL     1      40.720 -43.996  43.923  0.00  0.00    +0.000 A 
ATOM     36  C   UNL     1      41.693 -43.907  46.132  0.00  0.00    +0.000 A 
ATOM     37  C   UNL     1      39.772 -43.044  44.301  0.00  0.00    +0.000 A 
ATOM     38  C   UNL     1      40.743 -42.956  46.509  0.00  0.00    +0.000 A 
ATOM     39  C   UNL     1      39.782 -42.527  45.595  0.00  0.00    +0.000 A 
ENDBRANCH  33  34
BRANCH  33  41
ATOM     40  O   UNL     1      41.986 -48.229  42.160  0.00  0.00    +0.000 OA
ATOM     41  N   UNL     1      42.070 -46.610  43.716  0.00  0.00    +0.000 N 
ATOM     42  C   UNL     1      42.233 -47.058  42.434  0.00  0.00    +0.000 C 
ATOM     43  H   UNL     1      41.670 -47.302  44.342  0.00  0.00    +0.000 HD
BRANCH  42  44
ATOM     44  C   UNL     1      42.750 -46.153  41.382  0.00  0.00    +0.000 A 
ATOM     45  C   UNL     1      41.930 -45.196  40.776  0.00  0.00    +0.000 A 
ATOM     46  C   UNL     1      44.070 -46.319  40.947  0.00  0.00    +0.000 A 
ATOM     47  C   UNL     1      42.449 -44.367  39.780  0.00  0.00    +0.000 A 
ATOM     48  C   UNL     1      44.585 -45.491  39.950  0.00  0.00    +0.000 A 
ATOM     49  C   UNL     1      43.776 -44.510  39.375  0.00  0.00    +0.000 A 
ENDBRANCH  42  44
ENDBRANCH  33  41
ENDBRANCH  30  33
ENDBRANCH  29  30
ENDBRANCH  27  29
ENDBRANCH  18  27
BRANCH  17  50
ATOM     50  O   UNL     1      48.309 -44.830  51.279  0.00  0.00    +0.000 OA
BRANCH  50  52
ATOM     51  O   UNL     1      47.986 -44.339  53.438  0.00  0.00    +0.000 OA
ATOM     52  C   UNL     1      47.652 -44.986  52.450  0.00  0.00    +0.000 C 
ATOM     53  C   UNL     1      46.576 -46.029  52.517  0.00  0.00    +0.000 C 
ENDBRANCH  50  52
ENDBRANCH  17  50
BRANCH   7  54
ATOM     54  O   UNL     1      48.117 -43.589  46.388  0.00  0.00    +0.000 OA
BRANCH  54  56
ATOM     55  O   UNL     1      49.004 -43.572  44.586  0.00  0.00    +0.000 OA
ATOM     56  C   UNL     1      47.869 -43.481  45.040  0.00  0.00    +0.000 C 
BRANCH  56  57
ATOM     57  C   UNL     1      46.179 -42.979  44.295  0.00  0.00    +0.000 A 
ATOM     58  C   UNL     1      45.146 -42.211  44.987  0.00  0.00    +0.000 A 
ATOM     59  C   UNL     1      45.737 -43.154  42.948  0.00  0.00    +0.000 A 
ATOM     60  C   UNL     1      43.933 -41.721  44.442  0.00  0.00    +0.000 A 
ATOM     61  C   UNL     1      44.522 -42.672  42.384  0.00  0.00    +0.000 A 
ATOM     62  C   UNL     1      43.619 -41.951  43.128  0.00  0.00    +0.000 A 
ENDBRANCH  56  57
ENDBRANCH  54  56
ENDBRANCH   7  54
BRANCH   4  63
ATOM     63  O   UNL     1      47.862 -40.520  45.469  0.00  0.00    +0.000 OA
BRANCH  63  65
ATOM     64  O   UNL     1      46.954 -38.550  44.928  0.00  0.00    +0.000 OA
ATOM     65  C   UNL     1      47.465 -39.604  44.556  0.00  0.00    +0.000 C 
ATOM     66  C   UNL     1      47.544 -39.937  43.101  0.00  0.00    +0.000 C 
ENDBRANCH  63  65
ENDBRANCH   4  63
TORSDOF 17
ENDMDL
MODEL 8
REMARK VINA RESULT:      -6.5      2.382      6.629
REMARK  Name = 
REMARK  23 active torsions:
REMARK  status: ('A' for Active; 'I' for Inactive)
REMARK    1  A    between atoms: O_2  and  C_17
REMARK    2  A    between atoms: O_2  and  C_36
REMARK    3  A    between atoms: O_3  and  C_20
REMARK    4  A    between atoms: O_3  and  C_37
REMARK    5  A    between atoms: O_4  and  C_21
REMARK    6  A    between atoms: O_5  and  C_22
REMARK    7  A    between atoms: O_6  and  C_30
REMARK    8  A    between atoms: O_6  and  C_39
REMARK    9  A    between atoms: O_8  and  C_31
REMARK   10  A    between atoms: O_8  and  C_40
REMARK   11  A    between atoms: O_13  and  C_42
REMARK   12  A    between atoms: N_15  and  C_46
REMARK   13  A    between atoms: C_18  and  C_29
REMARK   14  A    between atoms: C_24  and  C_33
REMARK   15  A    between atoms: C_24  and  C_34
REMARK   16  A    between atoms: C_32  and  C_35
REMARK   17  A    between atoms: C_36  and  C_38
REMARK   18  A    between atoms: C_37  and  C_41
REMARK   19  A    between atoms: C_39  and  C_43
REMARK   20  A    between atoms: C_40  and  C_42
REMARK   21  A    between atoms: C_42  and  C_46
REMARK   22  A    between atoms: C_46  and  C_50
REMARK   23  A    between atoms: C_53  and  C_56
REMARK                            x       y       z     vdW  Elec       q    Type
REMARK                         _______ _______ _______ _____ _____    ______ ____
ROOT
ATOM      1  O   UNL     1      50.111 -39.252  45.027  0.00  0.00    +0.000 OA
ATOM      2  O   UNL     1      47.844 -41.586  50.847  0.00  0.00    +0.000 OA
ATOM      3  C   UNL     1      49.298 -42.104  46.773  0.00  0.00    +0.000 C 
ATOM      4  C   UNL     1      49.152 -41.073  45.616  0.00  0.00    +0.000 C 
ATOM      5  C   UNL     1      48.221 -41.484  48.207  0.00  0.00    +0.000 C 
ATOM      6  C   UNL     1      49.889 -39.866  46.327  0.00  0.00    +0.000 C 
ATOM      7  C   UNL     1      49.208 -43.861  46.157  0.00  0.00    +0.000 C 
ATOM      8  C   UNL     1      49.222 -45.651  46.776  0.00  0.00    +0.000 C 
ATOM      9  C   UNL     1      48.833 -40.065  48.565  0.00  0.00    +0.000 C 
ATOM     10  C   UNL     1      49.080 -39.112  47.357  0.00  0.00    +0.000 C 
ATOM     11  C   UNL     1      49.076 -46.248  48.440  0.00  0.00    +0.000 C 
ATOM     12  C   UNL     1      50.182 -40.634  44.501  0.00  0.00    +0.000 C 
ATOM     13  C   UNL     1      47.907 -42.340  49.852  0.00  0.00    +0.000 C 
ATOM     14  C   UNL     1      47.939 -46.347  46.125  0.00  0.00    +0.000 C 
ATOM     15  C   UNL     1      47.766 -45.672  49.168  0.00  0.00    +0.000 C 
ATOM     16  C   UNL     1      46.746 -41.127  47.749  0.00  0.00    +0.000 C 
ATOM     17  C   UNL     1      47.693 -44.214  50.217  0.00  0.00    +0.000 C 
ATOM     18  C   UNL     1      46.602 -46.435  46.990  0.00  0.00    +0.000 C 
ATOM     19  C   UNL     1      46.616 -46.053  48.516  0.00  0.00    +0.000 C 
ATOM     20  C   UNL     1      48.897 -47.845  48.334  0.00  0.00    +0.000 C 
ATOM     21  C   UNL     1      50.351 -46.313  49.341  0.00  0.00    +0.000 C 
ATOM     22  C   UNL     1      45.246 -45.876  49.121  0.00  0.00    +0.000 C 
ENDROOT
BRANCH   9  23
ATOM     23  O   UNL     1      50.091 -40.251  49.212  0.00  0.00    +0.000 OA
ATOM     24  H   UNL     1      50.766 -40.259  48.503  0.00  0.00    +0.000 HD
ENDBRANCH   9  23
BRANCH   8  25
ATOM     25  O   UNL     1      50.375 -46.263  46.166  0.00  0.00    +0.000 OA
ATOM     26  H   UNL     1      51.070 -46.360  46.841  0.00  0.00    +0.000 HD
ENDBRANCH   8  25
BRANCH  18  27
ATOM     27  O   UNL     1      45.603 -45.581  46.361  0.00  0.00    +0.000 OA
BRANCH  27  29
ATOM     28  O   UNL     1      44.737 -46.912  44.749  0.00  0.00    +0.000 OA
ATOM     29  C   UNL     1      44.570 -46.202  45.735  0.00  0.00    +0.000 C 
BRANCH  29  30
ATOM     30  C   UNL     1      43.184 -45.814  46.260  0.00  0.00    +0.000 C 
BRANCH  30  31
ATOM     31  O   UNL     1      43.075 -44.483  46.776  0.00  0.00    +0.000 OA
ATOM     32  H   UNL     1      43.772 -43.964  46.334  0.00  0.00    +0.000 HD
ENDBRANCH  30  31
BRANCH  30  33
ATOM     33  C   UNL     1      42.768 -46.853  47.338  0.00  0.00    +0.000 C 
BRANCH  33  34
ATOM     34  C   UNL     1      42.103 -48.060  46.693  0.00  0.00    +0.000 A 
ATOM     35  C   UNL     1      42.746 -49.310  46.739  0.00  0.00    +0.000 A 
ATOM     36  C   UNL     1      40.875 -47.963  46.019  0.00  0.00    +0.000 A 
ATOM     37  C   UNL     1      42.167 -50.432  46.145  0.00  0.00    +0.000 A 
ATOM     38  C   UNL     1      40.298 -49.087  45.427  0.00  0.00    +0.000 A 
ATOM     39  C   UNL     1      40.942 -50.321  45.491  0.00  0.00    +0.000 A 
ENDBRANCH  33  34
BRANCH  33  41
ATOM     40  O   UNL     1      41.246 -45.786  50.441  0.00  0.00    +0.000 OA
ATOM     41  N   UNL     1      41.882 -46.233  48.332  0.00  0.00    +0.000 N 
ATOM     42  C   UNL     1      41.635 -46.614  49.623  0.00  0.00    +0.000 C 
ATOM     43  H   UNL     1      41.639 -45.266  48.139  0.00  0.00    +0.000 HD
BRANCH  42  44
ATOM     44  C   UNL     1      41.880 -48.010  50.053  0.00  0.00    +0.000 A 
ATOM     45  C   UNL     1      43.128 -48.417  50.532  0.00  0.00    +0.000 A 
ATOM     46  C   UNL     1      40.849 -48.945  49.904  0.00  0.00    +0.000 A 
ATOM     47  C   UNL     1      43.325 -49.743  50.920  0.00  0.00    +0.000 A 
ATOM     48  C   UNL     1      41.049 -50.271  50.289  0.00  0.00    +0.000 A 
ATOM     49  C   UNL     1      42.284 -50.666  50.805  0.00  0.00    +0.000 A 
ENDBRANCH  42  44
ENDBRANCH  33  41
ENDBRANCH  30  33
ENDBRANCH  29  30
ENDBRANCH  27  29
ENDBRANCH  18  27
BRANCH  17  50
ATOM     50  O   UNL     1      48.382 -44.626  51.417  0.00  0.00    +0.000 OA
BRANCH  50  52
ATOM     51  O   UNL     1      47.959 -44.208  53.574  0.00  0.00    +0.000 OA
ATOM     52  C   UNL     1      47.746 -44.895  52.579  0.00  0.00    +0.000 C 
ATOM     53  C   UNL     1      46.854 -46.099  52.628  0.00  0.00    +0.000 C 
ENDBRANCH  50  52
ENDBRANCH  17  50
BRANCH   7  54
ATOM     54  O   UNL     1      47.927 -43.802  46.456  0.00  0.00    +0.000 OA
BRANCH  54  56
ATOM     55  O   UNL     1      48.691 -43.998  44.608  0.00  0.00    +0.000 OA
ATOM     56  C   UNL     1      47.594 -43.802  45.122  0.00  0.00    +0.000 C 
BRANCH  56  57
ATOM     57  C   UNL     1      45.886 -43.273  44.439  0.00  0.00    +0.000 A 
ATOM     58  C   UNL     1      45.283 -43.763  43.202  0.00  0.00    +0.000 A 
ATOM     59  C   UNL     1      44.912 -42.448  45.080  0.00  0.00    +0.000 A 
ATOM     60  C   UNL     1      43.981 -43.488  42.715  0.00  0.00    +0.000 A 
ATOM     61  C   UNL     1      43.601 -42.159  44.607  0.00  0.00    +0.000 A 
ATOM     62  C   UNL     1      43.131 -42.680  43.425  0.00  0.00    +0.000 A 
ENDBRANCH  56  57
ENDBRANCH  54  56
ENDBRANCH   7  54
BRANCH   4  63
ATOM     63  O   UNL     1      47.767 -40.814  45.283  0.00  0.00    +0.000 OA
BRANCH  63  65
ATOM     64  O   UNL     1      47.520 -40.682  43.065  0.00  0.00    +0.000 OA
ATOM     65  C   UNL     1      47.354 -40.168  44.169  0.00  0.00    +0.000 C 
ATOM     66  C   UNL     1      46.807 -38.781  44.285  0.00  0.00    +0.000 C 
ENDBRANCH  63  65
ENDBRANCH   4  63
TORSDOF 17
ENDMDL
MODEL 9
REMARK VINA RESULT:      -6.4      2.525      8.206
REMARK  Name = 
REMARK  23 active torsions:
REMARK  status: ('A' for Active; 'I' for Inactive)
REMARK    1  A    between atoms: O_2  and  C_17
REMARK    2  A    between atoms: O_2  and  C_36
REMARK    3  A    between atoms: O_3  and  C_20
REMARK    4  A    between atoms: O_3  and  C_37
REMARK    5  A    between atoms: O_4  and  C_21
REMARK    6  A    between atoms: O_5  and  C_22
REMARK    7  A    between atoms: O_6  and  C_30
REMARK    8  A    between atoms: O_6  and  C_39
REMARK    9  A    between atoms: O_8  and  C_31
REMARK   10  A    between atoms: O_8  and  C_40
REMARK   11  A    between atoms: O_13  and  C_42
REMARK   12  A    between atoms: N_15  and  C_46
REMARK   13  A    between atoms: C_18  and  C_29
REMARK   14  A    between atoms: C_24  and  C_33
REMARK   15  A    between atoms: C_24  and  C_34
REMARK   16  A    between atoms: C_32  and  C_35
REMARK   17  A    between atoms: C_36  and  C_38
REMARK   18  A    between atoms: C_37  and  C_41
REMARK   19  A    between atoms: C_39  and  C_43
REMARK   20  A    between atoms: C_40  and  C_42
REMARK   21  A    between atoms: C_42  and  C_46
REMARK   22  A    between atoms: C_46  and  C_50
REMARK   23  A    between atoms: C_53  and  C_56
REMARK                            x       y       z     vdW  Elec       q    Type
REMARK                         _______ _______ _______ _____ _____    ______ ____
ROOT
ATOM      1  O   UNL     1      46.287 -46.608  52.626  0.00  0.00    +0.000 OA
ATOM      2  O   UNL     1      49.316 -41.452  49.678  0.00  0.00    +0.000 OA
ATOM      3  C   UNL     1      46.680 -44.920  49.653  0.00  0.00    +0.000 C 
ATOM      4  C   UNL     1      46.790 -46.154  50.595  0.00  0.00    +0.000 C 
ATOM      5  C   UNL     1      48.252 -43.889  49.905  0.00  0.00    +0.000 C 
ATOM      6  C   UNL     1      46.677 -45.372  51.967  0.00  0.00    +0.000 C 
ATOM      7  C   UNL     1      46.067 -45.390  47.956  0.00  0.00    +0.000 C 
ATOM      8  C   UNL     1      45.700 -44.646  46.254  0.00  0.00    +0.000 C 
ATOM      9  C   UNL     1      48.217 -43.496  51.441  0.00  0.00    +0.000 C 
ATOM     10  C   UNL     1      47.930 -44.666  52.430  0.00  0.00    +0.000 C 
ATOM     11  C   UNL     1      46.129 -43.040  45.632  0.00  0.00    +0.000 C 
ATOM     12  C   UNL     1      45.664 -46.979  51.336  0.00  0.00    +0.000 C 
ATOM     13  C   UNL     1      48.753 -42.326  48.985  0.00  0.00    +0.000 C 
ATOM     14  C   UNL     1      46.479 -45.561  45.201  0.00  0.00    +0.000 C 
ATOM     15  C   UNL     1      47.701 -42.746  45.774  0.00  0.00    +0.000 C 
ATOM     16  C   UNL     1      49.574 -44.758  49.794  0.00  0.00    +0.000 C 
ATOM     17  C   UNL     1      48.497 -41.880  47.133  0.00  0.00    +0.000 C 
ATOM     18  C   UNL     1      47.918 -45.087  44.702  0.00  0.00    +0.000 C 
ATOM     19  C   UNL     1      48.452 -43.652  45.062  0.00  0.00    +0.000 C 
ATOM     20  C   UNL     1      45.789 -43.059  44.058  0.00  0.00    +0.000 C 
ATOM     21  C   UNL     1      45.203 -41.824  45.957  0.00  0.00    +0.000 C 
ATOM     22  C   UNL     1      49.926 -43.459  44.807  0.00  0.00    +0.000 C 
ENDROOT
BRANCH   9  23
ATOM     23  O   UNL     1      47.197 -42.518  51.647  0.00  0.00    +0.000 OA
ATOM     24  H   UNL     1      47.498 -41.961  52.393  0.00  0.00    +0.000 HD
ENDBRANCH   9  23
BRANCH   8  25
ATOM     25  O   UNL     1      44.295 -44.866  46.029  0.00  0.00    +0.000 OA
ATOM     26  H   UNL     1      44.183 -45.698  45.537  0.00  0.00    +0.000 HD
ENDBRANCH   8  25
BRANCH  18  27
ATOM     27  O   UNL     1      48.904 -46.032  45.211  0.00  0.00    +0.000 OA
BRANCH  27  29
ATOM     28  O   UNL     1      48.838 -47.160  43.250  0.00  0.00    +0.000 OA
ATOM     29  C   UNL     1      49.365 -46.968  44.341  0.00  0.00    +0.000 C 
BRANCH  29  30
ATOM     30  C   UNL     1      50.479 -47.859  44.898  0.00  0.00    +0.000 C 
BRANCH  30  31
ATOM     31  O   UNL     1      50.377 -48.168  46.293  0.00  0.00    +0.000 OA
ATOM     32  H   UNL     1      51.149 -47.752  46.719  0.00  0.00    +0.000 HD
ENDBRANCH  30  31
BRANCH  30  33
ATOM     33  C   UNL     1      51.841 -47.177  44.590  0.00  0.00    +0.000 C 
BRANCH  33  34
ATOM     34  C   UNL     1      52.536 -46.759  45.878  0.00  0.00    +0.000 A 
ATOM     35  C   UNL     1      53.670 -47.467  46.312  0.00  0.00    +0.000 A 
ATOM     36  C   UNL     1      52.061 -45.703  46.671  0.00  0.00    +0.000 A 
ATOM     37  C   UNL     1      54.321 -47.115  47.496  0.00  0.00    +0.000 A 
ATOM     38  C   UNL     1      52.714 -45.352  47.854  0.00  0.00    +0.000 A 
ATOM     39  C   UNL     1      53.844 -46.056  48.265  0.00  0.00    +0.000 A 
ENDBRANCH  33  34
BRANCH  33  41
ATOM     40  O   UNL     1      52.275 -44.672  42.018  0.00  0.00    +0.000 OA
ATOM     41  N   UNL     1      51.649 -46.026  43.698  0.00  0.00    +0.000 N 
ATOM     42  C   UNL     1      52.587 -45.284  43.035  0.00  0.00    +0.000 C 
ATOM     43  H   UNL     1      50.713 -45.941  43.312  0.00  0.00    +0.000 HD
BRANCH  42  44
ATOM     44  C   UNL     1      53.989 -45.251  43.508  0.00  0.00    +0.000 A 
ATOM     45  C   UNL     1      54.923 -46.202  43.087  0.00  0.00    +0.000 A 
ATOM     46  C   UNL     1      54.354 -44.282  44.450  0.00  0.00    +0.000 A 
ATOM     47  C   UNL     1      56.235 -46.146  43.562  0.00  0.00    +0.000 A 
ATOM     48  C   UNL     1      55.664 -44.229  44.925  0.00  0.00    +0.000 A 
ATOM     49  C   UNL     1      56.605 -45.156  44.473  0.00  0.00    +0.000 A 
ENDBRANCH  42  44
ENDBRANCH  33  41
ENDBRANCH  30  33
ENDBRANCH  29  30
ENDBRANCH  27  29
ENDBRANCH  18  27
BRANCH  17  50
ATOM     50  O   UNL     1      48.087 -40.508  46.947  0.00  0.00    +0.000 OA
BRANCH  50  52
ATOM     51  O   UNL     1      49.001 -38.549  47.526  0.00  0.00    +0.000 OA
ATOM     52  C   UNL     1      48.961 -39.497  46.746  0.00  0.00    +0.000 C 
ATOM     53  C   UNL     1      49.803 -39.533  45.506  0.00  0.00    +0.000 C 
ENDBRANCH  50  52
ENDBRANCH  17  50
BRANCH   7  54
ATOM     54  O   UNL     1      47.338 -45.456  47.618  0.00  0.00    +0.000 OA
BRANCH  54  56
ATOM     55  O   UNL     1      48.499 -47.092  47.733  0.00  0.00    +0.000 OA
ATOM     56  C   UNL     1      47.302 -46.830  47.674  0.00  0.00    +0.000 C 
BRANCH  56  57
ATOM     57  C   UNL     1      45.729 -47.878  47.374  0.00  0.00    +0.000 A 
ATOM     58  C   UNL     1      45.569 -48.878  46.320  0.00  0.00    +0.000 A 
ATOM     59  C   UNL     1      44.558 -47.939  48.188  0.00  0.00    +0.000 A 
ATOM     60  C   UNL     1      44.472 -49.754  46.129  0.00  0.00    +0.000 A 
ATOM     61  C   UNL     1      43.445 -48.810  48.011  0.00  0.00    +0.000 A 
ATOM     62  C   UNL     1      43.401 -49.721  46.984  0.00  0.00    +0.000 A 
ENDBRANCH  56  57
ENDBRANCH  54  56
ENDBRANCH   7  54
BRANCH   4  63
ATOM     63  O   UNL     1      48.034 -46.871  50.418  0.00  0.00    +0.000 OA
BRANCH  63  65
ATOM     64  O   UNL     1      47.622 -49.068  50.397  0.00  0.00    +0.000 OA
ATOM     65  C   UNL     1      48.265 -48.128  50.860  0.00  0.00    +0.000 C 
ATOM     66  C   UNL     1      49.218 -48.345  51.992  0.00  0.00    +0.000 C 
ENDBRANCH  63  65
ENDBRANCH   4  63
TORSDOF 17
ENDMDL
