MODEL 1
REMARK VINA RESULT:      -7.8      0.000      0.000
REMARK  Name = 
REMARK  5 active torsions:
REMARK  status: ('A' for Active; 'I' for Inactive)
REMARK    1  A    between atoms: O_1  and  C_16
REMARK    2  A    between atoms: O_3  and  C_25
REMARK    3  A    between atoms: C_11  and  C_22
REMARK    4  A    between atoms: C_16  and  C_28
REMARK    5  A    between atoms: C_29  and  C_31
REMARK                            x       y       z     vdW  Elec       q    Type
REMARK                         _______ _______ _______ _____ _____    ______ ____
ROOT
ATOM      1  O   UNL     1      48.561 -41.645  46.896  0.00  0.00    +0.000 OA
ATOM      2  N   UNL     1      51.780 -32.774  45.843  0.00  0.00    +0.000 NA
ATOM      3  C   UNL     1      49.433 -35.812  46.145  0.00  0.00    +0.000 C 
ATOM      4  C   UNL     1      49.114 -37.056  45.272  0.00  0.00    +0.000 C 
ATOM      5  C   UNL     1      48.873 -37.637  47.593  0.00  0.00    +0.000 C 
ATOM      6  C   UNL     1      49.235 -38.249  46.234  0.00  0.00    +0.000 C 
ATOM      7  C   UNL     1      50.566 -34.936  45.577  0.00  0.00    +0.000 C 
ATOM      8  C   UNL     1      49.693 -36.351  47.567  0.00  0.00    +0.000 C 
ATOM      9  C   UNL     1      49.060 -38.639  48.763  0.00  0.00    +0.000 C 
ATOM     10  C   UNL     1      50.263 -34.606  44.099  0.00  0.00    +0.000 C 
ATOM     11  C   UNL     1      50.029 -37.189  44.060  0.00  0.00    +0.000 C 
ATOM     12  C   UNL     1      48.118 -39.843  48.456  0.00  0.00    +0.000 C 
ATOM     13  C   UNL     1      50.127 -35.897  43.252  0.00  0.00    +0.000 C 
ATOM     14  C   UNL     1      51.299 -33.597  43.525  0.00  0.00    +0.000 C 
ATOM     15  C   UNL     1      48.374 -39.462  45.910  0.00  0.00    +0.000 C 
ATOM     16  C   UNL     1      50.737 -33.653  46.400  0.00  0.00    +0.000 C 
ATOM     17  C   UNL     1      51.426 -32.339  44.463  0.00  0.00    +0.000 C 
ATOM     18  C   UNL     1      48.597 -37.996  50.095  0.00  0.00    +0.000 C 
ATOM     19  C   UNL     1      48.412 -40.438  47.077  0.00  0.00    +0.000 C 
ATOM     20  C   UNL     1      50.535 -39.088  48.910  0.00  0.00    +0.000 C 
ATOM     21  C   UNL     1      48.105 -40.879  49.580  0.00  0.00    +0.000 C 
ATOM     22  C   UNL     1      48.510 -38.999  51.249  0.00  0.00    +0.000 C 
ATOM     23  C   UNL     1      47.678 -40.233  50.900  0.00  0.00    +0.000 C 
ATOM     24  C   UNL     1      52.485 -31.343  43.926  0.00  0.00    +0.000 C 
ATOM     25  C   UNL     1      51.953 -31.622  46.751  0.00  0.00    +0.000 C 
ATOM     26  C   UNL     1      50.927 -33.189  42.091  0.00  0.00    +0.000 C 
ATOM     27  C   UNL     1      53.054 -30.662  46.291  0.00  0.00    +0.000 C 
ATOM     28  C   UNL     1      52.744 -30.179  44.876  0.00  0.00    +0.000 C 
ATOM     29  C   UNL     1      54.443 -31.298  46.390  0.00  0.00    +0.000 C 
ENDROOT
BRANCH  14  30
ATOM     30  O   UNL     1      52.577 -34.253  43.468  0.00  0.00    +0.000 OA
ATOM     31  H   UNL     1      53.198 -33.573  43.138  0.00  0.00    +0.000 HD
ENDBRANCH  14  30
BRANCH  23  32
ATOM     32  O   UNL     1      47.805 -41.174  51.960  0.00  0.00    +0.000 OA
ATOM     33  H   UNL     1      48.601 -41.707  51.792  0.00  0.00    +0.000 HD
ENDBRANCH  23  32
TORSDOF 2
ENDMDL
MODEL 2
REMARK VINA RESULT:      -7.7     12.417     17.309
REMARK  Name = 
REMARK  5 active torsions:
REMARK  status: ('A' for Active; 'I' for Inactive)
REMARK    1  A    between atoms: O_1  and  C_16
REMARK    2  A    between atoms: O_3  and  C_25
REMARK    3  A    between atoms: C_11  and  C_22
REMARK    4  A    between atoms: C_16  and  C_28
REMARK    5  A    between atoms: C_29  and  C_31
REMARK                            x       y       z     vdW  Elec       q    Type
REMARK                         _______ _______ _______ _____ _____    ______ ____
ROOT
ATOM      1  O   UNL     1      45.249 -56.385  55.881  0.00  0.00    +0.000 OA
ATOM      2  N   UNL     1      48.020 -48.430  51.500  0.00  0.00    +0.000 NA
ATOM      3  C   UNL     1      46.372 -50.862  53.990  0.00  0.00    +0.000 C 
ATOM      4  C   UNL     1      45.213 -51.892  53.928  0.00  0.00    +0.000 C 
ATOM      5  C   UNL     1      46.870 -52.662  55.491  0.00  0.00    +0.000 C 
ATOM      6  C   UNL     1      45.804 -53.183  54.518  0.00  0.00    +0.000 C 
ATOM      7  C   UNL     1      46.689 -50.211  52.630  0.00  0.00    +0.000 C 
ATOM      8  C   UNL     1      47.561 -51.604  54.636  0.00  0.00    +0.000 C 
ATOM      9  C   UNL     1      47.711 -53.807  56.117  0.00  0.00    +0.000 C 
ATOM     10  C   UNL     1      45.387 -49.654  52.015  0.00  0.00    +0.000 C 
ATOM     11  C   UNL     1      44.662 -52.094  52.521  0.00  0.00    +0.000 C 
ATOM     12  C   UNL     1      46.700 -54.719  56.877  0.00  0.00    +0.000 C 
ATOM     13  C   UNL     1      44.332 -50.775  51.824  0.00  0.00    +0.000 C 
ATOM     14  C   UNL     1      45.677 -48.851  50.714  0.00  0.00    +0.000 C 
ATOM     15  C   UNL     1      44.821 -54.120  55.202  0.00  0.00    +0.000 C 
ATOM     16  C   UNL     1      47.740 -49.103  52.780  0.00  0.00    +0.000 C 
ATOM     17  C   UNL     1      46.794 -47.771  50.968  0.00  0.00    +0.000 C 
ATOM     18  C   UNL     1      48.708 -53.229  57.154  0.00  0.00    +0.000 C 
ATOM     19  C   UNL     1      45.587 -55.205  55.946  0.00  0.00    +0.000 C 
ATOM     20  C   UNL     1      48.503 -54.596  55.045  0.00  0.00    +0.000 C 
ATOM     21  C   UNL     1      47.391 -55.845  57.646  0.00  0.00    +0.000 C 
ATOM     22  C   UNL     1      49.392 -54.310  57.996  0.00  0.00    +0.000 C 
ATOM     23  C   UNL     1      48.398 -55.273  58.645  0.00  0.00    +0.000 C 
ATOM     24  C   UNL     1      47.124 -46.990  49.671  0.00  0.00    +0.000 C 
ATOM     25  C   UNL     1      49.112 -47.459  51.712  0.00  0.00    +0.000 C 
ATOM     26  C   UNL     1      44.392 -48.209  50.171  0.00  0.00    +0.000 C 
ATOM     27  C   UNL     1      49.520 -46.731  50.428  0.00  0.00    +0.000 C 
ATOM     28  C   UNL     1      48.298 -46.032  49.834  0.00  0.00    +0.000 C 
ATOM     29  C   UNL     1      50.186 -47.676  49.424  0.00  0.00    +0.000 C 
ENDROOT
BRANCH  14  30
ATOM     30  O   UNL     1      46.153 -49.773  49.718  0.00  0.00    +0.000 OA
ATOM     31  H   UNL     1      47.093 -49.927  49.943  0.00  0.00    +0.000 HD
ENDBRANCH  14  30
BRANCH  23  32
ATOM     32  O   UNL     1      49.130 -56.332  59.253  0.00  0.00    +0.000 OA
ATOM     33  H   UNL     1      50.075 -56.101  59.213  0.00  0.00    +0.000 HD
ENDBRANCH  23  32
TORSDOF 2
ENDMDL
MODEL 3
REMARK VINA RESULT:      -7.3     13.013     18.157
REMARK  Name = 
REMARK  5 active torsions:
REMARK  status: ('A' for Active; 'I' for Inactive)
REMARK    1  A    between atoms: O_1  and  C_16
REMARK    2  A    between atoms: O_3  and  C_25
REMARK    3  A    between atoms: C_11  and  C_22
REMARK    4  A    between atoms: C_16  and  C_28
REMARK    5  A    between atoms: C_29  and  C_31
REMARK                            x       y       z     vdW  Elec       q    Type
REMARK                         _______ _______ _______ _____ _____    ______ ____
ROOT
ATOM      1  O   UNL     1      45.090 -55.283  57.740  0.00  0.00    +0.000 OA
ATOM      2  N   UNL     1      44.368 -48.718  50.919  0.00  0.00    +0.000 NA
ATOM      3  C   UNL     1      45.277 -51.933  52.832  0.00  0.00    +0.000 C 
ATOM      4  C   UNL     1      46.202 -52.286  54.027  0.00  0.00    +0.000 C 
ATOM      5  C   UNL     1      44.303 -53.760  54.038  0.00  0.00    +0.000 C 
ATOM      6  C   UNL     1      45.313 -53.098  54.983  0.00  0.00    +0.000 C 
ATOM      7  C   UNL     1      45.210 -50.424  52.531  0.00  0.00    +0.000 C 
ATOM      8  C   UNL     1      43.914 -52.583  53.148  0.00  0.00    +0.000 C 
ATOM      9  C   UNL     1      43.198 -54.538  54.802  0.00  0.00    +0.000 C 
ATOM     10  C   UNL     1      46.644 -49.865  52.402  0.00  0.00    +0.000 C 
ATOM     11  C   UNL     1      46.811 -51.059  54.699  0.00  0.00    +0.000 C 
ATOM     12  C   UNL     1      43.936 -55.628  55.636  0.00  0.00    +0.000 C 
ATOM     13  C   UNL     1      47.458 -50.103  53.699  0.00  0.00    +0.000 C 
ATOM     14  C   UNL     1      46.629 -48.378  51.945  0.00  0.00    +0.000 C 
ATOM     15  C   UNL     1      46.026 -54.119  55.858  0.00  0.00    +0.000 C 
ATOM     16  C   UNL     1      44.401 -50.151  51.256  0.00  0.00    +0.000 C 
ATOM     17  C   UNL     1      45.741 -48.203  50.657  0.00  0.00    +0.000 C 
ATOM     18  C   UNL     1      42.260 -55.255  53.797  0.00  0.00    +0.000 C 
ATOM     19  C   UNL     1      44.997 -55.005  56.546  0.00  0.00    +0.000 C 
ATOM     20  C   UNL     1      42.349 -53.605  55.700  0.00  0.00    +0.000 C 
ATOM     21  C   UNL     1      42.970 -56.559  56.370  0.00  0.00    +0.000 C 
ATOM     22  C   UNL     1      41.304 -56.245  54.470  0.00  0.00    +0.000 C 
ATOM     23  C   UNL     1      42.025 -57.241  55.379  0.00  0.00    +0.000 C 
ATOM     24  C   UNL     1      45.683 -46.719  50.213  0.00  0.00    +0.000 C 
ATOM     25  C   UNL     1      43.485 -48.533  49.750  0.00  0.00    +0.000 C 
ATOM     26  C   UNL     1      48.058 -47.865  51.713  0.00  0.00    +0.000 C 
ATOM     27  C   UNL     1      43.339 -47.065  49.339  0.00  0.00    +0.000 C 
ATOM     28  C   UNL     1      44.721 -46.480  49.055  0.00  0.00    +0.000 C 
ATOM     29  C   UNL     1      42.575 -46.252  50.389  0.00  0.00    +0.000 C 
ENDROOT
BRANCH  14  30
ATOM     30  O   UNL     1      46.056 -47.592  53.004  0.00  0.00    +0.000 OA
ATOM     31  H   UNL     1      46.401 -46.687  52.864  0.00  0.00    +0.000 HD
ENDBRANCH  14  30
BRANCH  23  32
ATOM     32  O   UNL     1      41.045 -57.993  56.086  0.00  0.00    +0.000 OA
ATOM     33  H   UNL     1      41.071 -58.906  55.749  0.00  0.00    +0.000 HD
ENDBRANCH  23  32
TORSDOF 2
ENDMDL
MODEL 4
REMARK VINA RESULT:      -7.1     15.071     20.806
REMARK  Name = 
REMARK  5 active torsions:
REMARK  status: ('A' for Active; 'I' for Inactive)
REMARK    1  A    between atoms: O_1  and  C_16
REMARK    2  A    between atoms: O_3  and  C_25
REMARK    3  A    between atoms: C_11  and  C_22
REMARK    4  A    between atoms: C_16  and  C_28
REMARK    5  A    between atoms: C_29  and  C_31
REMARK                            x       y       z     vdW  Elec       q    Type
REMARK                         _______ _______ _______ _____ _____    ______ ____
ROOT
ATOM      1  O   UNL     1      48.686 -49.908  50.575  0.00  0.00    +0.000 OA
ATOM      2  N   UNL     1      43.745 -55.186  56.731  0.00  0.00    +0.000 NA
ATOM      3  C   UNL     1      45.432 -52.190  54.996  0.00  0.00    +0.000 C 
ATOM      4  C   UNL     1      46.894 -51.730  54.755  0.00  0.00    +0.000 C 
ATOM      5  C   UNL     1      45.529 -51.019  52.908  0.00  0.00    +0.000 C 
ATOM      6  C   UNL     1      46.967 -51.430  53.249  0.00  0.00    +0.000 C 
ATOM      7  C   UNL     1      45.324 -53.565  55.683  0.00  0.00    +0.000 C 
ATOM      8  C   UNL     1      44.731 -52.105  53.623  0.00  0.00    +0.000 C 
ATOM      9  C   UNL     1      45.321 -50.795  51.386  0.00  0.00    +0.000 C 
ATOM     10  C   UNL     1      46.202 -53.569  56.954  0.00  0.00    +0.000 C 
ATOM     11  C   UNL     1      47.929 -52.761  55.195  0.00  0.00    +0.000 C 
ATOM     12  C   UNL     1      46.309 -49.661  50.977  0.00  0.00    +0.000 C 
ATOM     13  C   UNL     1      47.684 -53.270  56.614  0.00  0.00    +0.000 C 
ATOM     14  C   UNL     1      46.007 -54.882  57.767  0.00  0.00    +0.000 C 
ATOM     15  C   UNL     1      47.976 -50.374  52.822  0.00  0.00    +0.000 C 
ATOM     16  C   UNL     1      43.866 -53.899  56.025  0.00  0.00    +0.000 C 
ATOM     17  C   UNL     1      44.478 -55.150  58.028  0.00  0.00    +0.000 C 
ATOM     18  C   UNL     1      43.879 -50.298  51.112  0.00  0.00    +0.000 C 
ATOM     19  C   UNL     1      47.747 -50.014  51.361  0.00  0.00    +0.000 C 
ATOM     20  C   UNL     1      45.567 -52.091  50.573  0.00  0.00    +0.000 C 
ATOM     21  C   UNL     1      46.150 -49.244  49.515  0.00  0.00    +0.000 C 
ATOM     22  C   UNL     1      43.673 -49.814  49.674  0.00  0.00    +0.000 C 
ATOM     23  C   UNL     1      44.717 -48.784  49.240  0.00  0.00    +0.000 C 
ATOM     24  C   UNL     1      44.265 -56.476  58.801  0.00  0.00    +0.000 C 
ATOM     25  C   UNL     1      42.311 -55.480  56.923  0.00  0.00    +0.000 C 
ATOM     26  C   UNL     1      46.798 -54.830  59.083  0.00  0.00    +0.000 C 
ATOM     27  C   UNL     1      42.066 -56.826  57.610  0.00  0.00    +0.000 C 
ATOM     28  C   UNL     1      42.795 -56.849  58.952  0.00  0.00    +0.000 C 
ATOM     29  C   UNL     1      42.468 -58.004  56.717  0.00  0.00    +0.000 C 
ENDROOT
BRANCH  14  30
ATOM     30  O   UNL     1      46.535 -55.970  56.989  0.00  0.00    +0.000 OA
ATOM     31  H   UNL     1      45.754 -56.380  56.565  0.00  0.00    +0.000 HD
ENDBRANCH  14  30
BRANCH  23  32
ATOM     32  O   UNL     1      44.548 -48.533  47.850  0.00  0.00    +0.000 OA
ATOM     33  H   UNL     1      45.423 -48.595  47.428  0.00  0.00    +0.000 HD
ENDBRANCH  23  32
TORSDOF 2
ENDMDL
MODEL 5
REMARK VINA RESULT:      -7.0     12.527     15.803
REMARK  Name = 
REMARK  5 active torsions:
REMARK  status: ('A' for Active; 'I' for Inactive)
REMARK    1  A    between atoms: O_1  and  C_16
REMARK    2  A    between atoms: O_3  and  C_25
REMARK    3  A    between atoms: C_11  and  C_22
REMARK    4  A    between atoms: C_16  and  C_28
REMARK    5  A    between atoms: C_29  and  C_31
REMARK                            x       y       z     vdW  Elec       q    Type
REMARK                         _______ _______ _______ _____ _____    ______ ____
ROOT
ATOM      1  O   UNL     1      48.554 -51.710  51.619  0.00  0.00    +0.000 OA
ATOM      2  N   UNL     1      40.737 -46.966  49.064  0.00  0.00    +0.000 NA
ATOM      3  C   UNL     1      43.597 -48.460  51.165  0.00  0.00    +0.000 C 
ATOM      4  C   UNL     1      44.008 -49.885  51.621  0.00  0.00    +0.000 C 
ATOM      5  C   UNL     1      45.987 -48.554  51.316  0.00  0.00    +0.000 C 
ATOM      6  C   UNL     1      45.493 -50.005  51.243  0.00  0.00    +0.000 C 
ATOM      7  C   UNL     1      42.379 -48.442  50.221  0.00  0.00    +0.000 C 
ATOM      8  C   UNL     1      44.873 -47.823  50.573  0.00  0.00    +0.000 C 
ATOM      9  C   UNL     1      47.454 -48.402  50.834  0.00  0.00    +0.000 C 
ATOM     10  C   UNL     1      41.230 -49.253  50.859  0.00  0.00    +0.000 C 
ATOM     11  C   UNL     1      43.157 -50.985  50.995  0.00  0.00    +0.000 C 
ATOM     12  C   UNL     1      48.313 -49.303  51.773  0.00  0.00    +0.000 C 
ATOM     13  C   UNL     1      41.659 -50.718  51.130  0.00  0.00    +0.000 C 
ATOM     14  C   UNL     1      39.926 -49.137  50.017  0.00  0.00    +0.000 C 
ATOM     15  C   UNL     1      46.333 -50.935  52.106  0.00  0.00    +0.000 C 
ATOM     16  C   UNL     1      41.934 -47.005  49.922  0.00  0.00    +0.000 C 
ATOM     17  C   UNL     1      39.582 -47.627  49.734  0.00  0.00    +0.000 C 
ATOM     18  C   UNL     1      47.925 -46.937  51.013  0.00  0.00    +0.000 C 
ATOM     19  C   UNL     1      47.806 -50.747  51.771  0.00  0.00    +0.000 C 
ATOM     20  C   UNL     1      47.619 -48.803  49.347  0.00  0.00    +0.000 C 
ATOM     21  C   UNL     1      49.811 -49.180  51.495  0.00  0.00    +0.000 C 
ATOM     22  C   UNL     1      49.432 -46.759  50.802  0.00  0.00    +0.000 C 
ATOM     23  C   UNL     1      50.266 -47.726  51.641  0.00  0.00    +0.000 C 
ATOM     24  C   UNL     1      38.308 -47.497  48.861  0.00  0.00    +0.000 C 
ATOM     25  C   UNL     1      40.443 -45.556  48.738  0.00  0.00    +0.000 C 
ATOM     26  C   UNL     1      38.761 -49.855  50.715  0.00  0.00    +0.000 C 
ATOM     27  C   UNL     1      39.238 -45.399  47.806  0.00  0.00    +0.000 C 
ATOM     28  C   UNL     1      38.017 -46.060  48.442  0.00  0.00    +0.000 C 
ATOM     29  C   UNL     1      39.525 -45.948  46.406  0.00  0.00    +0.000 C 
ENDROOT
BRANCH  14  30
ATOM     30  O   UNL     1      40.147 -49.798  48.759  0.00  0.00    +0.000 OA
ATOM     31  H   UNL     1      41.119 -49.811  48.646  0.00  0.00    +0.000 HD
ENDBRANCH  14  30
BRANCH  23  32
ATOM     32  O   UNL     1      51.628 -47.605  51.245  0.00  0.00    +0.000 OA
ATOM     33  H   UNL     1      52.153 -48.211  51.796  0.00  0.00    +0.000 HD
ENDBRANCH  23  32
TORSDOF 2
ENDMDL
MODEL 6
REMARK VINA RESULT:      -6.9     20.525     22.755
REMARK  Name = 
REMARK  5 active torsions:
REMARK  status: ('A' for Active; 'I' for Inactive)
REMARK    1  A    between atoms: O_1  and  C_16
REMARK    2  A    between atoms: O_3  and  C_25
REMARK    3  A    between atoms: C_11  and  C_22
REMARK    4  A    between atoms: C_16  and  C_28
REMARK    5  A    between atoms: C_29  and  C_31
REMARK                            x       y       z     vdW  Elec       q    Type
REMARK                         _______ _______ _______ _____ _____    ______ ____
ROOT
ATOM      1  O   UNL     1      53.337 -57.888  57.381  0.00  0.00    +0.000 OA
ATOM      2  N   UNL     1      44.755 -54.578  55.028  0.00  0.00    +0.000 NA
ATOM      3  C   UNL     1      48.320 -54.835  56.460  0.00  0.00    +0.000 C 
ATOM      4  C   UNL     1      48.996 -55.628  57.610  0.00  0.00    +0.000 C 
ATOM      5  C   UNL     1      50.584 -55.306  55.833  0.00  0.00    +0.000 C 
ATOM      6  C   UNL     1      50.228 -56.281  56.962  0.00  0.00    +0.000 C 
ATOM      7  C   UNL     1      46.837 -55.198  56.251  0.00  0.00    +0.000 C 
ATOM      8  C   UNL     1      49.211 -55.049  55.219  0.00  0.00    +0.000 C 
ATOM      9  C   UNL     1      51.736 -55.832  54.936  0.00  0.00    +0.000 C 
ATOM     10  C   UNL     1      46.094 -55.103  57.602  0.00  0.00    +0.000 C 
ATOM     11  C   UNL     1      48.070 -56.650  58.261  0.00  0.00    +0.000 C 
ATOM     12  C   UNL     1      52.964 -56.024  55.878  0.00  0.00    +0.000 C 
ATOM     13  C   UNL     1      46.721 -56.053  58.655  0.00  0.00    +0.000 C 
ATOM     14  C   UNL     1      44.563 -55.310  57.417  0.00  0.00    +0.000 C 
ATOM     15  C   UNL     1      51.412 -56.541  57.883  0.00  0.00    +0.000 C 
ATOM     16  C   UNL     1      46.187 -54.283  55.205  0.00  0.00    +0.000 C 
ATOM     17  C   UNL     1      44.006 -54.354  56.296  0.00  0.00    +0.000 C 
ATOM     18  C   UNL     1      52.110 -54.770  53.871  0.00  0.00    +0.000 C 
ATOM     19  C   UNL     1      52.622 -56.944  57.052  0.00  0.00    +0.000 C 
ATOM     20  C   UNL     1      51.354 -57.150  54.217  0.00  0.00    +0.000 C 
ATOM     21  C   UNL     1      54.225 -56.439  55.120  0.00  0.00    +0.000 C 
ATOM     22  C   UNL     1      53.399 -55.104  53.115  0.00  0.00    +0.000 C 
ATOM     23  C   UNL     1      54.572 -55.405  54.048  0.00  0.00    +0.000 C 
ATOM     24  C   UNL     1      42.489 -54.578  56.072  0.00  0.00    +0.000 C 
ATOM     25  C   UNL     1      44.236 -53.733  53.933  0.00  0.00    +0.000 C 
ATOM     26  C   UNL     1      43.821 -55.105  58.746  0.00  0.00    +0.000 C 
ATOM     27  C   UNL     1      42.757 -53.992  53.630  0.00  0.00    +0.000 C 
ATOM     28  C   UNL     1      41.936 -53.776  54.899  0.00  0.00    +0.000 C 
ATOM     29  C   UNL     1      42.534 -55.383  53.029  0.00  0.00    +0.000 C 
ENDROOT
BRANCH  14  30
ATOM     30  O   UNL     1      44.343 -56.670  57.006  0.00  0.00    +0.000 OA
ATOM     31  H   UNL     1      43.881 -56.604  56.146  0.00  0.00    +0.000 HD
ENDBRANCH  14  30
BRANCH  23  32
ATOM     32  O   UNL     1      55.663 -55.872  53.262  0.00  0.00    +0.000 OA
ATOM     33  H   UNL     1      55.652 -56.844  53.287  0.00  0.00    +0.000 HD
ENDBRANCH  23  32
TORSDOF 2
ENDMDL
MODEL 7
REMARK VINA RESULT:      -6.9      9.603     13.934
REMARK  Name = 
REMARK  5 active torsions:
REMARK  status: ('A' for Active; 'I' for Inactive)
REMARK    1  A    between atoms: O_1  and  C_16
REMARK    2  A    between atoms: O_3  and  C_25
REMARK    3  A    between atoms: C_11  and  C_22
REMARK    4  A    between atoms: C_16  and  C_28
REMARK    5  A    between atoms: C_29  and  C_31
REMARK                            x       y       z     vdW  Elec       q    Type
REMARK                         _______ _______ _______ _____ _____    ______ ____
ROOT
ATOM      1  O   UNL     1      39.690 -49.279  51.997  0.00  0.00    +0.000 OA
ATOM      2  N   UNL     1      48.221 -46.054  49.358  0.00  0.00    +0.000 NA
ATOM      3  C   UNL     1      44.998 -48.150  49.570  0.00  0.00    +0.000 C 
ATOM      4  C   UNL     1      44.384 -49.134  50.601  0.00  0.00    +0.000 C 
ATOM      5  C   UNL     1      42.611 -47.970  49.468  0.00  0.00    +0.000 C 
ATOM      6  C   UNL     1      42.945 -48.634  50.810  0.00  0.00    +0.000 C 
ATOM      7  C   UNL     1      46.307 -47.494  50.050  0.00  0.00    +0.000 C 
ATOM      8  C   UNL     1      43.875 -47.152  49.218  0.00  0.00    +0.000 C 
ATOM      9  C   UNL     1      41.232 -47.259  49.485  0.00  0.00    +0.000 C 
ATOM     10  C   UNL     1      47.282 -48.592  50.529  0.00  0.00    +0.000 C 
ATOM     11  C   UNL     1      45.171 -49.207  51.906  0.00  0.00    +0.000 C 
ATOM     12  C   UNL     1      40.180 -48.363  49.807  0.00  0.00    +0.000 C 
ATOM     13  C   UNL     1      46.665 -49.428  51.679  0.00  0.00    +0.000 C 
ATOM     14  C   UNL     1      48.675 -47.994  50.879  0.00  0.00    +0.000 C 
ATOM     15  C   UNL     1      41.917 -49.688  51.193  0.00  0.00    +0.000 C 
ATOM     16  C   UNL     1      46.941 -46.648  48.938  0.00  0.00    +0.000 C 
ATOM     17  C   UNL     1      49.214 -47.114  49.690  0.00  0.00    +0.000 C 
ATOM     18  C   UNL     1      40.911 -46.684  48.082  0.00  0.00    +0.000 C 
ATOM     19  C   UNL     1      40.520 -49.089  51.111  0.00  0.00    +0.000 C 
ATOM     20  C   UNL     1      41.188 -46.107  50.520  0.00  0.00    +0.000 C 
ATOM     21  C   UNL     1      38.745 -47.840  49.754  0.00  0.00    +0.000 C 
ATOM     22  C   UNL     1      39.466 -46.193  47.950  0.00  0.00    +0.000 C 
ATOM     23  C   UNL     1      38.441 -47.244  48.377  0.00  0.00    +0.000 C 
ATOM     24  C   UNL     1      50.583 -46.477  50.040  0.00  0.00    +0.000 C 
ATOM     25  C   UNL     1      48.705 -45.174  48.275  0.00  0.00    +0.000 C 
ATOM     26  C   UNL     1      49.669 -49.105  51.247  0.00  0.00    +0.000 C 
ATOM     27  C   UNL     1      50.016 -44.463  48.625  0.00  0.00    +0.000 C 
ATOM     28  C   UNL     1      51.077 -45.503  48.975  0.00  0.00    +0.000 C 
ATOM     29  C   UNL     1      49.825 -43.436  49.745  0.00  0.00    +0.000 C 
ENDROOT
BRANCH  14  30
ATOM     30  O   UNL     1      48.522 -47.152  52.034  0.00  0.00    +0.000 OA
ATOM     31  H   UNL     1      49.275 -47.380  52.616  0.00  0.00    +0.000 HD
ENDBRANCH  14  30
BRANCH  23  32
ATOM     32  O   UNL     1      37.154 -46.638  48.387  0.00  0.00    +0.000 OA
ATOM     33  H   UNL     1      36.490 -47.349  48.408  0.00  0.00    +0.000 HD
ENDBRANCH  23  32
TORSDOF 2
ENDMDL
MODEL 8
REMARK VINA RESULT:      -6.5      8.475     13.248
REMARK  Name = 
REMARK  5 active torsions:
REMARK  status: ('A' for Active; 'I' for Inactive)
REMARK    1  A    between atoms: O_1  and  C_16
REMARK    2  A    between atoms: O_3  and  C_25
REMARK    3  A    between atoms: C_11  and  C_22
REMARK    4  A    between atoms: C_16  and  C_28
REMARK    5  A    between atoms: C_29  and  C_31
REMARK                            x       y       z     vdW  Elec       q    Type
REMARK                         _______ _______ _______ _____ _____    ______ ____
ROOT
ATOM      1  O   UNL     1      38.505 -47.666  51.301  0.00  0.00    +0.000 OA
ATOM      2  N   UNL     1      47.121 -44.570  48.785  0.00  0.00    +0.000 NA
ATOM      3  C   UNL     1      44.144 -46.875  49.592  0.00  0.00    +0.000 C 
ATOM      4  C   UNL     1      43.370 -47.274  50.877  0.00  0.00    +0.000 C 
ATOM      5  C   UNL     1      41.858 -47.292  49.007  0.00  0.00    +0.000 C 
ATOM      6  C   UNL     1      41.889 -47.061  50.524  0.00  0.00    +0.000 C 
ATOM      7  C   UNL     1      45.223 -45.802  49.833  0.00  0.00    +0.000 C 
ATOM      8  C   UNL     1      43.069 -46.479  48.558  0.00  0.00    +0.000 C 
ATOM      9  C   UNL     1      40.466 -46.993  48.390  0.00  0.00    +0.000 C 
ATOM     10  C   UNL     1      46.131 -46.245  51.001  0.00  0.00    +0.000 C 
ATOM     11  C   UNL     1      43.796 -46.479  52.107  0.00  0.00    +0.000 C 
ATOM     12  C   UNL     1      39.465 -47.959  49.094  0.00  0.00    +0.000 C 
ATOM     13  C   UNL     1      45.311 -46.461  52.299  0.00  0.00    +0.000 C 
ATOM     14  C   UNL     1      47.330 -45.270  51.183  0.00  0.00    +0.000 C 
ATOM     15  C   UNL     1      40.891 -47.948  51.253  0.00  0.00    +0.000 C 
ATOM     16  C   UNL     1      46.048 -45.554  48.563  0.00  0.00    +0.000 C 
ATOM     17  C   UNL     1      48.081 -45.055  49.816  0.00  0.00    +0.000 C 
ATOM     18  C   UNL     1      40.470 -47.327  46.877  0.00  0.00    +0.000 C 
ATOM     19  C   UNL     1      39.517 -47.797  50.615  0.00  0.00    +0.000 C 
ATOM     20  C   UNL     1      40.058 -45.510  48.575  0.00  0.00    +0.000 C 
ATOM     21  C   UNL     1      38.053 -47.864  48.516  0.00  0.00    +0.000 C 
ATOM     22  C   UNL     1      39.073 -47.302  46.251  0.00  0.00    +0.000 C 
ATOM     23  C   UNL     1      38.066 -48.162  47.016  0.00  0.00    +0.000 C 
ATOM     24  C   UNL     1      49.254 -44.053  49.972  0.00  0.00    +0.000 C 
ATOM     25  C   UNL     1      47.791 -44.312  47.495  0.00  0.00    +0.000 C 
ATOM     26  C   UNL     1      48.286 -45.778  52.272  0.00  0.00    +0.000 C 
ATOM     27  C   UNL     1      48.901 -43.261  47.600  0.00  0.00    +0.000 C 
ATOM     28  C   UNL     1      49.921 -43.706  48.646  0.00  0.00    +0.000 C 
ATOM     29  C   UNL     1      48.340 -41.868  47.899  0.00  0.00    +0.000 C 
ENDROOT
BRANCH  14  30
ATOM     30  O   UNL     1      46.811 -44.002  51.621  0.00  0.00    +0.000 OA
ATOM     31  H   UNL     1      45.963 -43.897  51.145  0.00  0.00    +0.000 HD
ENDBRANCH  14  30
BRANCH  23  32
ATOM     32  O   UNL     1      36.773 -47.934  46.467  0.00  0.00    +0.000 OA
ATOM     33  H   UNL     1      36.177 -48.619  46.816  0.00  0.00    +0.000 HD
ENDBRANCH  23  32
TORSDOF 2
ENDMDL
MODEL 9
REMARK VINA RESULT:      -6.5     22.156     25.896
REMARK  Name = 
REMARK  5 active torsions:
REMARK  status: ('A' for Active; 'I' for Inactive)
REMARK    1  A    between atoms: O_1  and  C_16
REMARK    2  A    between atoms: O_3  and  C_25
REMARK    3  A    between atoms: C_11  and  C_22
REMARK    4  A    between atoms: C_16  and  C_28
REMARK    5  A    between atoms: C_29  and  C_31
REMARK                            x       y       z     vdW  Elec       q    Type
REMARK                         _______ _______ _______ _____ _____    ______ ____
ROOT
ATOM      1  O   UNL     1      39.276 -29.104  68.615  0.00  0.00    +0.000 OA
ATOM      2  N   UNL     1      48.092 -30.539  71.836  0.00  0.00    +0.000 NA
ATOM      3  C   UNL     1      44.689 -31.056  70.110  0.00  0.00    +0.000 C 
ATOM      4  C   UNL     1      43.222 -31.236  70.585  0.00  0.00    +0.000 C 
ATOM      5  C   UNL     1      43.231 -30.093  68.470  0.00  0.00    +0.000 C 
ATOM      6  C   UNL     1      42.417 -30.216  69.764  0.00  0.00    +0.000 C 
ATOM      7  C   UNL     1      45.678 -30.776  71.258  0.00  0.00    +0.000 C 
ATOM      8  C   UNL     1      44.648 -29.963  69.021  0.00  0.00    +0.000 C 
ATOM      9  C   UNL     1      42.676 -28.997  67.522  0.00  0.00    +0.000 C 
ATOM     10  C   UNL     1      45.501 -31.848  72.355  0.00  0.00    +0.000 C 
ATOM     11  C   UNL     1      43.049 -31.041  72.088  0.00  0.00    +0.000 C 
ATOM     12  C   UNL     1      41.211 -29.414  67.189  0.00  0.00    +0.000 C 
ATOM     13  C   UNL     1      44.051 -31.855  72.905  0.00  0.00    +0.000 C 
ATOM     14  C   UNL     1      46.582 -31.701  73.465  0.00  0.00    +0.000 C 
ATOM     15  C   UNL     1      40.964 -30.574  69.489  0.00  0.00    +0.000 C 
ATOM     16  C   UNL     1      47.124 -30.752  70.746  0.00  0.00    +0.000 C 
ATOM     17  C   UNL     1      48.022 -31.646  72.831  0.00  0.00    +0.000 C 
ATOM     18  C   UNL     1      43.482 -28.978  66.198  0.00  0.00    +0.000 C 
ATOM     19  C   UNL     1      40.388 -29.606  68.465  0.00  0.00    +0.000 C 
ATOM     20  C   UNL     1      42.739 -27.589  68.167  0.00  0.00    +0.000 C 
ATOM     21  C   UNL     1      40.554 -28.484  66.170  0.00  0.00    +0.000 C 
ATOM     22  C   UNL     1      42.841 -28.104  65.116  0.00  0.00    +0.000 C 
ATOM     23  C   UNL     1      41.369 -28.443  64.876  0.00  0.00    +0.000 C 
ATOM     24  C   UNL     1      49.107 -31.457  73.922  0.00  0.00    +0.000 C 
ATOM     25  C   UNL     1      49.440 -30.421  71.247  0.00  0.00    +0.000 C 
ATOM     26  C   UNL     1      46.466 -32.836  74.493  0.00  0.00    +0.000 C 
ATOM     27  C   UNL     1      50.526 -30.149  72.293  0.00  0.00    +0.000 C 
ATOM     28  C   UNL     1      50.504 -31.256  73.344  0.00  0.00    +0.000 C 
ATOM     29  C   UNL     1      50.379 -28.759  72.918  0.00  0.00    +0.000 C 
ENDROOT
BRANCH  14  30
ATOM     30  O   UNL     1      46.342 -30.465  74.159  0.00  0.00    +0.000 OA
ATOM     31  H   UNL     1      45.413 -30.518  74.460  0.00  0.00    +0.000 HD
ENDBRANCH  14  30
BRANCH  23  32
ATOM     32  O   UNL     1      40.824 -27.471  63.992  0.00  0.00    +0.000 OA
ATOM     33  H   UNL     1      41.548 -26.887  63.708  0.00  0.00    +0.000 HD
ENDBRANCH  23  32
TORSDOF 2
ENDMDL
