MODEL 1
REMARK VINA RESULT:      -7.4      0.000      0.000
REMARK  Name = PhIP.pdbqt.pdb
REMARK  2 active torsions:
REMARK  status: ('A' for Active; 'I' for Inactive)
REMARK    1  A    between atoms: N_4  and  C_9
REMARK    2  A    between atoms: C_7  and  C_10
REMARK                            x       y       z     vdW  Elec       q    Type
REMARK                         _______ _______ _______ _____ _____    ______ ____
ROOT
ATOM      1  N   UNL     1      49.443 -41.478  48.807  0.00  0.00    +0.000 N 
ATOM      2  N   UNL     1      49.997 -40.357  46.779  0.00  0.00    +0.000 NA
ATOM      3  N   UNL     1      49.813 -38.094  47.636  0.00  0.00    +0.000 NA
ATOM      4  C   UNL     1      49.444 -40.144  49.083  0.00  0.00    +0.000 C 
ATOM      5  C   UNL     1      49.800 -39.490  47.740  0.00  0.00    +0.000 C 
ATOM      6  C   UNL     1      48.907 -37.928  49.939  0.00  0.00    +0.000 C 
ATOM      7  C   UNL     1      48.991 -39.354  50.010  0.00  0.00    +0.000 C 
ATOM      8  C   UNL     1      49.744 -41.545  47.444  0.00  0.00    +0.000 C 
ATOM      9  C   UNL     1      48.533 -42.408  49.452  0.00  0.00    +0.000 C 
ATOM     10  C   UNL     1      49.397 -37.608  48.627  0.00  0.00    +0.000 C 
ENDROOT
BRANCH   6  11
ATOM     11  C   UNL     1      48.498 -37.008  50.982  0.00  0.00    +0.000 A 
ATOM     12  C   UNL     1      47.207 -36.474  50.994  0.00  0.00    +0.000 A 
ATOM     13  C   UNL     1      49.386 -36.639  51.995  0.00  0.00    +0.000 A 
ATOM     14  C   UNL     1      46.811 -35.590  51.996  0.00  0.00    +0.000 A 
ATOM     15  C   UNL     1      48.995 -35.755  52.999  0.00  0.00    +0.000 A 
ATOM     16  C   UNL     1      47.706 -35.230  52.998  0.00  0.00    +0.000 A 
ENDBRANCH   6  11
BRANCH   8  17
ATOM     17  N   UNL     1      49.719 -42.715  46.667  0.00  0.00    +0.000 NA
ATOM     18  H   UNL     1      49.185 -43.469  47.086  0.00  0.00    +0.000 HD
ATOM     19  H   UNL     1      49.491 -42.538  45.697  0.00  0.00    +0.000 HD
ENDBRANCH   8  17
TORSDOF 2
ENDMDL
MODEL 2
REMARK VINA RESULT:      -7.0      1.345      2.021
REMARK  Name = PhIP.pdbqt.pdb
REMARK  2 active torsions:
REMARK  status: ('A' for Active; 'I' for Inactive)
REMARK    1  A    between atoms: N_4  and  C_9
REMARK    2  A    between atoms: C_7  and  C_10
REMARK                            x       y       z     vdW  Elec       q    Type
REMARK                         _______ _______ _______ _____ _____    ______ ____
ROOT
ATOM      1  N   UNL     1      48.444 -42.478  50.436  0.00  0.00    +0.000 N 
ATOM      2  N   UNL     1      49.056 -42.055  48.173  0.00  0.00    +0.000 NA
ATOM      3  N   UNL     1      49.207 -39.639  48.358  0.00  0.00    +0.000 NA
ATOM      4  C   UNL     1      48.632 -41.133  50.325  0.00  0.00    +0.000 C 
ATOM      5  C   UNL     1      49.014 -40.936  48.851  0.00  0.00    +0.000 C 
ATOM      6  C   UNL     1      48.427 -38.715  50.524  0.00  0.00    +0.000 C 
ATOM      7  C   UNL     1      48.326 -40.062  50.993  0.00  0.00    +0.000 C 
ATOM      8  C   UNL     1      48.677 -42.964  49.147  0.00  0.00    +0.000 C 
ATOM      9  C   UNL     1      47.448 -43.057  51.321  0.00  0.00    +0.000 C 
ATOM     10  C   UNL     1      48.899 -38.844  49.173  0.00  0.00    +0.000 C 
ENDROOT
BRANCH   6  11
ATOM     11  C   UNL     1      48.186 -37.493  51.266  0.00  0.00    +0.000 A 
ATOM     12  C   UNL     1      49.196 -36.922  52.044  0.00  0.00    +0.000 A 
ATOM     13  C   UNL     1      46.940 -36.864  51.216  0.00  0.00    +0.000 A 
ATOM     14  C   UNL     1      48.967 -35.747  52.759  0.00  0.00    +0.000 A 
ATOM     15  C   UNL     1      46.706 -35.689  51.929  0.00  0.00    +0.000 A 
ATOM     16  C   UNL     1      47.721 -35.131  52.701  0.00  0.00    +0.000 A 
ENDBRANCH   6  11
BRANCH   8  17
ATOM     17  N   UNL     1      48.466 -44.289  48.731  0.00  0.00    +0.000 NA
ATOM     18  H   UNL     1      47.508 -44.602  48.847  0.00  0.00    +0.000 HD
ATOM     19  H   UNL     1      48.855 -44.481  47.817  0.00  0.00    +0.000 HD
ENDBRANCH   8  17
TORSDOF 2
ENDMDL
MODEL 3
REMARK VINA RESULT:      -6.6      3.412      5.083
REMARK  Name = PhIP.pdbqt.pdb
REMARK  2 active torsions:
REMARK  status: ('A' for Active; 'I' for Inactive)
REMARK    1  A    between atoms: N_4  and  C_9
REMARK    2  A    between atoms: C_7  and  C_10
REMARK                            x       y       z     vdW  Elec       q    Type
REMARK                         _______ _______ _______ _____ _____    ______ ____
ROOT
ATOM      1  N   UNL     1      48.597 -44.950  50.360  0.00  0.00    +0.000 N 
ATOM      2  N   UNL     1      47.331 -44.424  52.308  0.00  0.00    +0.000 NA
ATOM      3  N   UNL     1      47.247 -42.023  51.963  0.00  0.00    +0.000 NA
ATOM      4  C   UNL     1      48.387 -43.604  50.340  0.00  0.00    +0.000 C 
ATOM      5  C   UNL     1      47.577 -43.340  51.618  0.00  0.00    +0.000 C 
ATOM      6  C   UNL     1      48.647 -41.196  50.089  0.00  0.00    +0.000 C 
ATOM      7  C   UNL     1      48.882 -42.564  49.742  0.00  0.00    +0.000 C 
ATOM      8  C   UNL     1      47.985 -45.375  51.542  0.00  0.00    +0.000 C 
ATOM      9  C   UNL     1      49.813 -45.558  49.848  0.00  0.00    +0.000 C 
ATOM     10  C   UNL     1      47.788 -41.265  51.239  0.00  0.00    +0.000 C 
ENDROOT
BRANCH   6  11
ATOM     11  C   UNL     1      49.103 -40.009  49.392  0.00  0.00    +0.000 A 
ATOM     12  C   UNL     1      49.430 -40.062  48.036  0.00  0.00    +0.000 A 
ATOM     13  C   UNL     1      49.222 -38.791  50.065  0.00  0.00    +0.000 A 
ATOM     14  C   UNL     1      49.869 -38.922  47.364  0.00  0.00    +0.000 A 
ATOM     15  C   UNL     1      49.661 -37.648  49.398  0.00  0.00    +0.000 A 
ATOM     16  C   UNL     1      49.984 -37.716  48.046  0.00  0.00    +0.000 A 
ENDBRANCH   6  11
BRANCH   8  17
ATOM     17  N   UNL     1      48.058 -46.675  52.069  0.00  0.00    +0.000 NA
ATOM     18  H   UNL     1      47.330 -46.880  52.745  0.00  0.00    +0.000 HD
ATOM     19  H   UNL     1      48.168 -47.384  51.354  0.00  0.00    +0.000 HD
ENDBRANCH   8  17
TORSDOF 2
ENDMDL
MODEL 4
REMARK VINA RESULT:      -6.5      4.626      8.738
REMARK  Name = PhIP.pdbqt.pdb
REMARK  2 active torsions:
REMARK  status: ('A' for Active; 'I' for Inactive)
REMARK    1  A    between atoms: N_4  and  C_9
REMARK    2  A    between atoms: C_7  and  C_10
REMARK                            x       y       z     vdW  Elec       q    Type
REMARK                         _______ _______ _______ _____ _____    ______ ____
ROOT
ATOM      1  N   UNL     1      48.001 -42.397  49.715  0.00  0.00    +0.000 N 
ATOM      2  N   UNL     1      47.293 -41.661  51.868  0.00  0.00    +0.000 NA
ATOM      3  N   UNL     1      47.710 -43.745  53.040  0.00  0.00    +0.000 NA
ATOM      4  C   UNL     1      48.201 -43.438  50.571  0.00  0.00    +0.000 C 
ATOM      5  C   UNL     1      47.721 -42.897  51.926  0.00  0.00    +0.000 C 
ATOM      6  C   UNL     1      48.330 -45.651  51.579  0.00  0.00    +0.000 C 
ATOM      7  C   UNL     1      48.399 -44.719  50.496  0.00  0.00    +0.000 C 
ATOM      8  C   UNL     1      47.445 -41.397  50.516  0.00  0.00    +0.000 C 
ATOM      9  C   UNL     1      47.616 -42.590  48.328  0.00  0.00    +0.000 C 
ATOM     10  C   UNL     1      47.967 -44.849  52.714  0.00  0.00    +0.000 C 
ENDROOT
BRANCH   6  11
ATOM     11  C   UNL     1      48.635 -47.069  51.555  0.00  0.00    +0.000 A 
ATOM     12  C   UNL     1      47.650 -48.013  51.851  0.00  0.00    +0.000 A 
ATOM     13  C   UNL     1      49.918 -47.515  51.233  0.00  0.00    +0.000 A 
ATOM     14  C   UNL     1      47.940 -49.377  51.828  0.00  0.00    +0.000 A 
ATOM     15  C   UNL     1      50.214 -48.877  51.210  0.00  0.00    +0.000 A 
ATOM     16  C   UNL     1      49.223 -49.808  51.508  0.00  0.00    +0.000 A 
ENDBRANCH   6  11
BRANCH   8  17
ATOM     17  N   UNL     1      46.937 -40.174  50.048  0.00  0.00    +0.000 NA
ATOM     18  H   UNL     1      46.745 -39.505  50.786  0.00  0.00    +0.000 HD
ATOM     19  H   UNL     1      47.473 -39.795  49.277  0.00  0.00    +0.000 HD
ENDBRANCH   8  17
TORSDOF 2
ENDMDL
MODEL 5
REMARK VINA RESULT:      -6.3      3.261      7.456
REMARK  Name = PhIP.pdbqt.pdb
REMARK  2 active torsions:
REMARK  status: ('A' for Active; 'I' for Inactive)
REMARK    1  A    between atoms: N_4  and  C_9
REMARK    2  A    between atoms: C_7  and  C_10
REMARK                            x       y       z     vdW  Elec       q    Type
REMARK                         _______ _______ _______ _____ _____    ______ ____
ROOT
ATOM      1  N   UNL     1      49.236 -40.439  49.364  0.00  0.00    +0.000 N 
ATOM      2  N   UNL     1      47.511 -39.860  50.902  0.00  0.00    +0.000 NA
ATOM      3  N   UNL     1      47.204 -42.075  51.844  0.00  0.00    +0.000 NA
ATOM      4  C   UNL     1      48.932 -41.571  50.058  0.00  0.00    +0.000 C 
ATOM      5  C   UNL     1      47.819 -41.126  51.018  0.00  0.00    +0.000 C 
ATOM      6  C   UNL     1      48.465 -43.875  50.694  0.00  0.00    +0.000 C 
ATOM      7  C   UNL     1      49.115 -42.851  49.936  0.00  0.00    +0.000 C 
ATOM      8  C   UNL     1      48.360 -39.479  49.876  0.00  0.00    +0.000 C 
ATOM      9  C   UNL     1      49.639 -40.463  47.969  0.00  0.00    +0.000 C 
ATOM     10  C   UNL     1      47.572 -43.160  51.563  0.00  0.00    +0.000 C 
ENDROOT
BRANCH   6  11
ATOM     11  C   UNL     1      48.708 -45.304  50.653  0.00  0.00    +0.000 A 
ATOM     12  C   UNL     1      49.383 -45.880  49.575  0.00  0.00    +0.000 A 
ATOM     13  C   UNL     1      48.274 -46.130  51.692  0.00  0.00    +0.000 A 
ATOM     14  C   UNL     1      49.619 -47.253  49.534  0.00  0.00    +0.000 A 
ATOM     15  C   UNL     1      48.506 -47.504  51.656  0.00  0.00    +0.000 A 
ATOM     16  C   UNL     1      49.180 -48.065  50.575  0.00  0.00    +0.000 A 
ENDBRANCH   6  11
BRANCH   8  17
ATOM     17  N   UNL     1      48.201 -38.177  49.370  0.00  0.00    +0.000 NA
ATOM     18  H   UNL     1      49.030 -37.601  49.468  0.00  0.00    +0.000 HD
ATOM     19  H   UNL     1      47.794 -38.163  48.443  0.00  0.00    +0.000 HD
ENDBRANCH   8  17
TORSDOF 2
ENDMDL
MODEL 6
REMARK VINA RESULT:      -6.2      2.633      5.545
REMARK  Name = PhIP.pdbqt.pdb
REMARK  2 active torsions:
REMARK  status: ('A' for Active; 'I' for Inactive)
REMARK    1  A    between atoms: N_4  and  C_9
REMARK    2  A    between atoms: C_7  and  C_10
REMARK                            x       y       z     vdW  Elec       q    Type
REMARK                         _______ _______ _______ _____ _____    ______ ____
ROOT
ATOM      1  N   UNL     1      49.488 -37.747  47.574  0.00  0.00    +0.000 N 
ATOM      2  N   UNL     1      48.481 -36.332  49.205  0.00  0.00    +0.000 NA
ATOM      3  N   UNL     1      48.078 -38.049  50.872  0.00  0.00    +0.000 NA
ATOM      4  C   UNL     1      49.213 -38.528  48.655  0.00  0.00    +0.000 C 
ATOM      5  C   UNL     1      48.566 -37.558  49.654  0.00  0.00    +0.000 C 
ATOM      6  C   UNL     1      48.547 -40.363  50.112  0.00  0.00    +0.000 C 
ATOM      7  C   UNL     1      49.103 -39.795  48.923  0.00  0.00    +0.000 C 
ATOM      8  C   UNL     1      49.016 -36.483  47.936  0.00  0.00    +0.000 C 
ATOM      9  C   UNL     1      49.416 -38.246  46.211  0.00  0.00    +0.000 C 
ATOM     10  C   UNL     1      48.127 -39.228  50.885  0.00  0.00    +0.000 C 
ENDROOT
BRANCH   6  11
ATOM     11  C   UNL     1      48.493 -41.763  50.488  0.00  0.00    +0.000 A 
ATOM     12  C   UNL     1      48.945 -42.753  49.614  0.00  0.00    +0.000 A 
ATOM     13  C   UNL     1      47.988 -42.145  51.733  0.00  0.00    +0.000 A 
ATOM     14  C   UNL     1      48.894 -44.099  49.973  0.00  0.00    +0.000 A 
ATOM     15  C   UNL     1      47.934 -43.490  52.097  0.00  0.00    +0.000 A 
ATOM     16  C   UNL     1      48.388 -44.467  51.215  0.00  0.00    +0.000 A 
ENDBRANCH   6  11
BRANCH   8  17
ATOM     17  N   UNL     1      48.952 -35.368  47.083  0.00  0.00    +0.000 NA
ATOM     18  H   UNL     1      48.124 -34.799  47.222  0.00  0.00    +0.000 HD
ATOM     19  H   UNL     1      49.816 -34.841  47.060  0.00  0.00    +0.000 HD
ENDBRANCH   8  17
TORSDOF 2
ENDMDL
MODEL 7
REMARK VINA RESULT:      -6.1     17.356     18.594
REMARK  Name = PhIP.pdbqt.pdb
REMARK  2 active torsions:
REMARK  status: ('A' for Active; 'I' for Inactive)
REMARK    1  A    between atoms: N_4  and  C_9
REMARK    2  A    between atoms: C_7  and  C_10
REMARK                            x       y       z     vdW  Elec       q    Type
REMARK                         _______ _______ _______ _____ _____    ______ ____
ROOT
ATOM      1  N   UNL     1      60.908 -47.044  59.406  0.00  0.00    +0.000 N 
ATOM      2  N   UNL     1      59.462 -46.005  60.989  0.00  0.00    +0.000 NA
ATOM      3  N   UNL     1      58.025 -47.922  61.375  0.00  0.00    +0.000 NA
ATOM      4  C   UNL     1      60.016 -47.993  59.806  0.00  0.00    +0.000 C 
ATOM      5  C   UNL     1      59.121 -47.256  60.812  0.00  0.00    +0.000 C 
ATOM      6  C   UNL     1      58.440 -49.849  59.869  0.00  0.00    +0.000 C 
ATOM      7  C   UNL     1      59.592 -49.149  59.391  0.00  0.00    +0.000 C 
ATOM      8  C   UNL     1      60.524 -45.898  60.105  0.00  0.00    +0.000 C 
ATOM      9  C   UNL     1      61.442 -46.994  58.057  0.00  0.00    +0.000 C 
ATOM     10  C   UNL     1      57.876 -48.971  60.857  0.00  0.00    +0.000 C 
ENDROOT
BRANCH   6  11
ATOM     11  C   UNL     1      57.988 -51.177  59.500  0.00  0.00    +0.000 A 
ATOM     12  C   UNL     1      58.205 -51.669  58.212  0.00  0.00    +0.000 A 
ATOM     13  C   UNL     1      57.330 -51.987  60.427  0.00  0.00    +0.000 A 
ATOM     14  C   UNL     1      57.772 -52.945  57.854  0.00  0.00    +0.000 A 
ATOM     15  C   UNL     1      56.895 -53.264  60.075  0.00  0.00    +0.000 A 
ATOM     16  C   UNL     1      57.116 -53.742  58.787  0.00  0.00    +0.000 A 
ENDBRANCH   6  11
BRANCH   8  17
ATOM     17  N   UNL     1      61.065 -44.615  59.916  0.00  0.00    +0.000 NA
ATOM     18  H   UNL     1      60.371 -43.913  59.683  0.00  0.00    +0.000 HD
ATOM     19  H   UNL     1      61.696 -44.341  60.658  0.00  0.00    +0.000 HD
ENDBRANCH   8  17
TORSDOF 2
ENDMDL
MODEL 8
REMARK VINA RESULT:      -6.1      2.911      4.962
REMARK  Name = PhIP.pdbqt.pdb
REMARK  2 active torsions:
REMARK  status: ('A' for Active; 'I' for Inactive)
REMARK    1  A    between atoms: N_4  and  C_9
REMARK    2  A    between atoms: C_7  and  C_10
REMARK                            x       y       z     vdW  Elec       q    Type
REMARK                         _______ _______ _______ _____ _____    ______ ____
ROOT
ATOM      1  N   UNL     1      48.565 -40.303  49.645  0.00  0.00    +0.000 N 
ATOM      2  N   UNL     1      48.029 -38.850  51.456  0.00  0.00    +0.000 NA
ATOM      3  N   UNL     1      48.236 -36.766  50.229  0.00  0.00    +0.000 NA
ATOM      4  C   UNL     1      48.579 -39.035  49.148  0.00  0.00    +0.000 C 
ATOM      5  C   UNL     1      48.233 -38.160  50.363  0.00  0.00    +0.000 C 
ATOM      6  C   UNL     1      49.139 -37.002  47.930  0.00  0.00    +0.000 C 
ATOM      7  C   UNL     1      49.038 -38.418  48.102  0.00  0.00    +0.000 C 
ATOM      8  C   UNL     1      48.266 -40.136  51.000  0.00  0.00    +0.000 C 
ATOM      9  C   UNL     1      49.461 -41.340  49.165  0.00  0.00    +0.000 C 
ATOM     10  C   UNL     1      48.656 -36.460  49.170  0.00  0.00    +0.000 C 
ENDROOT
BRANCH   6  11
ATOM     11  C   UNL     1      49.556 -36.275  46.747  0.00  0.00    +0.000 A 
ATOM     12  C   UNL     1      50.110 -34.998  46.854  0.00  0.00    +0.000 A 
ATOM     13  C   UNL     1      49.414 -36.841  45.478  0.00  0.00    +0.000 A 
ATOM     14  C   UNL     1      50.512 -34.297  45.718  0.00  0.00    +0.000 A 
ATOM     15  C   UNL     1      49.815 -36.145  44.338  0.00  0.00    +0.000 A 
ATOM     16  C   UNL     1      50.364 -34.872  44.460  0.00  0.00    +0.000 A 
ENDBRANCH   6  11
BRANCH   8  17
ATOM     17  N   UNL     1      48.279 -41.159  51.963  0.00  0.00    +0.000 NA
ATOM     18  H   UNL     1      49.050 -41.087  52.619  0.00  0.00    +0.000 HD
ATOM     19  H   UNL     1      47.377 -41.299  52.400  0.00  0.00    +0.000 HD
ENDBRANCH   8  17
TORSDOF 2
ENDMDL
MODEL 9
REMARK VINA RESULT:      -5.8     14.276     17.148
REMARK  Name = PhIP.pdbqt.pdb
REMARK  2 active torsions:
REMARK  status: ('A' for Active; 'I' for Inactive)
REMARK    1  A    between atoms: N_4  and  C_9
REMARK    2  A    between atoms: C_7  and  C_10
REMARK                            x       y       z     vdW  Elec       q    Type
REMARK                         _______ _______ _______ _____ _____    ______ ____
ROOT
ATOM      1  N   UNL     1      47.293 -54.956  59.163  0.00  0.00    +0.000 N 
ATOM      2  N   UNL     1      49.618 -55.470  59.085  0.00  0.00    +0.000 NA
ATOM      3  N   UNL     1      50.143 -54.148  57.118  0.00  0.00    +0.000 NA
ATOM      4  C   UNL     1      47.815 -54.254  58.119  0.00  0.00    +0.000 C 
ATOM      5  C   UNL     1      49.302 -54.637  58.126  0.00  0.00    +0.000 C 
ATOM      6  C   UNL     1      48.173 -53.182  55.962  0.00  0.00    +0.000 C 
ATOM      7  C   UNL     1      47.380 -53.640  57.060  0.00  0.00    +0.000 C 
ATOM      8  C   UNL     1      48.380 -55.669  59.674  0.00  0.00    +0.000 C 
ATOM      9  C   UNL     1      45.944 -55.496  59.144  0.00  0.00    +0.000 C 
ATOM     10  C   UNL     1      49.510 -53.588  56.296  0.00  0.00    +0.000 C 
ENDROOT
BRANCH   6  11
ATOM     11  C   UNL     1      47.740 -52.413  54.811  0.00  0.00    +0.000 A 
ATOM     12  C   UNL     1      48.274 -52.665  53.545  0.00  0.00    +0.000 A 
ATOM     13  C   UNL     1      46.781 -51.408  54.947  0.00  0.00    +0.000 A 
ATOM     14  C   UNL     1      47.860 -51.927  52.437  0.00  0.00    +0.000 A 
ATOM     15  C   UNL     1      46.363 -50.667  53.843  0.00  0.00    +0.000 A 
ATOM     16  C   UNL     1      46.905 -50.928  52.587  0.00  0.00    +0.000 A 
ENDBRANCH   6  11
BRANCH   8  17
ATOM     17  N   UNL     1      48.306 -56.647  60.680  0.00  0.00    +0.000 NA
ATOM     18  H   UNL     1      48.554 -56.301  61.601  0.00  0.00    +0.000 HD
ATOM     19  H   UNL     1      47.440 -57.171  60.655  0.00  0.00    +0.000 HD
ENDBRANCH   8  17
TORSDOF 2
ENDMDL
