MODEL 1
REMARK VINA RESULT:      -6.9      0.000      0.000
REMARK  Name = Piroxicam.pdbqt.pdb
REMARK  3 active torsions:
REMARK  status: ('A' for Active; 'I' for Inactive)
REMARK    1  A    between atoms: C_7  and  C_14
REMARK    2  A    between atoms: C_8  and  O_24
REMARK    3  A    between atoms: N_16  and  C_18
REMARK                            x       y       z     vdW  Elec       q    Type
REMARK                         _______ _______ _______ _____ _____    ______ ____
ROOT
ATOM      1  S   UNL     1      49.051 -40.232  45.848  0.00  0.00    +0.000 S 
ATOM      2  O   UNL     1      50.377 -40.722  45.520  0.00  0.00    +0.000 OA
ATOM      3  O   UNL     1      48.041 -40.082  44.819  0.00  0.00    +0.000 OA
ATOM      4  N   UNL     1      48.435 -41.156  47.164  0.00  0.00    +0.000 N 
ATOM      5  C   UNL     1      49.277 -38.673  46.614  0.00  0.00    +0.000 A 
ATOM      6  C   UNL     1      49.630 -38.664  47.962  0.00  0.00    +0.000 A 
ATOM      7  C   UNL     1      49.255 -41.094  48.341  0.00  0.00    +0.000 C 
ATOM      8  C   UNL     1      49.820 -39.921  48.711  0.00  0.00    +0.000 C 
ATOM      9  C   UNL     1      49.074 -37.509  45.882  0.00  0.00    +0.000 A 
ATOM     10  C   UNL     1      47.000 -41.062  47.481  0.00  0.00    +0.000 C 
ATOM     11  C   UNL     1      49.820 -37.422  48.571  0.00  0.00    +0.000 A 
ATOM     12  C   UNL     1      49.256 -36.284  46.513  0.00  0.00    +0.000 A 
ATOM     13  C   UNL     1      49.635 -36.239  47.853  0.00  0.00    +0.000 A 
ENDROOT
BRANCH   7  14
ATOM     14  C   UNL     1      49.479 -42.351  49.128  0.00  0.00    +0.000 C 
ATOM     15  O   UNL     1      49.256 -42.352  50.337  0.00  0.00    +0.000 OA
ATOM     16  N   UNL     1      49.933 -43.419  48.398  0.00  0.00    +0.000 N 
ATOM     17  H   UNL     1      50.028 -43.352  47.391  0.00  0.00    +0.000 HD
BRANCH  16  18
ATOM     18  C   UNL     1      50.245 -44.688  48.890  0.00  0.00    +0.000 A 
ATOM     19  N   UNL     1      49.194 -45.357  49.404  0.00  0.00    +0.000 NA
ATOM     20  C   UNL     1      49.439 -46.595  49.892  0.00  0.00    +0.000 A 
ATOM     21  C   UNL     1      50.683 -47.202  49.890  0.00  0.00    +0.000 A 
ATOM     22  C   UNL     1      51.742 -46.487  49.351  0.00  0.00    +0.000 A 
ATOM     23  C   UNL     1      51.529 -45.212  48.841  0.00  0.00    +0.000 A 
ENDBRANCH  16  18
ENDBRANCH   7  14
BRANCH   8  24
ATOM     24  O   UNL     1      50.620 -39.774  49.832  0.00  0.00    +0.000 OA
ATOM     25  H   UNL     1      50.075 -39.456  50.588  0.00  0.00    +0.000 HD
ENDBRANCH   8  24
TORSDOF 3
ENDMDL
MODEL 2
REMARK VINA RESULT:      -6.6      4.715      6.787
REMARK  Name = Piroxicam.pdbqt.pdb
REMARK  3 active torsions:
REMARK  status: ('A' for Active; 'I' for Inactive)
REMARK    1  A    between atoms: C_7  and  C_14
REMARK    2  A    between atoms: C_8  and  O_24
REMARK    3  A    between atoms: N_16  and  C_18
REMARK                            x       y       z     vdW  Elec       q    Type
REMARK                         _______ _______ _______ _____ _____    ______ ____
ROOT
ATOM      1  S   UNL     1      48.345 -45.738  49.331  0.00  0.00    +0.000 S 
ATOM      2  O   UNL     1      49.499 -46.434  49.870  0.00  0.00    +0.000 OA
ATOM      3  O   UNL     1      48.104 -45.701  47.902  0.00  0.00    +0.000 OA
ATOM      4  N   UNL     1      46.940 -46.283  50.164  0.00  0.00    +0.000 N 
ATOM      5  C   UNL     1      48.453 -44.087  49.905  0.00  0.00    +0.000 A 
ATOM      6  C   UNL     1      48.020 -43.828  51.204  0.00  0.00    +0.000 A 
ATOM      7  C   UNL     1      46.992 -46.062  51.582  0.00  0.00    +0.000 C 
ATOM      8  C   UNL     1      47.506 -44.908  52.069  0.00  0.00    +0.000 C 
ATOM      9  C   UNL     1      48.927 -43.092  49.058  0.00  0.00    +0.000 A 
ATOM     10  C   UNL     1      45.617 -45.962  49.600  0.00  0.00    +0.000 C 
ATOM     11  C   UNL     1      48.115 -42.514  51.665  0.00  0.00    +0.000 A 
ATOM     12  C   UNL     1      49.000 -41.789  49.535  0.00  0.00    +0.000 A 
ATOM     13  C   UNL     1      48.600 -41.500  50.839  0.00  0.00    +0.000 A 
ENDROOT
BRANCH   7  14
ATOM     14  C   UNL     1      46.485 -47.137  52.495  0.00  0.00    +0.000 C 
ATOM     15  O   UNL     1      45.834 -46.824  53.491  0.00  0.00    +0.000 OA
ATOM     16  N   UNL     1      46.811 -48.416  52.124  0.00  0.00    +0.000 N 
ATOM     17  H   UNL     1      47.295 -48.591  51.251  0.00  0.00    +0.000 HD
BRANCH  16  18
ATOM     18  C   UNL     1      46.488 -49.588  52.810  0.00  0.00    +0.000 A 
ATOM     19  N   UNL     1      45.499 -50.308  52.243  0.00  0.00    +0.000 NA
ATOM     20  C   UNL     1      45.148 -51.457  52.866  0.00  0.00    +0.000 A 
ATOM     21  C   UNL     1      45.737 -51.927  54.026  0.00  0.00    +0.000 A 
ATOM     22  C   UNL     1      46.753 -51.163  54.582  0.00  0.00    +0.000 A 
ATOM     23  C   UNL     1      47.140 -49.976  53.972  0.00  0.00    +0.000 A 
ENDBRANCH  16  18
ENDBRANCH   7  14
BRANCH   8  24
ATOM     24  O   UNL     1      47.590 -44.614  53.419  0.00  0.00    +0.000 OA
ATOM     25  H   UNL     1      48.490 -44.274  53.629  0.00  0.00    +0.000 HD
ENDBRANCH   8  24
TORSDOF 3
ENDMDL
MODEL 3
REMARK VINA RESULT:      -6.6     18.585     20.873
REMARK  Name = Piroxicam.pdbqt.pdb
REMARK  3 active torsions:
REMARK  status: ('A' for Active; 'I' for Inactive)
REMARK    1  A    between atoms: C_7  and  C_14
REMARK    2  A    between atoms: C_8  and  O_24
REMARK    3  A    between atoms: N_16  and  C_18
REMARK                            x       y       z     vdW  Elec       q    Type
REMARK                         _______ _______ _______ _____ _____    ______ ____
ROOT
ATOM      1  S   UNL     1      37.787 -26.967  54.305  0.00  0.00    +0.000 S 
ATOM      2  O   UNL     1      36.906 -27.590  53.334  0.00  0.00    +0.000 OA
ATOM      3  O   UNL     1      38.347 -25.653  54.060  0.00  0.00    +0.000 OA
ATOM      4  N   UNL     1      37.023 -27.016  55.848  0.00  0.00    +0.000 N 
ATOM      5  C   UNL     1      39.113 -28.083  54.555  0.00  0.00    +0.000 A 
ATOM      6  C   UNL     1      38.897 -29.156  55.418  0.00  0.00    +0.000 A 
ATOM      7  C   UNL     1      36.713 -28.346  56.292  0.00  0.00    +0.000 C 
ATOM      8  C   UNL     1      37.595 -29.352  56.084  0.00  0.00    +0.000 C 
ATOM      9  C   UNL     1      40.331 -27.858  53.925  0.00  0.00    +0.000 A 
ATOM     10  C   UNL     1      37.569 -26.182  56.932  0.00  0.00    +0.000 C 
ATOM     11  C   UNL     1      39.951 -30.051  55.610  0.00  0.00    +0.000 A 
ATOM     12  C   UNL     1      41.370 -28.756  54.142  0.00  0.00    +0.000 A 
ATOM     13  C   UNL     1      41.180 -29.854  54.978  0.00  0.00    +0.000 A 
ENDROOT
BRANCH   7  14
ATOM     14  C   UNL     1      35.397 -28.589  56.967  0.00  0.00    +0.000 C 
ATOM     15  O   UNL     1      35.381 -29.037  58.112  0.00  0.00    +0.000 OA
ATOM     16  N   UNL     1      34.293 -28.283  56.214  0.00  0.00    +0.000 N 
ATOM     17  H   UNL     1      34.395 -27.855  55.301  0.00  0.00    +0.000 HD
BRANCH  16  18
ATOM     18  C   UNL     1      32.959 -28.441  56.594  0.00  0.00    +0.000 A 
ATOM     19  N   UNL     1      32.484 -27.452  57.378  0.00  0.00    +0.000 NA
ATOM     20  C   UNL     1      31.194 -27.554  57.773  0.00  0.00    +0.000 A 
ATOM     21  C   UNL     1      30.350 -28.592  57.422  0.00  0.00    +0.000 A 
ATOM     22  C   UNL     1      30.869 -29.591  56.612  0.00  0.00    +0.000 A 
ATOM     23  C   UNL     1      32.190 -29.522  56.187  0.00  0.00    +0.000 A 
ENDBRANCH  16  18
ENDBRANCH   7  14
BRANCH   8  24
ATOM     24  O   UNL     1      37.376 -30.660  56.482  0.00  0.00    +0.000 OA
ATOM     25  H   UNL     1      37.098 -31.200  55.707  0.00  0.00    +0.000 HD
ENDBRANCH   8  24
TORSDOF 3
ENDMDL
MODEL 4
REMARK VINA RESULT:      -6.4      5.390     10.111
REMARK  Name = Piroxicam.pdbqt.pdb
REMARK  3 active torsions:
REMARK  status: ('A' for Active; 'I' for Inactive)
REMARK    1  A    between atoms: C_7  and  C_14
REMARK    2  A    between atoms: C_8  and  O_24
REMARK    3  A    between atoms: N_16  and  C_18
REMARK                            x       y       z     vdW  Elec       q    Type
REMARK                         _______ _______ _______ _____ _____    ______ ____
ROOT
ATOM      1  S   UNL     1      47.438 -50.309  50.373  0.00  0.00    +0.000 S 
ATOM      2  O   UNL     1      46.103 -50.158  49.827  0.00  0.00    +0.000 OA
ATOM      3  O   UNL     1      48.365 -51.271  49.810  0.00  0.00    +0.000 OA
ATOM      4  N   UNL     1      48.171 -48.753  50.466  0.00  0.00    +0.000 N 
ATOM      5  C   UNL     1      47.236 -50.683  52.072  0.00  0.00    +0.000 A 
ATOM      6  C   UNL     1      46.986 -49.621  52.939  0.00  0.00    +0.000 A 
ATOM      7  C   UNL     1      47.441 -47.823  51.281  0.00  0.00    +0.000 C 
ATOM      8  C   UNL     1      46.879 -48.236  52.442  0.00  0.00    +0.000 C 
ATOM      9  C   UNL     1      47.359 -51.997  52.508  0.00  0.00    +0.000 A 
ATOM     10  C   UNL     1      49.624 -48.670  50.695  0.00  0.00    +0.000 C 
ATOM     11  C   UNL     1      46.815 -49.920  54.292  0.00  0.00    +0.000 A 
ATOM     12  C   UNL     1      47.198 -52.268  53.862  0.00  0.00    +0.000 A 
ATOM     13  C   UNL     1      46.921 -51.233  54.752  0.00  0.00    +0.000 A 
ENDROOT
BRANCH   7  14
ATOM     14  C   UNL     1      47.304 -46.407  50.808  0.00  0.00    +0.000 C 
ATOM     15  O   UNL     1      46.484 -46.141  49.930  0.00  0.00    +0.000 OA
ATOM     16  N   UNL     1      48.141 -45.508  51.417  0.00  0.00    +0.000 N 
ATOM     17  H   UNL     1      48.742 -45.799  52.180  0.00  0.00    +0.000 HD
BRANCH  16  18
ATOM     18  C   UNL     1      48.234 -44.143  51.143  0.00  0.00    +0.000 A 
ATOM     19  N   UNL     1      47.647 -43.351  52.064  0.00  0.00    +0.000 NA
ATOM     20  C   UNL     1      47.711 -42.017  51.849  0.00  0.00    +0.000 A 
ATOM     21  C   UNL     1      48.334 -41.430  50.763  0.00  0.00    +0.000 A 
ATOM     22  C   UNL     1      48.931 -42.272  49.836  0.00  0.00    +0.000 A 
ATOM     23  C   UNL     1      48.885 -43.649  50.022  0.00  0.00    +0.000 A 
ENDBRANCH  16  18
ENDBRANCH   7  14
BRANCH   8  24
ATOM     24  O   UNL     1      46.163 -47.405  53.286  0.00  0.00    +0.000 OA
ATOM     25  H   UNL     1      45.241 -47.739  53.376  0.00  0.00    +0.000 HD
ENDBRANCH   8  24
TORSDOF 3
ENDMDL
MODEL 5
REMARK VINA RESULT:      -6.3     17.104     18.772
REMARK  Name = Piroxicam.pdbqt.pdb
REMARK  3 active torsions:
REMARK  status: ('A' for Active; 'I' for Inactive)
REMARK    1  A    between atoms: C_7  and  C_14
REMARK    2  A    between atoms: C_8  and  O_24
REMARK    3  A    between atoms: N_16  and  C_18
REMARK                            x       y       z     vdW  Elec       q    Type
REMARK                         _______ _______ _______ _____ _____    ______ ____
ROOT
ATOM      1  S   UNL     1      60.027 -48.450  62.263  0.00  0.00    +0.000 S 
ATOM      2  O   UNL     1      61.413 -48.876  62.315  0.00  0.00    +0.000 OA
ATOM      3  O   UNL     1      59.199 -48.477  63.453  0.00  0.00    +0.000 OA
ATOM      4  N   UNL     1      59.960 -46.897  61.520  0.00  0.00    +0.000 N 
ATOM      5  C   UNL     1      59.253 -49.437  61.042  0.00  0.00    +0.000 A 
ATOM      6  C   UNL     1      59.431 -49.069  59.710  0.00  0.00    +0.000 A 
ATOM      7  C   UNL     1      60.500 -46.875  60.191  0.00  0.00    +0.000 C 
ATOM      8  C   UNL     1      60.254 -47.901  59.342  0.00  0.00    +0.000 C 
ATOM      9  C   UNL     1      58.471 -50.521  61.425  0.00  0.00    +0.000 A 
ATOM     10  C   UNL     1      58.714 -46.118  61.627  0.00  0.00    +0.000 C 
ATOM     11  C   UNL     1      58.821 -49.861  58.735  0.00  0.00    +0.000 A 
ATOM     12  C   UNL     1      57.864 -51.287  60.437  0.00  0.00    +0.000 A 
ATOM     13  C   UNL     1      58.043 -50.963  59.094  0.00  0.00    +0.000 A 
ENDROOT
BRANCH   7  14
ATOM     14  C   UNL     1      61.347 -45.708  59.779  0.00  0.00    +0.000 C 
ATOM     15  O   UNL     1      60.827 -44.601  59.654  0.00  0.00    +0.000 OA
ATOM     16  N   UNL     1      62.671 -45.998  59.568  0.00  0.00    +0.000 N 
ATOM     17  H   UNL     1      63.031 -46.926  59.758  0.00  0.00    +0.000 HD
BRANCH  16  18
ATOM     18  C   UNL     1      63.660 -45.104  59.154  0.00  0.00    +0.000 A 
ATOM     19  N   UNL     1      64.132 -44.307  60.134  0.00  0.00    +0.000 NA
ATOM     20  C   UNL     1      65.097 -43.424  59.789  0.00  0.00    +0.000 A 
ATOM     21  C   UNL     1      65.618 -43.296  58.514  0.00  0.00    +0.000 A 
ATOM     22  C   UNL     1      65.112 -44.133  57.530  0.00  0.00    +0.000 A 
ATOM     23  C   UNL     1      64.120 -45.053  57.846  0.00  0.00    +0.000 A 
ENDBRANCH  16  18
ENDBRANCH   7  14
BRANCH   8  24
ATOM     24  O   UNL     1      60.733 -47.956  58.044  0.00  0.00    +0.000 OA
ATOM     25  H   UNL     1      61.056 -47.066  57.773  0.00  0.00    +0.000 HD
ENDBRANCH   8  24
TORSDOF 3
ENDMDL
MODEL 6
REMARK VINA RESULT:      -6.2     17.009     18.768
REMARK  Name = Piroxicam.pdbqt.pdb
REMARK  3 active torsions:
REMARK  status: ('A' for Active; 'I' for Inactive)
REMARK    1  A    between atoms: C_7  and  C_14
REMARK    2  A    between atoms: C_8  and  O_24
REMARK    3  A    between atoms: N_16  and  C_18
REMARK                            x       y       z     vdW  Elec       q    Type
REMARK                         _______ _______ _______ _____ _____    ______ ____
ROOT
ATOM      1  S   UNL     1      59.200 -51.554  61.343  0.00  0.00    +0.000 S 
ATOM      2  O   UNL     1      60.605 -51.866  61.158  0.00  0.00    +0.000 OA
ATOM      3  O   UNL     1      58.557 -51.766  62.624  0.00  0.00    +0.000 OA
ATOM      4  N   UNL     1      58.919 -49.947  60.788  0.00  0.00    +0.000 N 
ATOM      5  C   UNL     1      58.326 -52.478  60.139  0.00  0.00    +0.000 A 
ATOM      6  C   UNL     1      58.284 -51.968  58.843  0.00  0.00    +0.000 A 
ATOM      7  C   UNL     1      59.258 -49.750  59.408  0.00  0.00    +0.000 C 
ATOM      8  C   UNL     1      58.963 -50.705  58.495  0.00  0.00    +0.000 C 
ATOM      9  C   UNL     1      57.685 -53.655  60.505  0.00  0.00    +0.000 A 
ATOM     10  C   UNL     1      57.652 -49.288  61.149  0.00  0.00    +0.000 C 
ATOM     11  C   UNL     1      57.596 -52.709  57.881  0.00  0.00    +0.000 A 
ATOM     12  C   UNL     1      56.995 -54.369  59.533  0.00  0.00    +0.000 A 
ATOM     13  C   UNL     1      56.955 -53.901  58.221  0.00  0.00    +0.000 A 
ENDROOT
BRANCH   7  14
ATOM     14  C   UNL     1      59.955 -48.482  59.013  0.00  0.00    +0.000 C 
ATOM     15  O   UNL     1      59.348 -47.643  58.350  0.00  0.00    +0.000 OA
ATOM     16  N   UNL     1      61.254 -48.376  59.440  0.00  0.00    +0.000 N 
ATOM     17  H   UNL     1      61.658 -49.087  60.039  0.00  0.00    +0.000 HD
BRANCH  16  18
ATOM     18  C   UNL     1      62.127 -47.318  59.186  0.00  0.00    +0.000 A 
ATOM     19  N   UNL     1      62.109 -46.347  60.121  0.00  0.00    +0.000 NA
ATOM     20  C   UNL     1      62.940 -45.298  59.927  0.00  0.00    +0.000 A 
ATOM     21  C   UNL     1      63.794 -45.168  58.846  0.00  0.00    +0.000 A 
ATOM     22  C   UNL     1      63.790 -46.186  57.903  0.00  0.00    +0.000 A 
ATOM     23  C   UNL     1      62.949 -47.280  58.068  0.00  0.00    +0.000 A 
ENDBRANCH  16  18
ENDBRANCH   7  14
BRANCH   8  24
ATOM     24  O   UNL     1      59.252 -50.593  57.145  0.00  0.00    +0.000 OA
ATOM     25  H   UNL     1      60.211 -50.406  57.026  0.00  0.00    +0.000 HD
ENDBRANCH   8  24
TORSDOF 3
ENDMDL
MODEL 7
REMARK VINA RESULT:      -6.1     12.564     17.113
REMARK  Name = Piroxicam.pdbqt.pdb
REMARK  3 active torsions:
REMARK  status: ('A' for Active; 'I' for Inactive)
REMARK    1  A    between atoms: C_7  and  C_14
REMARK    2  A    between atoms: C_8  and  O_24
REMARK    3  A    between atoms: N_16  and  C_18
REMARK                            x       y       z     vdW  Elec       q    Type
REMARK                         _______ _______ _______ _____ _____    ______ ____
ROOT
ATOM      1  S   UNL     1      42.475 -55.268  56.008  0.00  0.00    +0.000 S 
ATOM      2  O   UNL     1      42.003 -53.901  56.118  0.00  0.00    +0.000 OA
ATOM      3  O   UNL     1      41.742 -56.244  55.224  0.00  0.00    +0.000 OA
ATOM      4  N   UNL     1      44.131 -55.239  55.535  0.00  0.00    +0.000 N 
ATOM      5  C   UNL     1      42.607 -55.878  57.644  0.00  0.00    +0.000 A 
ATOM      6  C   UNL     1      43.744 -55.529  58.370  0.00  0.00    +0.000 A 
ATOM      7  C   UNL     1      44.977 -54.532  56.454  0.00  0.00    +0.000 C 
ATOM      8  C   UNL     1      44.789 -54.666  57.788  0.00  0.00    +0.000 C 
ATOM      9  C   UNL     1      41.611 -56.703  58.155  0.00  0.00    +0.000 A 
ATOM     10  C   UNL     1      44.750 -56.488  55.059  0.00  0.00    +0.000 C 
ATOM     11  C   UNL     1      43.845 -56.007  59.678  0.00  0.00    +0.000 A 
ATOM     12  C   UNL     1      41.741 -57.177  59.455  0.00  0.00    +0.000 A 
ATOM     13  C   UNL     1      42.852 -56.826  60.218  0.00  0.00    +0.000 A 
ENDROOT
BRANCH   7  14
ATOM     14  C   UNL     1      46.047 -53.638  55.902  0.00  0.00    +0.000 C 
ATOM     15  O   UNL     1      47.151 -53.617  56.444  0.00  0.00    +0.000 OA
ATOM     16  N   UNL     1      45.679 -52.897  54.809  0.00  0.00    +0.000 N 
ATOM     17  H   UNL     1      44.768 -53.025  54.384  0.00  0.00    +0.000 HD
BRANCH  16  18
ATOM     18  C   UNL     1      46.473 -51.974  54.126  0.00  0.00    +0.000 A 
ATOM     19  N   UNL     1      47.275 -52.518  53.189  0.00  0.00    +0.000 NA
ATOM     20  C   UNL     1      48.064 -51.667  52.493  0.00  0.00    +0.000 A 
ATOM     21  C   UNL     1      48.091 -50.297  52.683  0.00  0.00    +0.000 A 
ATOM     22  C   UNL     1      47.252 -49.769  53.653  0.00  0.00    +0.000 A 
ATOM     23  C   UNL     1      46.427 -50.613  54.389  0.00  0.00    +0.000 A 
ENDBRANCH  16  18
ENDBRANCH   7  14
BRANCH   8  24
ATOM     24  O   UNL     1      45.561 -54.023  58.741  0.00  0.00    +0.000 OA
ATOM     25  H   UNL     1      46.278 -53.514  58.297  0.00  0.00    +0.000 HD
ENDBRANCH   8  24
TORSDOF 3
ENDMDL
MODEL 8
REMARK VINA RESULT:      -6.1     17.504     20.187
REMARK  Name = Piroxicam.pdbqt.pdb
REMARK  3 active torsions:
REMARK  status: ('A' for Active; 'I' for Inactive)
REMARK    1  A    between atoms: C_7  and  C_14
REMARK    2  A    between atoms: C_8  and  O_24
REMARK    3  A    between atoms: N_16  and  C_18
REMARK                            x       y       z     vdW  Elec       q    Type
REMARK                         _______ _______ _______ _____ _____    ______ ____
ROOT
ATOM      1  S   UNL     1      48.070 -57.791  60.012  0.00  0.00    +0.000 S 
ATOM      2  O   UNL     1      48.060 -57.359  61.398  0.00  0.00    +0.000 OA
ATOM      3  O   UNL     1      48.669 -59.056  59.635  0.00  0.00    +0.000 OA
ATOM      4  N   UNL     1      46.468 -57.676  59.392  0.00  0.00    +0.000 N 
ATOM      5  C   UNL     1      48.869 -56.522  59.107  0.00  0.00    +0.000 A 
ATOM      6  C   UNL     1      48.113 -55.401  58.768  0.00  0.00    +0.000 A 
ATOM      7  C   UNL     1      45.921 -56.351  59.459  0.00  0.00    +0.000 C 
ATOM      8  C   UNL     1      46.699 -55.282  59.170  0.00  0.00    +0.000 C 
ATOM      9  C   UNL     1      50.198 -56.676  58.731  0.00  0.00    +0.000 A 
ATOM     10  C   UNL     1      46.157 -58.342  58.115  0.00  0.00    +0.000 C 
ATOM     11  C   UNL     1      48.752 -54.386  58.054  0.00  0.00    +0.000 A 
ATOM     12  C   UNL     1      50.809 -55.657  58.010  0.00  0.00    +0.000 A 
ATOM     13  C   UNL     1      50.090 -54.511  57.676  0.00  0.00    +0.000 A 
ENDROOT
BRANCH   7  14
ATOM     14  C   UNL     1      44.488 -56.185  59.870  0.00  0.00    +0.000 C 
ATOM     15  O   UNL     1      43.692 -55.670  59.086  0.00  0.00    +0.000 OA
ATOM     16  N   UNL     1      44.190 -56.634  61.130  0.00  0.00    +0.000 N 
ATOM     17  H   UNL     1      44.892 -57.107  61.688  0.00  0.00    +0.000 HD
BRANCH  16  18
ATOM     18  C   UNL     1      42.946 -56.573  61.761  0.00  0.00    +0.000 A 
ATOM     19  N   UNL     1      41.996 -57.339  61.189  0.00  0.00    +0.000 NA
ATOM     20  C   UNL     1      40.771 -57.320  61.763  0.00  0.00    +0.000 A 
ATOM     21  C   UNL     1      40.445 -56.576  62.883  0.00  0.00    +0.000 A 
ATOM     22  C   UNL     1      41.447 -55.801  63.449  0.00  0.00    +0.000 A 
ATOM     23  C   UNL     1      42.718 -55.794  62.886  0.00  0.00    +0.000 A 
ENDBRANCH  16  18
ENDBRANCH   7  14
BRANCH   8  24
ATOM     24  O   UNL     1      46.250 -53.972  59.207  0.00  0.00    +0.000 OA
ATOM     25  H   UNL     1      45.499 -53.862  58.579  0.00  0.00    +0.000 HD
ENDBRANCH   8  24
TORSDOF 3
ENDMDL
MODEL 9
REMARK VINA RESULT:      -5.8     16.148     18.965
REMARK  Name = Piroxicam.pdbqt.pdb
REMARK  3 active torsions:
REMARK  status: ('A' for Active; 'I' for Inactive)
REMARK    1  A    between atoms: C_7  and  C_14
REMARK    2  A    between atoms: C_8  and  O_24
REMARK    3  A    between atoms: N_16  and  C_18
REMARK                            x       y       z     vdW  Elec       q    Type
REMARK                         _______ _______ _______ _____ _____    ______ ____
ROOT
ATOM      1  S   UNL     1      59.321 -53.275  61.079  0.00  0.00    +0.000 S 
ATOM      2  O   UNL     1      60.658 -52.926  60.637  0.00  0.00    +0.000 OA
ATOM      3  O   UNL     1      59.123 -54.197  62.180  0.00  0.00    +0.000 OA
ATOM      4  N   UNL     1      58.435 -51.822  61.346  0.00  0.00    +0.000 N 
ATOM      5  C   UNL     1      58.490 -53.918  59.679  0.00  0.00    +0.000 A 
ATOM      6  C   UNL     1      57.965 -53.005  58.766  0.00  0.00    +0.000 A 
ATOM      7  C   UNL     1      58.334 -50.991  60.180  0.00  0.00    +0.000 C 
ATOM      8  C   UNL     1      58.118 -51.551  58.966  0.00  0.00    +0.000 C 
ATOM      9  C   UNL     1      58.351 -55.293  59.530  0.00  0.00    +0.000 A 
ATOM     10  C   UNL     1      57.165 -51.897  62.088  0.00  0.00    +0.000 C 
ATOM     11  C   UNL     1      57.311 -53.517  57.645  0.00  0.00    +0.000 A 
ATOM     12  C   UNL     1      57.685 -55.780  58.412  0.00  0.00    +0.000 A 
ATOM     13  C   UNL     1      57.171 -54.894  57.467  0.00  0.00    +0.000 A 
ENDROOT
BRANCH   7  14
ATOM     14  C   UNL     1      58.489 -49.508  60.339  0.00  0.00    +0.000 C 
ATOM     15  O   UNL     1      57.624 -48.873  60.940  0.00  0.00    +0.000 OA
ATOM     16  N   UNL     1      59.620 -48.979  59.773  0.00  0.00    +0.000 N 
ATOM     17  H   UNL     1      60.316 -49.584  59.353  0.00  0.00    +0.000 HD
BRANCH  16  18
ATOM     18  C   UNL     1      59.987 -47.633  59.755  0.00  0.00    +0.000 A 
ATOM     19  N   UNL     1      59.598 -46.967  58.649  0.00  0.00    +0.000 NA
ATOM     20  C   UNL     1      59.924 -45.655  58.580  0.00  0.00    +0.000 A 
ATOM     21  C   UNL     1      60.618 -44.972  59.562  0.00  0.00    +0.000 A 
ATOM     22  C   UNL     1      61.001 -45.685  60.689  0.00  0.00    +0.000 A 
ATOM     23  C   UNL     1      60.684 -47.035  60.795  0.00  0.00    +0.000 A 
ENDBRANCH  16  18
ENDBRANCH   7  14
BRANCH   8  24
ATOM     24  O   UNL     1      58.003 -50.823  57.794  0.00  0.00    +0.000 OA
ATOM     25  H   UNL     1      57.725 -49.901  58.002  0.00  0.00    +0.000 HD
ENDBRANCH   8  24
TORSDOF 3
ENDMDL
