MODEL 1
REMARK VINA RESULT:      -7.1      0.000      0.000
REMARK  Name = PKR_Inhibitor.pdbqt.pdb
REMARK  0 active torsions:
REMARK  status: ('A' for Active; 'I' for Inactive)
REMARK                            x       y       z     vdW  Elec       q    Type
REMARK                         _______ _______ _______ _____ _____    ______ ____
ROOT
ATOM      1  S   UNL     1      49.417 -40.300  46.969  0.00  0.00    +0.000 S 
ATOM      2  O   UNL     1      48.143 -37.586  51.912  0.00  0.00    +0.000 OA
ATOM      3  N   UNL     1      48.612 -36.453  49.912  0.00  0.00    +0.000 N 
ATOM      4  N   UNL     1      49.860 -38.626  45.026  0.00  0.00    +0.000 NA
ATOM      5  C   UNL     1      48.998 -38.197  48.492  0.00  0.00    +0.000 A 
ATOM      6  C   UNL     1      48.940 -36.785  48.607  0.00  0.00    +0.000 A 
ATOM      7  C   UNL     1      48.678 -38.748  49.839  0.00  0.00    +0.000 C 
ATOM      8  C   UNL     1      49.312 -38.661  47.259  0.00  0.00    +0.000 A 
ATOM      9  C   UNL     1      48.433 -37.568  50.732  0.00  0.00    +0.000 C 
ATOM     10  C   UNL     1      49.567 -37.878  46.154  0.00  0.00    +0.000 A 
ATOM     11  C   UNL     1      49.177 -35.891  47.566  0.00  0.00    +0.000 A 
ATOM     12  C   UNL     1      48.604 -39.976  50.244  0.00  0.00    +0.000 C 
ATOM     13  C   UNL     1      49.496 -36.475  46.319  0.00  0.00    +0.000 A 
ATOM     14  C   UNL     1      49.808 -39.903  45.347  0.00  0.00    +0.000 A 
ATOM     15  H   UNL     1      48.506 -35.509  50.259  0.00  0.00    +0.000 HD
ATOM     16  C   UNL     1      48.504 -41.288  50.764  0.00  0.00    +0.000 C 
ATOM     17  N   UNL     1      48.190 -41.597  52.058  0.00  0.00    +0.000 N 
ATOM     18  C   UNL     1      48.192 -42.959  52.170  0.00  0.00    +0.000 C 
ATOM     19  H   UNL     1      47.992 -40.942  52.803  0.00  0.00    +0.000 HD
ATOM     20  N   UNL     1      48.487 -43.534  51.025  0.00  0.00    +0.000 NA
ATOM     21  C   UNL     1      48.684 -42.501  50.141  0.00  0.00    +0.000 C 
ENDROOT
TORSDOF 0
ENDMDL
MODEL 2
REMARK VINA RESULT:      -6.7      2.299      6.385
REMARK  Name = PKR_Inhibitor.pdbqt.pdb
REMARK  0 active torsions:
REMARK  status: ('A' for Active; 'I' for Inactive)
REMARK                            x       y       z     vdW  Elec       q    Type
REMARK                         _______ _______ _______ _____ _____    ______ ____
ROOT
ATOM      1  S   UNL     1      49.383 -44.415  48.316  0.00  0.00    +0.000 S 
ATOM      2  O   UNL     1      48.106 -39.640  51.315  0.00  0.00    +0.000 OA
ATOM      3  N   UNL     1      47.916 -41.802  52.206  0.00  0.00    +0.000 N 
ATOM      4  N   UNL     1      49.017 -46.574  49.722  0.00  0.00    +0.000 NA
ATOM      5  C   UNL     1      48.589 -43.074  50.435  0.00  0.00    +0.000 A 
ATOM      6  C   UNL     1      48.131 -43.103  51.776  0.00  0.00    +0.000 A 
ATOM      7  C   UNL     1      48.649 -41.640  50.034  0.00  0.00    +0.000 C 
ATOM      8  C   UNL     1      48.840 -44.287  49.887  0.00  0.00    +0.000 A 
ATOM      9  C   UNL     1      48.200 -40.849  51.227  0.00  0.00    +0.000 C 
ATOM     10  C   UNL     1      48.685 -45.498  50.528  0.00  0.00    +0.000 A 
ATOM     11  C   UNL     1      47.936 -44.259  52.527  0.00  0.00    +0.000 A 
ATOM     12  C   UNL     1      49.004 -41.099  48.913  0.00  0.00    +0.000 C 
ATOM     13  C   UNL     1      48.227 -45.474  51.866  0.00  0.00    +0.000 A 
ATOM     14  C   UNL     1      49.395 -46.114  48.546  0.00  0.00    +0.000 A 
ATOM     15  H   UNL     1      47.588 -41.545  53.126  0.00  0.00    +0.000 HD
ATOM     16  C   UNL     1      49.375 -40.432  47.721  0.00  0.00    +0.000 C 
ATOM     17  N   UNL     1      49.365 -39.077  47.546  0.00  0.00    +0.000 N 
ATOM     18  C   UNL     1      49.787 -38.822  46.270  0.00  0.00    +0.000 C 
ATOM     19  H   UNL     1      49.096 -38.383  48.230  0.00  0.00    +0.000 HD
ATOM     20  N   UNL     1      50.064 -39.934  45.626  0.00  0.00    +0.000 NA
ATOM     21  C   UNL     1      49.811 -40.945  46.521  0.00  0.00    +0.000 C 
ENDROOT
TORSDOF 0
ENDMDL
MODEL 3
REMARK VINA RESULT:      -6.6      2.246      3.213
REMARK  Name = PKR_Inhibitor.pdbqt.pdb
REMARK  0 active torsions:
REMARK  status: ('A' for Active; 'I' for Inactive)
REMARK                            x       y       z     vdW  Elec       q    Type
REMARK                         _______ _______ _______ _____ _____    ______ ____
ROOT
ATOM      1  S   UNL     1      49.063 -40.968  46.781  0.00  0.00    +0.000 S 
ATOM      2  O   UNL     1      47.558 -42.008  52.266  0.00  0.00    +0.000 OA
ATOM      3  N   UNL     1      48.492 -39.976  51.557  0.00  0.00    +0.000 N 
ATOM      4  N   UNL     1      50.052 -38.580  46.480  0.00  0.00    +0.000 NA
ATOM      5  C   UNL     1      48.783 -40.373  49.328  0.00  0.00    +0.000 A 
ATOM      6  C   UNL     1      48.945 -39.424  50.368  0.00  0.00    +0.000 A 
ATOM      7  C   UNL     1      48.186 -41.589  49.950  0.00  0.00    +0.000 C 
ATOM      8  C   UNL     1      49.190 -39.961  48.104  0.00  0.00    +0.000 A 
ATOM      9  C   UNL     1      48.015 -41.279  51.407  0.00  0.00    +0.000 C 
ATOM     10  C   UNL     1      49.728 -38.724  47.819  0.00  0.00    +0.000 A 
ATOM     11  C   UNL     1      49.475 -38.147  50.206  0.00  0.00    +0.000 A 
ATOM     12  C   UNL     1      47.851 -42.721  49.418  0.00  0.00    +0.000 C 
ATOM     13  C   UNL     1      49.869 -37.811  48.890  0.00  0.00    +0.000 A 
ATOM     14  C   UNL     1      49.743 -39.697  45.853  0.00  0.00    +0.000 A 
ATOM     15  H   UNL     1      48.496 -39.505  52.451  0.00  0.00    +0.000 HD
ATOM     16  C   UNL     1      47.461 -43.985  48.914  0.00  0.00    +0.000 C 
ATOM     17  N   UNL     1      46.917 -44.993  49.660  0.00  0.00    +0.000 N 
ATOM     18  C   UNL     1      46.676 -46.045  48.821  0.00  0.00    +0.000 C 
ATOM     19  H   UNL     1      46.726 -44.972  50.653  0.00  0.00    +0.000 HD
ATOM     20  N   UNL     1      47.034 -45.765  47.587  0.00  0.00    +0.000 NA
ATOM     21  C   UNL     1      47.525 -44.483  47.633  0.00  0.00    +0.000 C 
ENDROOT
TORSDOF 0
ENDMDL
MODEL 4
REMARK VINA RESULT:      -6.4      3.159      4.878
REMARK  Name = PKR_Inhibitor.pdbqt.pdb
REMARK  0 active torsions:
REMARK  status: ('A' for Active; 'I' for Inactive)
REMARK                            x       y       z     vdW  Elec       q    Type
REMARK                         _______ _______ _______ _____ _____    ______ ____
ROOT
ATOM      1  S   UNL     1      49.332 -42.917  47.649  0.00  0.00    +0.000 S 
ATOM      2  O   UNL     1      47.965 -44.186  53.122  0.00  0.00    +0.000 OA
ATOM      3  N   UNL     1      47.984 -41.996  52.280  0.00  0.00    +0.000 N 
ATOM      4  N   UNL     1      49.213 -40.360  47.185  0.00  0.00    +0.000 NA
ATOM      5  C   UNL     1      48.607 -42.356  50.115  0.00  0.00    +0.000 A 
ATOM      6  C   UNL     1      48.253 -41.372  51.072  0.00  0.00    +0.000 A 
ATOM      7  C   UNL     1      48.544 -43.672  50.812  0.00  0.00    +0.000 C 
ATOM      8  C   UNL     1      48.898 -41.880  48.881  0.00  0.00    +0.000 A 
ATOM      9  C   UNL     1      48.132 -43.382  52.225  0.00  0.00    +0.000 C 
ATOM     10  C   UNL     1      48.870 -40.552  48.513  0.00  0.00    +0.000 A 
ATOM     11  C   UNL     1      48.190 -40.004  50.822  0.00  0.00    +0.000 A 
ATOM     12  C   UNL     1      48.779 -44.865  50.368  0.00  0.00    +0.000 C 
ATOM     13  C   UNL     1      48.510 -39.608  49.503  0.00  0.00    +0.000 A 
ATOM     14  C   UNL     1      49.472 -41.533  46.646  0.00  0.00    +0.000 A 
ATOM     15  H   UNL     1      47.707 -41.519  53.128  0.00  0.00    +0.000 HD
ATOM     16  C   UNL     1      49.019 -46.199  49.961  0.00  0.00    +0.000 C 
ATOM     17  N   UNL     1      48.903 -47.298  50.766  0.00  0.00    +0.000 N 
ATOM     18  C   UNL     1      49.214 -48.396  50.015  0.00  0.00    +0.000 C 
ATOM     19  H   UNL     1      48.638 -47.304  51.742  0.00  0.00    +0.000 HD
ATOM     20  N   UNL     1      49.519 -48.061  48.780  0.00  0.00    +0.000 NA
ATOM     21  C   UNL     1      49.401 -46.693  48.736  0.00  0.00    +0.000 C 
ENDROOT
TORSDOF 0
ENDMDL
MODEL 5
REMARK VINA RESULT:      -6.4      2.804      6.681
REMARK  Name = PKR_Inhibitor.pdbqt.pdb
REMARK  0 active torsions:
REMARK  status: ('A' for Active; 'I' for Inactive)
REMARK                            x       y       z     vdW  Elec       q    Type
REMARK                         _______ _______ _______ _____ _____    ______ ____
ROOT
ATOM      1  S   UNL     1      48.394 -36.661  49.675  0.00  0.00    +0.000 S 
ATOM      2  O   UNL     1      50.539 -39.772  45.298  0.00  0.00    +0.000 OA
ATOM      3  N   UNL     1      49.826 -40.725  47.320  0.00  0.00    +0.000 N 
ATOM      4  N   UNL     1      47.741 -38.156  51.702  0.00  0.00    +0.000 NA
ATOM      5  C   UNL     1      49.143 -38.875  48.469  0.00  0.00    +0.000 A 
ATOM      6  C   UNL     1      49.287 -40.285  48.519  0.00  0.00    +0.000 A 
ATOM      7  C   UNL     1      49.638 -38.443  47.131  0.00  0.00    +0.000 C 
ATOM      8  C   UNL     1      48.623 -38.310  49.584  0.00  0.00    +0.000 A 
ATOM      9  C   UNL     1      50.073 -39.689  46.418  0.00  0.00    +0.000 C 
ATOM     10  C   UNL     1      48.239 -38.993  50.718  0.00  0.00    +0.000 A 
ATOM     11  C   UNL     1      48.937 -41.083  49.604  0.00  0.00    +0.000 A 
ATOM     12  C   UNL     1      49.713 -37.260  46.609  0.00  0.00    +0.000 C 
ATOM     13  C   UNL     1      48.402 -40.399  50.720  0.00  0.00    +0.000 A 
ATOM     14  C   UNL     1      47.780 -36.917  51.255  0.00  0.00    +0.000 A 
ATOM     15  H   UNL     1      50.029 -41.690  47.097  0.00  0.00    +0.000 HD
ATOM     16  C   UNL     1      49.828 -36.003  45.970  0.00  0.00    +0.000 C 
ATOM     17  N   UNL     1      50.318 -35.807  44.709  0.00  0.00    +0.000 N 
ATOM     18  C   UNL     1      50.268 -34.466  44.450  0.00  0.00    +0.000 C 
ATOM     19  H   UNL     1      50.657 -36.520  44.077  0.00  0.00    +0.000 HD
ATOM     20  N   UNL     1      49.776 -33.799  45.470  0.00  0.00    +0.000 NA
ATOM     21  C   UNL     1      49.499 -34.748  46.424  0.00  0.00    +0.000 C 
ENDROOT
TORSDOF 0
ENDMDL
MODEL 6
REMARK VINA RESULT:      -6.2      2.147      5.824
REMARK  Name = PKR_Inhibitor.pdbqt.pdb
REMARK  0 active torsions:
REMARK  status: ('A' for Active; 'I' for Inactive)
REMARK                            x       y       z     vdW  Elec       q    Type
REMARK                         _______ _______ _______ _____ _____    ______ ____
ROOT
ATOM      1  S   UNL     1      47.939 -43.109  47.641  0.00  0.00    +0.000 S 
ATOM      2  O   UNL     1      49.659 -38.121  50.004  0.00  0.00    +0.000 OA
ATOM      3  N   UNL     1      48.863 -39.930  51.267  0.00  0.00    +0.000 N 
ATOM      4  N   UNL     1      47.141 -44.813  49.438  0.00  0.00    +0.000 NA
ATOM      5  C   UNL     1      48.413 -41.454  49.629  0.00  0.00    +0.000 A 
ATOM      6  C   UNL     1      48.392 -41.211  51.026  0.00  0.00    +0.000 A 
ATOM      7  C   UNL     1      48.939 -40.215  48.989  0.00  0.00    +0.000 C 
ATOM      8  C   UNL     1      47.974 -42.678  49.251  0.00  0.00    +0.000 A 
ATOM      9  C   UNL     1      49.219 -39.249  50.102  0.00  0.00    +0.000 C 
ATOM     10  C   UNL     1      47.527 -43.663  50.106  0.00  0.00    +0.000 A 
ATOM     11  C   UNL     1      47.964 -42.124  51.986  0.00  0.00    +0.000 A 
ATOM     12  C   UNL     1      49.145 -39.942  47.740  0.00  0.00    +0.000 C 
ATOM     13  C   UNL     1      47.526 -43.373  51.491  0.00  0.00    +0.000 A 
ATOM     14  C   UNL     1      47.318 -44.625  48.146  0.00  0.00    +0.000 A 
ATOM     15  H   UNL     1      48.950 -39.509  52.182  0.00  0.00    +0.000 HD
ATOM     16  C   UNL     1      49.398 -39.567  46.399  0.00  0.00    +0.000 C 
ATOM     17  N   UNL     1      49.895 -38.357  46.004  0.00  0.00    +0.000 N 
ATOM     18  C   UNL     1      49.997 -38.377  44.641  0.00  0.00    +0.000 C 
ATOM     19  H   UNL     1      50.144 -37.583  46.604  0.00  0.00    +0.000 HD
ATOM     20  N   UNL     1      49.595 -39.527  44.147  0.00  0.00    +0.000 NA
ATOM     21  C   UNL     1      49.218 -40.277  45.235  0.00  0.00    +0.000 C 
ENDROOT
TORSDOF 0
ENDMDL
MODEL 7
REMARK VINA RESULT:      -6.1     17.251     18.827
REMARK  Name = PKR_Inhibitor.pdbqt.pdb
REMARK  0 active torsions:
REMARK  status: ('A' for Active; 'I' for Inactive)
REMARK                            x       y       z     vdW  Elec       q    Type
REMARK                         _______ _______ _______ _____ _____    ______ ____
ROOT
ATOM      1  S   UNL     1      58.383 -48.873  62.208  0.00  0.00    +0.000 S 
ATOM      2  O   UNL     1      58.607 -52.181  57.472  0.00  0.00    +0.000 OA
ATOM      3  N   UNL     1      59.275 -49.933  57.497  0.00  0.00    +0.000 N 
ATOM      4  N   UNL     1      59.227 -46.455  61.747  0.00  0.00    +0.000 NA
ATOM      5  C   UNL     1      58.883 -49.376  59.675  0.00  0.00    +0.000 A 
ATOM      6  C   UNL     1      59.347 -48.902  58.422  0.00  0.00    +0.000 A 
ATOM      7  C   UNL     1      58.505 -50.803  59.479  0.00  0.00    +0.000 C 
ATOM      8  C   UNL     1      58.899 -48.464  60.677  0.00  0.00    +0.000 A 
ATOM      9  C   UNL     1      58.780 -51.120  58.038  0.00  0.00    +0.000 C 
ATOM     10  C   UNL     1      59.322 -47.157  60.557  0.00  0.00    +0.000 A 
ATOM     11  C   UNL     1      59.798 -47.608  58.177  0.00  0.00    +0.000 A 
ATOM     12  C   UNL     1      58.030 -51.666  60.320  0.00  0.00    +0.000 C 
ATOM     13  C   UNL     1      59.776 -46.732  59.286  0.00  0.00    +0.000 A 
ATOM     14  C   UNL     1      58.747 -47.263  62.671  0.00  0.00    +0.000 A 
ATOM     15  H   UNL     1      59.548 -49.858  56.527  0.00  0.00    +0.000 HD
ATOM     16  C   UNL     1      57.510 -52.666  61.175  0.00  0.00    +0.000 C 
ATOM     17  N   UNL     1      57.223 -53.948  60.800  0.00  0.00    +0.000 N 
ATOM     18  C   UNL     1      56.743 -54.604  61.899  0.00  0.00    +0.000 C 
ATOM     19  H   UNL     1      57.341 -54.347  59.878  0.00  0.00    +0.000 HD
ATOM     20  N   UNL     1      56.708 -53.815  62.950  0.00  0.00    +0.000 NA
ATOM     21  C   UNL     1      57.184 -52.603  62.510  0.00  0.00    +0.000 C 
ENDROOT
TORSDOF 0
ENDMDL
MODEL 8
REMARK VINA RESULT:      -5.9     15.044     17.740
REMARK  Name = PKR_Inhibitor.pdbqt.pdb
REMARK  0 active torsions:
REMARK  status: ('A' for Active; 'I' for Inactive)
REMARK                            x       y       z     vdW  Elec       q    Type
REMARK                         _______ _______ _______ _____ _____    ______ ____
ROOT
ATOM      1  S   UNL     1      43.257 -53.971  55.053  0.00  0.00    +0.000 S 
ATOM      2  O   UNL     1      46.717 -54.851  59.600  0.00  0.00    +0.000 OA
ATOM      3  N   UNL     1      47.339 -53.551  57.749  0.00  0.00    +0.000 N 
ATOM      4  N   UNL     1      44.380 -52.465  53.252  0.00  0.00    +0.000 NA
ATOM      5  C   UNL     1      45.471 -53.706  56.448  0.00  0.00    +0.000 A 
ATOM      6  C   UNL     1      46.774 -53.156  56.546  0.00  0.00    +0.000 A 
ATOM      7  C   UNL     1      45.244 -54.492  57.693  0.00  0.00    +0.000 C 
ATOM      8  C   UNL     1      44.800 -53.397  55.312  0.00  0.00    +0.000 A 
ATOM      9  C   UNL     1      46.494 -54.359  58.511  0.00  0.00    +0.000 C 
ATOM     10  C   UNL     1      45.287 -52.611  54.289  0.00  0.00    +0.000 A 
ATOM     11  C   UNL     1      47.373 -52.350  55.582  0.00  0.00    +0.000 A 
ATOM     12  C   UNL     1      44.213 -55.177  58.073  0.00  0.00    +0.000 C 
ATOM     13  C   UNL     1      46.592 -52.085  54.434  0.00  0.00    +0.000 A 
ATOM     14  C   UNL     1      43.288 -53.137  53.555  0.00  0.00    +0.000 A 
ATOM     15  H   UNL     1      48.264 -53.294  58.064  0.00  0.00    +0.000 HD
ATOM     16  C   UNL     1      43.129 -55.946  58.559  0.00  0.00    +0.000 C 
ATOM     17  N   UNL     1      43.111 -56.607  59.756  0.00  0.00    +0.000 N 
ATOM     18  C   UNL     1      41.899 -57.230  59.866  0.00  0.00    +0.000 C 
ATOM     19  H   UNL     1      43.854 -56.635  60.440  0.00  0.00    +0.000 HD
ATOM     20  N   UNL     1      41.147 -57.004  58.811  0.00  0.00    +0.000 NA
ATOM     21  C   UNL     1      41.904 -56.205  57.989  0.00  0.00    +0.000 C 
ENDROOT
TORSDOF 0
ENDMDL
MODEL 9
REMARK VINA RESULT:      -5.9     14.417     17.348
REMARK  Name = PKR_Inhibitor.pdbqt.pdb
REMARK  0 active torsions:
REMARK  status: ('A' for Active; 'I' for Inactive)
REMARK                            x       y       z     vdW  Elec       q    Type
REMARK                         _______ _______ _______ _____ _____    ______ ____
ROOT
ATOM      1  S   UNL     1      49.762 -21.560  50.096  0.00  0.00    +0.000 S 
ATOM      2  O   UNL     1      52.732 -24.880  53.782  0.00  0.00    +0.000 OA
ATOM      3  N   UNL     1      51.300 -25.751  52.141  0.00  0.00    +0.000 N 
ATOM      4  N   UNL     1      48.312 -22.976  48.464  0.00  0.00    +0.000 NA
ATOM      5  C   UNL     1      50.547 -23.841  51.146  0.00  0.00    +0.000 A 
ATOM      6  C   UNL     1      50.476 -25.256  51.142  0.00  0.00    +0.000 A 
ATOM      7  C   UNL     1      51.489 -23.464  52.238  0.00  0.00    +0.000 C 
ATOM      8  C   UNL     1      49.783 -23.224  50.213  0.00  0.00    +0.000 A 
ATOM      9  C   UNL     1      51.954 -24.749  52.857  0.00  0.00    +0.000 C 
ATOM     10  C   UNL     1      48.977 -23.861  49.296  0.00  0.00    +0.000 A 
ATOM     11  C   UNL     1      49.700 -26.013  50.267  0.00  0.00    +0.000 A 
ATOM     12  C   UNL     1      51.882 -22.297  52.637  0.00  0.00    +0.000 C 
ATOM     13  C   UNL     1      48.940 -25.275  49.330  0.00  0.00    +0.000 A 
ATOM     14  C   UNL     1      48.655 -21.750  48.800  0.00  0.00    +0.000 A 
ATOM     15  H   UNL     1      51.431 -26.732  52.349  0.00  0.00    +0.000 HD
ATOM     16  C   UNL     1      52.359 -21.060  53.133  0.00  0.00    +0.000 C 
ATOM     17  N   UNL     1      53.243 -20.917  54.165  0.00  0.00    +0.000 N 
ATOM     18  C   UNL     1      53.457 -19.579  54.345  0.00  0.00    +0.000 C 
ATOM     19  H   UNL     1      53.666 -21.661  54.704  0.00  0.00    +0.000 HD
ATOM     20  N   UNL     1      52.762 -18.864  53.488  0.00  0.00    +0.000 NA
ATOM     21  C   UNL     1      52.073 -19.777  52.727  0.00  0.00    +0.000 C 
ENDROOT
TORSDOF 0
ENDMDL
