REMARK  Name = 
REMARK  14 active torsions:
REMARK  status: ('A' for Active; 'I' for Inactive)
REMARK    1  A    between atoms: O_1  and  C_14
REMARK    2  A    between atoms: O_1  and  C_15
REMARK    3  A    between atoms: O_4  and  C_16
REMARK    4  A    between atoms: O_5  and  C_18
REMARK    5  A    between atoms: O_6  and  C_26
REMARK    6  A    between atoms: O_7  and  C_29
REMARK    7  A    between atoms: O_8  and  C_35
REMARK    8  A    between atoms: O_9  and  C_36
REMARK    9  A    between atoms: O_10  and  C_39
REMARK   10  A    between atoms: O_11  and  C_40
REMARK   11  A    between atoms: O_12  and  C_41
REMARK   12  A    between atoms: O_13  and  C_43
REMARK   13  A    between atoms: C_14  and  C_20
REMARK   14  A    between atoms: C_17  and  C_24
REMARK                            x       y       z     vdW  Elec       q    Type
REMARK                         _______ _______ _______ _____ _____    ______ ____
ROOT
ATOM      1  O   UNL     1      -2.025   0.310  -0.280  0.00  0.00    +0.000 OA
ATOM      2  C   UNL     1      -1.042  -0.725  -0.420  0.00  0.00    +0.000 C 
ATOM      3  C   UNL     1      -1.517  -1.818  -1.425  0.00  0.00    +0.000 C 
ATOM      4  C   UNL     1      -2.871  -2.380  -1.003  0.00  0.00    +0.000 C 
ATOM      5  C   UNL     1      -3.837  -1.282  -0.672  0.00  0.00    +0.000 A 
ATOM      6  C   UNL     1      -3.351  -0.019  -0.323  0.00  0.00    +0.000 A 
ATOM      7  C   UNL     1      -5.225  -1.485  -0.658  0.00  0.00    +0.000 A 
ATOM      8  C   UNL     1      -4.231   1.013   0.012  0.00  0.00    +0.000 A 
ATOM      9  C   UNL     1      -6.109  -0.469  -0.306  0.00  0.00    +0.000 A 
ATOM     10  C   UNL     1      -5.601   0.779   0.023  0.00  0.00    +0.000 A 
ENDROOT
BRANCH   2  11
ATOM     11  C   UNL     1      -0.635  -1.353   0.927  0.00  0.00    +0.000 A 
ATOM     12  C   UNL     1       0.384  -2.330   0.987  0.00  0.00    +0.000 A 
ATOM     13  C   UNL     1      -1.252  -0.964   2.135  0.00  0.00    +0.000 A 
ATOM     14  C   UNL     1       0.748  -2.891   2.207  0.00  0.00    +0.000 A 
ATOM     15  C   UNL     1      -0.889  -1.544   3.354  0.00  0.00    +0.000 A 
ATOM     16  C   UNL     1       0.103  -2.507   3.377  0.00  0.00    +0.000 A 
BRANCH  14  17
ATOM     17  O   UNL     1       1.741  -3.823   2.318  0.00  0.00    +0.000 OA
ATOM     18  H   UNL     1       2.333  -3.764   1.541  0.00  0.00    +0.000 HD
ENDBRANCH  14  17
BRANCH  16  19
ATOM     19  O   UNL     1       0.461  -3.071   4.568  0.00  0.00    +0.000 OA
ATOM     20  H   UNL     1       1.137  -3.737   4.328  0.00  0.00    +0.000 HD
ENDBRANCH  16  19
ENDBRANCH   2  11
BRANCH   3  21
ATOM     21  O   UNL     1      -1.638  -1.299  -2.780  0.00  0.00    +0.000 OA
ATOM     22  H   UNL     1      -0.955  -0.601  -2.843  0.00  0.00    +0.000 HD
ENDBRANCH   3  21
BRANCH   4  23
ATOM     23  O   UNL     1      -3.409  -3.184  -2.067  0.00  0.00    +0.000 OA
ATOM     24  H   UNL     1      -3.069  -2.757  -2.885  0.00  0.00    +0.000 HD
ENDBRANCH   4  23
BRANCH   7  25
ATOM     25  O   UNL     1      -5.778  -2.688  -1.008  0.00  0.00    +0.000 OA
ATOM     26  H   UNL     1      -5.079  -3.205  -1.466  0.00  0.00    +0.000 HD
ENDBRANCH   7  25
BRANCH  10  27
ATOM     27  O   UNL     1      -6.422   1.813   0.367  0.00  0.00    +0.000 OA
ATOM     28  H   UNL     1      -7.342   1.502   0.323  0.00  0.00    +0.000 HD
ENDBRANCH  10  27
BRANCH   2  29
ATOM     29  O   UNL     1       0.125  -0.157  -1.079  0.00  0.00    +0.000 OA
BRANCH  29  31
ATOM     30  O   UNL     1       3.037   1.998  -0.301  0.00  0.00    +0.000 OA
ATOM     31  C   UNL     1       0.825   0.893  -0.383  0.00  0.00    +0.000 C 
ATOM     32  C   UNL     1       2.244   1.022  -0.991  0.00  0.00    +0.000 C 
ATOM     33  C   UNL     1       0.128   2.247  -0.550  0.00  0.00    +0.000 C 
ATOM     34  C   UNL     1       1.048   3.404  -0.274  0.00  0.00    +0.000 A 
ATOM     35  C   UNL     1       2.429   3.216  -0.164  0.00  0.00    +0.000 A 
ATOM     36  C   UNL     1       0.538   4.700  -0.128  0.00  0.00    +0.000 A 
ATOM     37  C   UNL     1       3.276   4.287   0.131  0.00  0.00    +0.000 A 
ATOM     38  C   UNL     1       1.374   5.779   0.150  0.00  0.00    +0.000 A 
ATOM     39  C   UNL     1       2.739   5.560   0.283  0.00  0.00    +0.000 A 
BRANCH  32  40
ATOM     40  C   UNL     1       2.992  -0.303  -0.927  0.00  0.00    +0.000 A 
ATOM     41  C   UNL     1       3.442  -0.820   0.298  0.00  0.00    +0.000 A 
ATOM     42  C   UNL     1       3.167  -1.067  -2.095  0.00  0.00    +0.000 A 
ATOM     43  C   UNL     1       4.008  -2.092   0.350  0.00  0.00    +0.000 A 
ATOM     44  C   UNL     1       3.753  -2.334  -2.039  0.00  0.00    +0.000 A 
ATOM     45  C   UNL     1       4.157  -2.848  -0.811  0.00  0.00    +0.000 A 
BRANCH  43  46
ATOM     46  O   UNL     1       4.360  -2.639   1.551  0.00  0.00    +0.000 OA
ATOM     47  H   UNL     1       4.337  -1.948   2.234  0.00  0.00    +0.000 HD
ENDBRANCH  43  46
BRANCH  45  48
ATOM     48  O   UNL     1       4.674  -4.109  -0.724  0.00  0.00    +0.000 OA
ATOM     49  H   UNL     1       4.853  -4.441  -1.619  0.00  0.00    +0.000 HD
ENDBRANCH  45  48
ENDBRANCH  32  40
BRANCH  36  50
ATOM     50  O   UNL     1      -0.809   4.891  -0.260  0.00  0.00    +0.000 OA
ATOM     51  H   UNL     1      -1.009   5.832  -0.119  0.00  0.00    +0.000 HD
ENDBRANCH  36  50
BRANCH  39  52
ATOM     52  O   UNL     1       3.530   6.636   0.563  0.00  0.00    +0.000 OA
ATOM     53  H   UNL     1       4.452   6.335   0.635  0.00  0.00    +0.000 HD
ENDBRANCH  39  52
ENDBRANCH  29  31
ENDBRANCH   2  29
TORSDOF 14
