MODEL 1
REMARK VINA RESULT:      -7.8      0.000      0.000
REMARK  Name = 
REMARK  14 active torsions:
REMARK  status: ('A' for Active; 'I' for Inactive)
REMARK    1  A    between atoms: O_1  and  C_14
REMARK    2  A    between atoms: O_1  and  C_15
REMARK    3  A    between atoms: O_4  and  C_16
REMARK    4  A    between atoms: O_5  and  C_18
REMARK    5  A    between atoms: O_6  and  C_26
REMARK    6  A    between atoms: O_7  and  C_29
REMARK    7  A    between atoms: O_8  and  C_35
REMARK    8  A    between atoms: O_9  and  C_36
REMARK    9  A    between atoms: O_10  and  C_39
REMARK   10  A    between atoms: O_11  and  C_40
REMARK   11  A    between atoms: O_12  and  C_41
REMARK   12  A    between atoms: O_13  and  C_43
REMARK   13  A    between atoms: C_14  and  C_20
REMARK   14  A    between atoms: C_17  and  C_24
REMARK                            x       y       z     vdW  Elec       q    Type
REMARK                         _______ _______ _______ _____ _____    ______ ____
ROOT
ATOM      1  O   UNL     1      46.557 -50.071  52.097  0.00  0.00    +0.000 OA
ATOM      2  C   UNL     1      46.938 -49.897  50.726  0.00  0.00    +0.000 C 
ATOM      3  C   UNL     1      47.109 -51.273  50.012  0.00  0.00    +0.000 C 
ATOM      4  C   UNL     1      48.105 -52.147  50.768  0.00  0.00    +0.000 C 
ATOM      5  C   UNL     1      47.808 -52.165  52.237  0.00  0.00    +0.000 A 
ATOM      6  C   UNL     1      47.067 -51.124  52.803  0.00  0.00    +0.000 A 
ATOM      7  C   UNL     1      48.286 -53.176  53.085  0.00  0.00    +0.000 A 
ATOM      8  C   UNL     1      46.798 -51.108  54.174  0.00  0.00    +0.000 A 
ATOM      9  C   UNL     1      48.040 -53.157  54.455  0.00  0.00    +0.000 A 
ATOM     10  C   UNL     1      47.290 -52.120  54.989  0.00  0.00    +0.000 A 
ENDROOT
BRANCH   2  11
ATOM     11  C   UNL     1      48.199 -49.028  50.558  0.00  0.00    +0.000 A 
ATOM     12  C   UNL     1      48.650 -48.655  49.272  0.00  0.00    +0.000 A 
ATOM     13  C   UNL     1      48.928 -48.568  51.675  0.00  0.00    +0.000 A 
ATOM     14  C   UNL     1      49.788 -47.868  49.128  0.00  0.00    +0.000 A 
ATOM     15  C   UNL     1      50.079 -47.790  51.519  0.00  0.00    +0.000 A 
ATOM     16  C   UNL     1      50.501 -47.453  50.247  0.00  0.00    +0.000 A 
BRANCH  14  17
ATOM     17  O   UNL     1      50.251 -47.465  47.907  0.00  0.00    +0.000 OA
ATOM     18  H   UNL     1      51.179 -47.755  47.797  0.00  0.00    +0.000 HD
ENDBRANCH  14  17
BRANCH  16  19
ATOM     19  O   UNL     1      51.623 -46.689  50.094  0.00  0.00    +0.000 OA
ATOM     20  H   UNL     1      52.246 -47.266  49.607  0.00  0.00    +0.000 HD
ENDBRANCH  16  19
ENDBRANCH   2  11
BRANCH   3  21
ATOM     21  O   UNL     1      45.849 -51.996  49.911  0.00  0.00    +0.000 OA
ATOM     22  H   UNL     1      45.551 -51.853  48.990  0.00  0.00    +0.000 HD
ENDBRANCH   3  21
BRANCH   4  23
ATOM     23  O   UNL     1      48.052 -53.489  50.254  0.00  0.00    +0.000 OA
ATOM     24  H   UNL     1      48.863 -53.914  50.611  0.00  0.00    +0.000 HD
ENDBRANCH   4  23
BRANCH   7  25
ATOM     25  O   UNL     1      49.001 -54.239  52.602  0.00  0.00    +0.000 OA
ATOM     26  H   UNL     1      49.925 -53.931  52.474  0.00  0.00    +0.000 HD
ENDBRANCH   7  25
BRANCH  10  27
ATOM     27  O   UNL     1      47.012 -52.057  56.323  0.00  0.00    +0.000 OA
ATOM     28  H   UNL     1      47.108 -51.134  56.614  0.00  0.00    +0.000 HD
ENDBRANCH  10  27
BRANCH   2  29
ATOM     29  O   UNL     1      45.819 -49.295  50.016  0.00  0.00    +0.000 OA
BRANCH  29  31
ATOM     30  O   UNL     1      43.164 -47.012  51.228  0.00  0.00    +0.000 OA
ATOM     31  C   UNL     1      44.665 -48.932  50.799  0.00  0.00    +0.000 C 
ATOM     32  C   UNL     1      44.263 -47.481  50.434  0.00  0.00    +0.000 C 
ATOM     33  C   UNL     1      43.464 -49.833  50.492  0.00  0.00    +0.000 C 
ATOM     34  C   UNL     1      42.158 -49.206  50.896  0.00  0.00    +0.000 A 
ATOM     35  C   UNL     1      42.084 -47.852  51.239  0.00  0.00    +0.000 A 
ATOM     36  C   UNL     1      40.983 -49.967  50.930  0.00  0.00    +0.000 A 
ATOM     37  C   UNL     1      40.877 -47.283  51.651  0.00  0.00    +0.000 A 
ATOM     38  C   UNL     1      39.770 -49.407  51.324  0.00  0.00    +0.000 A 
ATOM     39  C   UNL     1      39.730 -48.067  51.687  0.00  0.00    +0.000 A 
BRANCH  32  40
ATOM     40  C   UNL     1      45.424 -46.519  50.647  0.00  0.00    +0.000 A 
ATOM     41  C   UNL     1      45.920 -46.259  51.934  0.00  0.00    +0.000 A 
ATOM     42  C   UNL     1      46.069 -45.941  49.539  0.00  0.00    +0.000 A 
ATOM     43  C   UNL     1      47.063 -45.479  52.095  0.00  0.00    +0.000 A 
ATOM     44  C   UNL     1      47.203 -45.143  49.708  0.00  0.00    +0.000 A 
ATOM     45  C   UNL     1      47.705 -44.929  50.987  0.00  0.00    +0.000 A 
BRANCH  43  46
ATOM     46  O   UNL     1      47.606 -45.302  53.335  0.00  0.00    +0.000 OA
ATOM     47  H   UNL     1      47.678 -44.350  53.518  0.00  0.00    +0.000 HD
ENDBRANCH  43  46
BRANCH  45  48
ATOM     48  O   UNL     1      48.849 -44.205  51.170  0.00  0.00    +0.000 OA
ATOM     49  H   UNL     1      49.612 -44.805  51.143  0.00  0.00    +0.000 HD
ENDBRANCH  45  48
ENDBRANCH  32  40
BRANCH  36  50
ATOM     50  O   UNL     1      41.048 -51.284  50.572  0.00  0.00    +0.000 OA
ATOM     51  H   UNL     1      40.395 -51.452  49.871  0.00  0.00    +0.000 HD
ENDBRANCH  36  50
BRANCH  39  52
ATOM     52  O   UNL     1      38.528 -47.551  52.074  0.00  0.00    +0.000 OA
ATOM     53  H   UNL     1      38.682 -46.893  52.775  0.00  0.00    +0.000 HD
ENDBRANCH  39  52
ENDBRANCH  29  31
ENDBRANCH   2  29
TORSDOF 14
ENDMDL
MODEL 2
REMARK VINA RESULT:      -7.4      8.331     12.722
REMARK  Name = 
REMARK  14 active torsions:
REMARK  status: ('A' for Active; 'I' for Inactive)
REMARK    1  A    between atoms: O_1  and  C_14
REMARK    2  A    between atoms: O_1  and  C_15
REMARK    3  A    between atoms: O_4  and  C_16
REMARK    4  A    between atoms: O_5  and  C_18
REMARK    5  A    between atoms: O_6  and  C_26
REMARK    6  A    between atoms: O_7  and  C_29
REMARK    7  A    between atoms: O_8  and  C_35
REMARK    8  A    between atoms: O_9  and  C_36
REMARK    9  A    between atoms: O_10  and  C_39
REMARK   10  A    between atoms: O_11  and  C_40
REMARK   11  A    between atoms: O_12  and  C_41
REMARK   12  A    between atoms: O_13  and  C_43
REMARK   13  A    between atoms: C_14  and  C_20
REMARK   14  A    between atoms: C_17  and  C_24
REMARK                            x       y       z     vdW  Elec       q    Type
REMARK                         _______ _______ _______ _____ _____    ______ ____
ROOT
ATOM      1  O   UNL     1      47.493 -39.815  46.239  0.00  0.00    +0.000 OA
ATOM      2  C   UNL     1      48.661 -40.168  46.993  0.00  0.00    +0.000 C 
ATOM      3  C   UNL     1      49.515 -41.233  46.239  0.00  0.00    +0.000 C 
ATOM      4  C   UNL     1      48.668 -42.457  45.905  0.00  0.00    +0.000 C 
ATOM      5  C   UNL     1      47.359 -42.062  45.290  0.00  0.00    +0.000 A 
ATOM      6  C   UNL     1      46.855 -40.776  45.507  0.00  0.00    +0.000 A 
ATOM      7  C   UNL     1      46.588 -42.955  44.530  0.00  0.00    +0.000 A 
ATOM      8  C   UNL     1      45.626 -40.394  44.964  0.00  0.00    +0.000 A 
ATOM      9  C   UNL     1      45.354 -42.590  44.002  0.00  0.00    +0.000 A 
ATOM     10  C   UNL     1      44.884 -41.304  44.221  0.00  0.00    +0.000 A 
ENDROOT
BRANCH   2  11
ATOM     11  C   UNL     1      48.335 -40.635  48.424  0.00  0.00    +0.000 A 
ATOM     12  C   UNL     1      49.047 -41.704  49.013  0.00  0.00    +0.000 A 
ATOM     13  C   UNL     1      47.332 -40.005  49.192  0.00  0.00    +0.000 A 
ATOM     14  C   UNL     1      48.749 -42.119  50.307  0.00  0.00    +0.000 A 
ATOM     15  C   UNL     1      47.030 -40.438  50.486  0.00  0.00    +0.000 A 
ATOM     16  C   UNL     1      47.737 -41.496  51.028  0.00  0.00    +0.000 A 
BRANCH  14  17
ATOM     17  O   UNL     1      49.424 -43.133  50.925  0.00  0.00    +0.000 OA
ATOM     18  H   UNL     1      49.019 -43.990  50.684  0.00  0.00    +0.000 HD
ENDBRANCH  14  17
BRANCH  16  19
ATOM     19  O   UNL     1      47.445 -41.917  52.294  0.00  0.00    +0.000 OA
ATOM     20  H   UNL     1      48.209 -42.475  52.546  0.00  0.00    +0.000 HD
ENDBRANCH  16  19
ENDBRANCH   2  11
BRANCH   3  21
ATOM     21  O   UNL     1      50.072 -40.709  45.000  0.00  0.00    +0.000 OA
ATOM     22  H   UNL     1      49.326 -40.250  44.563  0.00  0.00    +0.000 HD
ENDBRANCH   3  21
BRANCH   4  23
ATOM     23  O   UNL     1      49.388 -43.303  44.991  0.00  0.00    +0.000 OA
ATOM     24  H   UNL     1      48.682 -43.764  44.485  0.00  0.00    +0.000 HD
ENDBRANCH   4  23
BRANCH   7  25
ATOM     25  O   UNL     1      47.024 -44.225  44.256  0.00  0.00    +0.000 OA
ATOM     26  H   UNL     1      47.378 -44.596  45.094  0.00  0.00    +0.000 HD
ENDBRANCH   7  25
BRANCH  10  27
ATOM     27  O   UNL     1      43.684 -40.889  43.719  0.00  0.00    +0.000 OA
ATOM     28  H   UNL     1      43.855 -40.291  42.972  0.00  0.00    +0.000 HD
ENDBRANCH  10  27
BRANCH   2  29
ATOM     29  O   UNL     1      49.542 -39.010  47.034  0.00  0.00    +0.000 OA
BRANCH  29  31
ATOM     30  O   UNL     1      48.950 -35.356  47.196  0.00  0.00    +0.000 OA
ATOM     31  C   UNL     1      48.995 -37.753  46.588  0.00  0.00    +0.000 C 
ATOM     32  C   UNL     1      49.511 -36.634  47.526  0.00  0.00    +0.000 C 
ATOM     33  C   UNL     1      49.452 -37.409  45.166  0.00  0.00    +0.000 C 
ATOM     34  C   UNL     1      49.320 -35.942  44.861  0.00  0.00    +0.000 A 
ATOM     35  C   UNL     1      49.077 -35.014  45.877  0.00  0.00    +0.000 A 
ATOM     36  C   UNL     1      49.445 -35.475  43.547  0.00  0.00    +0.000 A 
ATOM     37  C   UNL     1      48.917 -33.657  45.585  0.00  0.00    +0.000 A 
ATOM     38  C   UNL     1      49.303 -34.122  43.244  0.00  0.00    +0.000 A 
ATOM     39  C   UNL     1      49.034 -33.225  44.269  0.00  0.00    +0.000 A 
BRANCH  32  40
ATOM     40  C   UNL     1      49.157 -36.927  48.978  0.00  0.00    +0.000 A 
ATOM     41  C   UNL     1      49.983 -37.737  49.773  0.00  0.00    +0.000 A 
ATOM     42  C   UNL     1      48.033 -36.316  49.564  0.00  0.00    +0.000 A 
ATOM     43  C   UNL     1      49.710 -37.887  51.131  0.00  0.00    +0.000 A 
ATOM     44  C   UNL     1      47.755 -36.486  50.922  0.00  0.00    +0.000 A 
ATOM     45  C   UNL     1      48.606 -37.260  51.704  0.00  0.00    +0.000 A 
BRANCH  43  46
ATOM     46  O   UNL     1      50.563 -38.595  51.930  0.00  0.00    +0.000 OA
ATOM     47  H   UNL     1      51.401 -38.109  52.010  0.00  0.00    +0.000 HD
ENDBRANCH  43  46
BRANCH  45  48
ATOM     48  O   UNL     1      48.388 -37.388  53.047  0.00  0.00    +0.000 OA
ATOM     49  H   UNL     1      48.831 -38.192  53.365  0.00  0.00    +0.000 HD
ENDBRANCH  45  48
ENDBRANCH  32  40
BRANCH  36  50
ATOM     50  O   UNL     1      49.707 -36.377  42.554  0.00  0.00    +0.000 OA
ATOM     51  H   UNL     1      50.090 -35.907  41.794  0.00  0.00    +0.000 HD
ENDBRANCH  36  50
BRANCH  39  52
ATOM     52  O   UNL     1      48.893 -31.908  43.938  0.00  0.00    +0.000 OA
ATOM     53  H   UNL     1      49.774 -31.535  43.762  0.00  0.00    +0.000 HD
ENDBRANCH  39  52
ENDBRANCH  29  31
ENDBRANCH   2  29
TORSDOF 14
ENDMDL
MODEL 3
REMARK VINA RESULT:      -7.2      5.420     11.339
REMARK  Name = 
REMARK  14 active torsions:
REMARK  status: ('A' for Active; 'I' for Inactive)
REMARK    1  A    between atoms: O_1  and  C_14
REMARK    2  A    between atoms: O_1  and  C_15
REMARK    3  A    between atoms: O_4  and  C_16
REMARK    4  A    between atoms: O_5  and  C_18
REMARK    5  A    between atoms: O_6  and  C_26
REMARK    6  A    between atoms: O_7  and  C_29
REMARK    7  A    between atoms: O_8  and  C_35
REMARK    8  A    between atoms: O_9  and  C_36
REMARK    9  A    between atoms: O_10  and  C_39
REMARK   10  A    between atoms: O_11  and  C_40
REMARK   11  A    between atoms: O_12  and  C_41
REMARK   12  A    between atoms: O_13  and  C_43
REMARK   13  A    between atoms: C_14  and  C_20
REMARK   14  A    between atoms: C_17  and  C_24
REMARK                            x       y       z     vdW  Elec       q    Type
REMARK                         _______ _______ _______ _____ _____    ______ ____
ROOT
ATOM      1  O   UNL     1      49.517 -41.707  46.182  0.00  0.00    +0.000 OA
ATOM      2  C   UNL     1      48.475 -42.084  47.092  0.00  0.00    +0.000 C 
ATOM      3  C   UNL     1      47.089 -42.115  46.378  0.00  0.00    +0.000 C 
ATOM      4  C   UNL     1      46.800 -40.772  45.714  0.00  0.00    +0.000 C 
ATOM      5  C   UNL     1      47.976 -40.294  44.917  0.00  0.00    +0.000 A 
ATOM      6  C   UNL     1      49.252 -40.783  45.210  0.00  0.00    +0.000 A 
ATOM      7  C   UNL     1      47.852 -39.333  43.902  0.00  0.00    +0.000 A 
ATOM      8  C   UNL     1      50.366 -40.335  44.496  0.00  0.00    +0.000 A 
ATOM      9  C   UNL     1      48.958 -38.865  43.199  0.00  0.00    +0.000 A 
ATOM     10  C   UNL     1      50.212 -39.377  43.501  0.00  0.00    +0.000 A 
ENDROOT
BRANCH   2  11
ATOM     11  C   UNL     1      48.427 -41.196  48.351  0.00  0.00    +0.000 A 
ATOM     12  C   UNL     1      49.573 -40.489  48.778  0.00  0.00    +0.000 A 
ATOM     13  C   UNL     1      47.241 -41.052  49.103  0.00  0.00    +0.000 A 
ATOM     14  C   UNL     1      49.522 -39.688  49.914  0.00  0.00    +0.000 A 
ATOM     15  C   UNL     1      47.204 -40.255  50.252  0.00  0.00    +0.000 A 
ATOM     16  C   UNL     1      48.347 -39.587  50.649  0.00  0.00    +0.000 A 
BRANCH  14  17
ATOM     17  O   UNL     1      50.598 -38.969  50.353  0.00  0.00    +0.000 OA
ATOM     18  H   UNL     1      50.886 -39.311  51.223  0.00  0.00    +0.000 HD
ENDBRANCH  14  17
BRANCH  16  19
ATOM     19  O   UNL     1      48.310 -38.805  51.769  0.00  0.00    +0.000 OA
ATOM     20  H   UNL     1      48.896 -39.264  52.405  0.00  0.00    +0.000 HD
ENDBRANCH  16  19
ENDBRANCH   2  11
BRANCH   3  21
ATOM     21  O   UNL     1      47.023 -43.153  45.359  0.00  0.00    +0.000 OA
ATOM     22  H   UNL     1      47.284 -42.706  44.529  0.00  0.00    +0.000 HD
ENDBRANCH   3  21
BRANCH   4  23
ATOM     23  O   UNL     1      45.658 -40.900  44.850  0.00  0.00    +0.000 OA
ATOM     24  H   UNL     1      45.146 -41.645  45.239  0.00  0.00    +0.000 HD
ENDBRANCH   4  23
BRANCH   7  25
ATOM     25  O   UNL     1      46.633 -38.822  43.543  0.00  0.00    +0.000 OA
ATOM     26  H   UNL     1      46.591 -37.904  43.890  0.00  0.00    +0.000 HD
ENDBRANCH   7  25
BRANCH  10  27
ATOM     27  O   UNL     1      51.329 -38.961  42.837  0.00  0.00    +0.000 OA
ATOM     28  H   UNL     1      51.972 -39.690  42.831  0.00  0.00    +0.000 HD
ENDBRANCH  10  27
BRANCH   2  29
ATOM     29  O   UNL     1      48.682 -43.474  47.469  0.00  0.00    +0.000 OA
BRANCH  29  31
ATOM     30  O   UNL     1      51.343 -45.733  48.711  0.00  0.00    +0.000 OA
ATOM     31  C   UNL     1      50.042 -43.903  47.672  0.00  0.00    +0.000 C 
ATOM     32  C   UNL     1      50.022 -45.269  48.402  0.00  0.00    +0.000 C 
ATOM     33  C   UNL     1      50.778 -44.103  46.342  0.00  0.00    +0.000 C 
ATOM     34  C   UNL     1      51.985 -44.989  46.482  0.00  0.00    +0.000 A 
ATOM     35  C   UNL     1      52.197 -45.740  47.642  0.00  0.00    +0.000 A 
ATOM     36  C   UNL     1      52.921 -45.086  45.445  0.00  0.00    +0.000 A 
ATOM     37  C   UNL     1      53.340 -46.532  47.783  0.00  0.00    +0.000 A 
ATOM     38  C   UNL     1      54.056 -45.884  45.567  0.00  0.00    +0.000 A 
ATOM     39  C   UNL     1      54.257 -46.597  46.741  0.00  0.00    +0.000 A 
BRANCH  32  40
ATOM     40  C   UNL     1      49.250 -45.181  49.712  0.00  0.00    +0.000 A 
ATOM     41  C   UNL     1      48.828 -46.340  50.382  0.00  0.00    +0.000 A 
ATOM     42  C   UNL     1      49.024 -43.928  50.309  0.00  0.00    +0.000 A 
ATOM     43  C   UNL     1      48.239 -46.240  51.640  0.00  0.00    +0.000 A 
ATOM     44  C   UNL     1      48.415 -43.833  51.563  0.00  0.00    +0.000 A 
ATOM     45  C   UNL     1      48.040 -44.994  52.231  0.00  0.00    +0.000 A 
BRANCH  43  46
ATOM     46  O   UNL     1      47.914 -47.369  52.338  0.00  0.00    +0.000 OA
ATOM     47  H   UNL     1      46.952 -47.391  52.475  0.00  0.00    +0.000 HD
ENDBRANCH  43  46
BRANCH  45  48
ATOM     48  O   UNL     1      47.501 -44.929  53.484  0.00  0.00    +0.000 OA
ATOM     49  H   UNL     1      47.594 -45.795  53.915  0.00  0.00    +0.000 HD
ENDBRANCH  45  48
ENDBRANCH  32  40
BRANCH  36  50
ATOM     50  O   UNL     1      52.703 -44.372  44.299  0.00  0.00    +0.000 OA
ATOM     51  H   UNL     1      51.935 -44.747  43.836  0.00  0.00    +0.000 HD
ENDBRANCH  36  50
BRANCH  39  52
ATOM     52  O   UNL     1      55.382 -47.364  46.833  0.00  0.00    +0.000 OA
ATOM     53  H   UNL     1      56.156 -46.778  46.887  0.00  0.00    +0.000 HD
ENDBRANCH  39  52
ENDBRANCH  29  31
ENDBRANCH   2  29
TORSDOF 14
ENDMDL
MODEL 4
REMARK VINA RESULT:      -7.1      3.989      8.428
REMARK  Name = 
REMARK  14 active torsions:
REMARK  status: ('A' for Active; 'I' for Inactive)
REMARK    1  A    between atoms: O_1  and  C_14
REMARK    2  A    between atoms: O_1  and  C_15
REMARK    3  A    between atoms: O_4  and  C_16
REMARK    4  A    between atoms: O_5  and  C_18
REMARK    5  A    between atoms: O_6  and  C_26
REMARK    6  A    between atoms: O_7  and  C_29
REMARK    7  A    between atoms: O_8  and  C_35
REMARK    8  A    between atoms: O_9  and  C_36
REMARK    9  A    between atoms: O_10  and  C_39
REMARK   10  A    between atoms: O_11  and  C_40
REMARK   11  A    between atoms: O_12  and  C_41
REMARK   12  A    between atoms: O_13  and  C_43
REMARK   13  A    between atoms: C_14  and  C_20
REMARK   14  A    between atoms: C_17  and  C_24
REMARK                            x       y       z     vdW  Elec       q    Type
REMARK                         _______ _______ _______ _____ _____    ______ ____
ROOT
ATOM      1  O   UNL     1      50.635 -46.156  46.821  0.00  0.00    +0.000 OA
ATOM      2  C   UNL     1      51.054 -45.956  48.178  0.00  0.00    +0.000 C 
ATOM      3  C   UNL     1      52.606 -45.837  48.275  0.00  0.00    +0.000 C 
ATOM      4  C   UNL     1      53.276 -47.058  47.652  0.00  0.00    +0.000 C 
ATOM      5  C   UNL     1      52.692 -47.373  46.308  0.00  0.00    +0.000 A 
ATOM      6  C   UNL     1      51.411 -46.913  45.988  0.00  0.00    +0.000 A 
ATOM      7  C   UNL     1      53.370 -48.156  45.362  0.00  0.00    +0.000 A 
ATOM      8  C   UNL     1      50.837 -47.214  44.751  0.00  0.00    +0.000 A 
ATOM      9  C   UNL     1      52.798 -48.478  44.134  0.00  0.00    +0.000 A 
ATOM     10  C   UNL     1      51.532 -47.997  43.837  0.00  0.00    +0.000 A 
ENDROOT
BRANCH   2  11
ATOM     11  C   UNL     1      50.523 -47.040  49.137  0.00  0.00    +0.000 A 
ATOM     12  C   UNL     1      49.599 -48.009  48.686  0.00  0.00    +0.000 A 
ATOM     13  C   UNL     1      50.952 -47.106  50.479  0.00  0.00    +0.000 A 
ATOM     14  C   UNL     1      49.126 -48.986  49.557  0.00  0.00    +0.000 A 
ATOM     15  C   UNL     1      50.459 -48.083  51.350  0.00  0.00    +0.000 A 
ATOM     16  C   UNL     1      49.546 -49.009  50.881  0.00  0.00    +0.000 A 
BRANCH  14  17
ATOM     17  O   UNL     1      48.248 -49.956  49.162  0.00  0.00    +0.000 OA
ATOM     18  H   UNL     1      47.333 -49.662  49.345  0.00  0.00    +0.000 HD
ENDBRANCH  14  17
BRANCH  16  19
ATOM     19  O   UNL     1      49.068 -49.966  51.730  0.00  0.00    +0.000 OA
ATOM     20  H   UNL     1      48.387 -50.436  51.207  0.00  0.00    +0.000 HD
ENDBRANCH  16  19
ENDBRANCH   2  11
BRANCH   3  21
ATOM     21  O   UNL     1      53.105 -44.646  47.601  0.00  0.00    +0.000 OA
ATOM     22  H   UNL     1      54.002 -44.889  47.295  0.00  0.00    +0.000 HD
ENDBRANCH   3  21
BRANCH   4  23
ATOM     23  O   UNL     1      54.686 -46.812  47.514  0.00  0.00    +0.000 OA
ATOM     24  H   UNL     1      54.764 -46.339  46.655  0.00  0.00    +0.000 HD
ENDBRANCH   4  23
BRANCH   7  25
ATOM     25  O   UNL     1      54.635 -48.626  45.593  0.00  0.00    +0.000 OA
ATOM     26  H   UNL     1      54.578 -49.247  46.352  0.00  0.00    +0.000 HD
ENDBRANCH   7  25
BRANCH  10  27
ATOM     27  O   UNL     1      50.927 -48.275  42.645  0.00  0.00    +0.000 OA
ATOM     28  H   UNL     1      49.986 -48.450  42.812  0.00  0.00    +0.000 HD
ENDBRANCH  10  27
BRANCH   2  29
ATOM     29  O   UNL     1      50.596 -44.643  48.606  0.00  0.00    +0.000 OA
BRANCH  29  31
ATOM     30  O   UNL     1      47.366 -42.873  48.200  0.00  0.00    +0.000 OA
ATOM     31  C   UNL     1      49.515 -44.050  47.859  0.00  0.00    +0.000 C 
ATOM     32  C   UNL     1      48.516 -43.420  48.861  0.00  0.00    +0.000 C 
ATOM     33  C   UNL     1      50.010 -42.931  46.937  0.00  0.00    +0.000 C 
ATOM     34  C   UNL     1      48.907 -41.992  46.532  0.00  0.00    +0.000 A 
ATOM     35  C   UNL     1      47.666 -42.018  47.175  0.00  0.00    +0.000 A 
ATOM     36  C   UNL     1      49.105 -41.064  45.502  0.00  0.00    +0.000 A 
ATOM     37  C   UNL     1      46.632 -41.171  46.769  0.00  0.00    +0.000 A 
ATOM     38  C   UNL     1      48.087 -40.203  45.099  0.00  0.00    +0.000 A 
ATOM     39  C   UNL     1      46.854 -40.270  45.735  0.00  0.00    +0.000 A 
BRANCH  32  40
ATOM     40  C   UNL     1      48.018 -44.453  49.864  0.00  0.00    +0.000 A 
ATOM     41  C   UNL     1      48.331 -44.344  51.228  0.00  0.00    +0.000 A 
ATOM     42  C   UNL     1      47.164 -45.487  49.441  0.00  0.00    +0.000 A 
ATOM     43  C   UNL     1      47.760 -45.224  52.145  0.00  0.00    +0.000 A 
ATOM     44  C   UNL     1      46.609 -46.378  50.362  0.00  0.00    +0.000 A 
ATOM     45  C   UNL     1      46.898 -46.232  51.715  0.00  0.00    +0.000 A 
BRANCH  43  46
ATOM     46  O   UNL     1      47.985 -45.065  53.482  0.00  0.00    +0.000 OA
ATOM     47  H   UNL     1      47.481 -45.737  53.972  0.00  0.00    +0.000 HD
ENDBRANCH  43  46
BRANCH  45  48
ATOM     48  O   UNL     1      46.318 -47.052  52.640  0.00  0.00    +0.000 OA
ATOM     49  H   UNL     1      46.250 -47.948  52.272  0.00  0.00    +0.000 HD
ENDBRANCH  45  48
ENDBRANCH  32  40
BRANCH  36  50
ATOM     50  O   UNL     1      50.325 -41.019  44.888  0.00  0.00    +0.000 OA
ATOM     51  H   UNL     1      51.018 -41.177  45.552  0.00  0.00    +0.000 HD
ENDBRANCH  36  50
BRANCH  39  52
ATOM     52  O   UNL     1      45.875 -39.418  45.312  0.00  0.00    +0.000 OA
ATOM     53  H   UNL     1      45.353 -39.135  46.082  0.00  0.00    +0.000 HD
ENDBRANCH  39  52
ENDBRANCH  29  31
ENDBRANCH   2  29
TORSDOF 14
ENDMDL
MODEL 5
REMARK VINA RESULT:      -7.0      3.975      7.261
REMARK  Name = 
REMARK  14 active torsions:
REMARK  status: ('A' for Active; 'I' for Inactive)
REMARK    1  A    between atoms: O_1  and  C_14
REMARK    2  A    between atoms: O_1  and  C_15
REMARK    3  A    between atoms: O_4  and  C_16
REMARK    4  A    between atoms: O_5  and  C_18
REMARK    5  A    between atoms: O_6  and  C_26
REMARK    6  A    between atoms: O_7  and  C_29
REMARK    7  A    between atoms: O_8  and  C_35
REMARK    8  A    between atoms: O_9  and  C_36
REMARK    9  A    between atoms: O_10  and  C_39
REMARK   10  A    between atoms: O_11  and  C_40
REMARK   11  A    between atoms: O_12  and  C_41
REMARK   12  A    between atoms: O_13  and  C_43
REMARK   13  A    between atoms: C_14  and  C_20
REMARK   14  A    between atoms: C_17  and  C_24
REMARK                            x       y       z     vdW  Elec       q    Type
REMARK                         _______ _______ _______ _____ _____    ______ ____
ROOT
ATOM      1  O   UNL     1      47.445 -44.180  48.894  0.00  0.00    +0.000 OA
ATOM      2  C   UNL     1      48.072 -44.980  49.906  0.00  0.00    +0.000 C 
ATOM      3  C   UNL     1      48.119 -44.225  51.269  0.00  0.00    +0.000 C 
ATOM      4  C   UNL     1      48.809 -42.874  51.109  0.00  0.00    +0.000 C 
ATOM      5  C   UNL     1      48.274 -42.126  49.925  0.00  0.00    +0.000 A 
ATOM      6  C   UNL     1      47.640 -42.827  48.896  0.00  0.00    +0.000 A 
ATOM      7  C   UNL     1      48.422 -40.738  49.787  0.00  0.00    +0.000 A 
ATOM      8  C   UNL     1      47.154 -42.155  47.772  0.00  0.00    +0.000 A 
ATOM      9  C   UNL     1      47.959 -40.061  48.663  0.00  0.00    +0.000 A 
ATOM     10  C   UNL     1      47.322 -40.779  47.662  0.00  0.00    +0.000 A 
ENDROOT
BRANCH   2  11
ATOM     11  C   UNL     1      49.475 -45.471  49.499  0.00  0.00    +0.000 A 
ATOM     12  C   UNL     1      50.171 -44.858  48.433  0.00  0.00    +0.000 A 
ATOM     13  C   UNL     1      50.109 -46.530  50.182  0.00  0.00    +0.000 A 
ATOM     14  C   UNL     1      51.438 -45.306  48.072  0.00  0.00    +0.000 A 
ATOM     15  C   UNL     1      51.377 -46.982  49.803  0.00  0.00    +0.000 A 
ATOM     16  C   UNL     1      52.026 -46.369  48.747  0.00  0.00    +0.000 A 
BRANCH  14  17
ATOM     17  O   UNL     1      52.158 -44.731  47.063  0.00  0.00    +0.000 OA
ATOM     18  H   UNL     1      51.602 -44.074  46.597  0.00  0.00    +0.000 HD
ENDBRANCH  14  17
BRANCH  16  19
ATOM     19  O   UNL     1      53.266 -46.807  48.379  0.00  0.00    +0.000 OA
ATOM     20  H   UNL     1      53.663 -46.045  47.910  0.00  0.00    +0.000 HD
ENDBRANCH  16  19
ENDBRANCH   2  11
BRANCH   3  21
ATOM     21  O   UNL     1      46.788 -43.998  51.813  0.00  0.00    +0.000 OA
ATOM     22  H   UNL     1      46.217 -43.858  51.031  0.00  0.00    +0.000 HD
ENDBRANCH   3  21
BRANCH   4  23
ATOM     23  O   UNL     1      48.611 -42.091  52.298  0.00  0.00    +0.000 OA
ATOM     24  H   UNL     1      49.518 -41.808  52.553  0.00  0.00    +0.000 HD
ENDBRANCH   4  23
BRANCH   7  25
ATOM     25  O   UNL     1      49.013 -39.979  50.762  0.00  0.00    +0.000 OA
ATOM     26  H   UNL     1      49.549 -39.292  50.308  0.00  0.00    +0.000 HD
ENDBRANCH   7  25
BRANCH  10  27
ATOM     27  O   UNL     1      46.841 -40.166  46.542  0.00  0.00    +0.000 OA
ATOM     28  H   UNL     1      47.595 -39.901  45.989  0.00  0.00    +0.000 HD
ENDBRANCH  10  27
BRANCH   2  29
ATOM     29  O   UNL     1      47.208 -46.116  50.188  0.00  0.00    +0.000 OA
BRANCH  29  31
ATOM     30  O   UNL     1      44.822 -47.815  47.919  0.00  0.00    +0.000 OA
ATOM     31  C   UNL     1      46.000 -46.231  49.409  0.00  0.00    +0.000 C 
ATOM     32  C   UNL     1      45.959 -47.644  48.776  0.00  0.00    +0.000 C 
ATOM     33  C   UNL     1      44.748 -46.080  50.279  0.00  0.00    +0.000 C 
ATOM     34  C   UNL     1      43.524 -46.664  49.628  0.00  0.00    +0.000 A 
ATOM     35  C   UNL     1      43.629 -47.483  48.501  0.00  0.00    +0.000 A 
ATOM     36  C   UNL     1      42.250 -46.402  50.146  0.00  0.00    +0.000 A 
ATOM     37  C   UNL     1      42.487 -47.992  47.876  0.00  0.00    +0.000 A 
ATOM     38  C   UNL     1      41.104 -46.917  49.542  0.00  0.00    +0.000 A 
ATOM     39  C   UNL     1      41.235 -47.704  48.406  0.00  0.00    +0.000 A 
BRANCH  32  40
ATOM     40  C   UNL     1      47.205 -47.909  47.941  0.00  0.00    +0.000 A 
ATOM     41  C   UNL     1      47.532 -47.087  46.850  0.00  0.00    +0.000 A 
ATOM     42  C   UNL     1      48.091 -48.937  48.308  0.00  0.00    +0.000 A 
ATOM     43  C   UNL     1      48.740 -47.267  46.181  0.00  0.00    +0.000 A 
ATOM     44  C   UNL     1      49.293 -49.125  47.621  0.00  0.00    +0.000 A 
ATOM     45  C   UNL     1      49.620 -48.276  46.568  0.00  0.00    +0.000 A 
BRANCH  43  46
ATOM     46  O   UNL     1      49.107 -46.411  45.182  0.00  0.00    +0.000 OA
ATOM     47  H   UNL     1      49.995 -46.650  44.868  0.00  0.00    +0.000 HD
ENDBRANCH  43  46
BRANCH  45  48
ATOM     48  O   UNL     1      50.817 -48.401  45.924  0.00  0.00    +0.000 OA
ATOM     49  H   UNL     1      50.805 -47.852  45.123  0.00  0.00    +0.000 HD
ENDBRANCH  45  48
ENDBRANCH  32  40
BRANCH  36  50
ATOM     50  O   UNL     1      42.146 -45.622  51.263  0.00  0.00    +0.000 OA
ATOM     51  H   UNL     1      42.984 -45.662  51.755  0.00  0.00    +0.000 HD
ENDBRANCH  36  50
BRANCH  39  52
ATOM     52  O   UNL     1      40.094 -48.187  47.834  0.00  0.00    +0.000 OA
ATOM     53  H   UNL     1      39.444 -47.465  47.777  0.00  0.00    +0.000 HD
ENDBRANCH  39  52
ENDBRANCH  29  31
ENDBRANCH   2  29
TORSDOF 14
ENDMDL
MODEL 6
REMARK VINA RESULT:      -6.8      4.246      8.710
REMARK  Name = 
REMARK  14 active torsions:
REMARK  status: ('A' for Active; 'I' for Inactive)
REMARK    1  A    between atoms: O_1  and  C_14
REMARK    2  A    between atoms: O_1  and  C_15
REMARK    3  A    between atoms: O_4  and  C_16
REMARK    4  A    between atoms: O_5  and  C_18
REMARK    5  A    between atoms: O_6  and  C_26
REMARK    6  A    between atoms: O_7  and  C_29
REMARK    7  A    between atoms: O_8  and  C_35
REMARK    8  A    between atoms: O_9  and  C_36
REMARK    9  A    between atoms: O_10  and  C_39
REMARK   10  A    between atoms: O_11  and  C_40
REMARK   11  A    between atoms: O_12  and  C_41
REMARK   12  A    between atoms: O_13  and  C_43
REMARK   13  A    between atoms: C_14  and  C_20
REMARK   14  A    between atoms: C_17  and  C_24
REMARK                            x       y       z     vdW  Elec       q    Type
REMARK                         _______ _______ _______ _____ _____    ______ ____
ROOT
ATOM      1  O   UNL     1      48.451 -44.845  49.073  0.00  0.00    +0.000 OA
ATOM      2  C   UNL     1      47.033 -44.788  49.279  0.00  0.00    +0.000 C 
ATOM      3  C   UNL     1      46.669 -45.087  50.765  0.00  0.00    +0.000 C 
ATOM      4  C   UNL     1      47.248 -46.430  51.197  0.00  0.00    +0.000 C 
ATOM      5  C   UNL     1      48.689 -46.554  50.803  0.00  0.00    +0.000 A 
ATOM      6  C   UNL     1      49.190 -45.765  49.764  0.00  0.00    +0.000 A 
ATOM      7  C   UNL     1      49.557 -47.472  51.414  0.00  0.00    +0.000 A 
ATOM      8  C   UNL     1      50.523 -45.880  49.363  0.00  0.00    +0.000 A 
ATOM      9  C   UNL     1      50.881 -47.608  51.009  0.00  0.00    +0.000 A 
ATOM     10  C   UNL     1      51.356 -46.803  49.984  0.00  0.00    +0.000 A 
ENDROOT
BRANCH   2  11
ATOM     11  C   UNL     1      46.250 -45.709  48.323  0.00  0.00    +0.000 A 
ATOM     12  C   UNL     1      44.838 -45.747  48.356  0.00  0.00    +0.000 A 
ATOM     13  C   UNL     1      46.913 -46.526  47.382  0.00  0.00    +0.000 A 
ATOM     14  C   UNL     1      44.138 -46.579  47.488  0.00  0.00    +0.000 A 
ATOM     15  C   UNL     1      46.201 -47.369  46.525  0.00  0.00    +0.000 A 
ATOM     16  C   UNL     1      44.820 -47.392  46.591  0.00  0.00    +0.000 A 
BRANCH  14  17
ATOM     17  O   UNL     1      42.772 -46.635  47.468  0.00  0.00    +0.000 OA
ATOM     18  H   UNL     1      42.451 -46.439  46.565  0.00  0.00    +0.000 HD
ENDBRANCH  14  17
BRANCH  16  19
ATOM     19  O   UNL     1      44.123 -48.213  45.750  0.00  0.00    +0.000 OA
ATOM     20  H   UNL     1      43.317 -47.704  45.527  0.00  0.00    +0.000 HD
ENDBRANCH  16  19
ENDBRANCH   2  11
BRANCH   3  21
ATOM     21  O   UNL     1      47.170 -44.060  51.667  0.00  0.00    +0.000 OA
ATOM     22  H   UNL     1      48.140 -44.192  51.684  0.00  0.00    +0.000 HD
ENDBRANCH   3  21
BRANCH   4  23
ATOM     23  O   UNL     1      47.131 -46.566  52.624  0.00  0.00    +0.000 OA
ATOM     24  H   UNL     1      47.240 -47.530  52.783  0.00  0.00    +0.000 HD
ENDBRANCH   4  23
BRANCH   7  25
ATOM     25  O   UNL     1      49.147 -48.265  52.453  0.00  0.00    +0.000 OA
ATOM     26  H   UNL     1      48.907 -49.139  52.072  0.00  0.00    +0.000 HD
ENDBRANCH   7  25
BRANCH  10  27
ATOM     27  O   UNL     1      52.647 -46.888  49.552  0.00  0.00    +0.000 OA
ATOM     28  H   UNL     1      52.669 -46.672  48.605  0.00  0.00    +0.000 HD
ENDBRANCH  10  27
BRANCH   2  29
ATOM     29  O   UNL     1      46.604 -43.408  49.106  0.00  0.00    +0.000 OA
BRANCH  29  31
ATOM     30  O   UNL     1      47.905 -40.736  46.893  0.00  0.00    +0.000 OA
ATOM     31  C   UNL     1      47.588 -42.470  48.629  0.00  0.00    +0.000 C 
ATOM     32  C   UNL     1      46.962 -41.645  47.477  0.00  0.00    +0.000 C 
ATOM     33  C   UNL     1      48.010 -41.485  49.724  0.00  0.00    +0.000 C 
ATOM     34  C   UNL     1      48.631 -40.235  49.164  0.00  0.00    +0.000 A 
ATOM     35  C   UNL     1      48.547 -39.938  47.800  0.00  0.00    +0.000 A 
ATOM     36  C   UNL     1      49.303 -39.337  50.002  0.00  0.00    +0.000 A 
ATOM     37  C   UNL     1      49.158 -38.796  47.278  0.00  0.00    +0.000 A 
ATOM     38  C   UNL     1      49.903 -38.186  49.496  0.00  0.00    +0.000 A 
ATOM     39  C   UNL     1      49.829 -37.929  48.133  0.00  0.00    +0.000 A 
BRANCH  32  40
ATOM     40  C   UNL     1      46.452 -42.553  46.365  0.00  0.00    +0.000 A 
ATOM     41  C   UNL     1      47.344 -43.286  45.567  0.00  0.00    +0.000 A 
ATOM     42  C   UNL     1      45.069 -42.728  46.182  0.00  0.00    +0.000 A 
ATOM     43  C   UNL     1      46.853 -44.207  44.643  0.00  0.00    +0.000 A 
ATOM     44  C   UNL     1      44.583 -43.639  45.240  0.00  0.00    +0.000 A 
ATOM     45  C   UNL     1      45.481 -44.388  44.485  0.00  0.00    +0.000 A 
BRANCH  43  46
ATOM     46  O   UNL     1      47.715 -44.992  43.932  0.00  0.00    +0.000 OA
ATOM     47  H   UNL     1      48.438 -44.441  43.589  0.00  0.00    +0.000 HD
ENDBRANCH  43  46
BRANCH  45  48
ATOM     48  O   UNL     1      45.029 -45.329  43.604  0.00  0.00    +0.000 OA
ATOM     49  H   UNL     1      44.087 -45.170  43.426  0.00  0.00    +0.000 HD
ENDBRANCH  45  48
ENDBRANCH  32  40
BRANCH  36  50
ATOM     50  O   UNL     1      49.365 -39.612  51.339  0.00  0.00    +0.000 OA
ATOM     51  H   UNL     1      48.904 -38.909  51.827  0.00  0.00    +0.000 HD
ENDBRANCH  36  50
BRANCH  39  52
ATOM     52  O   UNL     1      50.433 -36.798  47.667  0.00  0.00    +0.000 OA
ATOM     53  H   UNL     1      49.857 -36.037  47.854  0.00  0.00    +0.000 HD
ENDBRANCH  39  52
ENDBRANCH  29  31
ENDBRANCH   2  29
TORSDOF 14
ENDMDL
MODEL 7
REMARK VINA RESULT:      -6.6      4.294      6.852
REMARK  Name = 
REMARK  14 active torsions:
REMARK  status: ('A' for Active; 'I' for Inactive)
REMARK    1  A    between atoms: O_1  and  C_14
REMARK    2  A    between atoms: O_1  and  C_15
REMARK    3  A    between atoms: O_4  and  C_16
REMARK    4  A    between atoms: O_5  and  C_18
REMARK    5  A    between atoms: O_6  and  C_26
REMARK    6  A    between atoms: O_7  and  C_29
REMARK    7  A    between atoms: O_8  and  C_35
REMARK    8  A    between atoms: O_9  and  C_36
REMARK    9  A    between atoms: O_10  and  C_39
REMARK   10  A    between atoms: O_11  and  C_40
REMARK   11  A    between atoms: O_12  and  C_41
REMARK   12  A    between atoms: O_13  and  C_43
REMARK   13  A    between atoms: C_14  and  C_20
REMARK   14  A    between atoms: C_17  and  C_24
REMARK                            x       y       z     vdW  Elec       q    Type
REMARK                         _______ _______ _______ _____ _____    ______ ____
ROOT
ATOM      1  O   UNL     1      47.759 -45.690  49.103  0.00  0.00    +0.000 OA
ATOM      2  C   UNL     1      48.509 -44.668  48.434  0.00  0.00    +0.000 C 
ATOM      3  C   UNL     1      49.938 -45.170  48.065  0.00  0.00    +0.000 C 
ATOM      4  C   UNL     1      50.663 -45.678  49.308  0.00  0.00    +0.000 C 
ATOM      5  C   UNL     1      49.793 -46.602  50.106  0.00  0.00    +0.000 A 
ATOM      6  C   UNL     1      48.404 -46.539  49.959  0.00  0.00    +0.000 A 
ATOM      7  C   UNL     1      50.320 -47.510  51.036  0.00  0.00    +0.000 A 
ATOM      8  C   UNL     1      47.572 -47.373  50.710  0.00  0.00    +0.000 A 
ATOM      9  C   UNL     1      49.498 -48.331  51.803  0.00  0.00    +0.000 A 
ATOM     10  C   UNL     1      48.124 -48.258  51.628  0.00  0.00    +0.000 A 
ENDROOT
BRANCH   2  11
ATOM     11  C   UNL     1      48.575 -43.351  49.231  0.00  0.00    +0.000 A 
ATOM     12  C   UNL     1      47.916 -43.230  50.475  0.00  0.00    +0.000 A 
ATOM     13  C   UNL     1      49.303 -42.240  48.756  0.00  0.00    +0.000 A 
ATOM     14  C   UNL     1      47.982 -42.039  51.192  0.00  0.00    +0.000 A 
ATOM     15  C   UNL     1      49.351 -41.043  49.476  0.00  0.00    +0.000 A 
ATOM     16  C   UNL     1      48.685 -40.952  50.684  0.00  0.00    +0.000 A 
BRANCH  14  17
ATOM     17  O   UNL     1      47.379 -41.880  52.407  0.00  0.00    +0.000 OA
ATOM     18  H   UNL     1      46.872 -41.044  52.414  0.00  0.00    +0.000 HD
ENDBRANCH  14  17
BRANCH  16  19
ATOM     19  O   UNL     1      48.735 -39.784  51.390  0.00  0.00    +0.000 OA
ATOM     20  H   UNL     1      48.964 -39.106  50.722  0.00  0.00    +0.000 HD
ENDBRANCH  16  19
ENDBRANCH   2  11
BRANCH   3  21
ATOM     21  O   UNL     1      49.904 -46.244  47.083  0.00  0.00    +0.000 OA
ATOM     22  H   UNL     1      50.686 -46.796  47.287  0.00  0.00    +0.000 HD
ENDBRANCH   3  21
BRANCH   4  23
ATOM     23  O   UNL     1      51.860 -46.371  48.915  0.00  0.00    +0.000 OA
ATOM     24  H   UNL     1      51.649 -46.725  48.021  0.00  0.00    +0.000 HD
ENDBRANCH   4  23
BRANCH   7  25
ATOM     25  O   UNL     1      51.670 -47.645  51.221  0.00  0.00    +0.000 OA
ATOM     26  H   UNL     1      52.108 -46.971  50.657  0.00  0.00    +0.000 HD
ENDBRANCH   7  25
BRANCH  10  27
ATOM     27  O   UNL     1      47.273 -49.046  52.346  0.00  0.00    +0.000 OA
ATOM     28  H   UNL     1      47.723 -49.885  52.543  0.00  0.00    +0.000 HD
ENDBRANCH  10  27
BRANCH   2  29
ATOM     29  O   UNL     1      47.898 -44.434  47.134  0.00  0.00    +0.000 OA
BRANCH  29  31
ATOM     30  O   UNL     1      45.058 -42.488  45.763  0.00  0.00    +0.000 OA
ATOM     31  C   UNL     1      46.555 -43.910  47.125  0.00  0.00    +0.000 C 
ATOM     32  C   UNL     1      46.350 -43.109  45.815  0.00  0.00    +0.000 C 
ATOM     33  C   UNL     1      45.509 -45.030  47.149  0.00  0.00    +0.000 C 
ATOM     34  C   UNL     1      44.164 -44.570  46.658  0.00  0.00    +0.000 A 
ATOM     35  C   UNL     1      44.017 -43.342  46.006  0.00  0.00    +0.000 A 
ATOM     36  C   UNL     1      43.029 -45.368  46.840  0.00  0.00    +0.000 A 
ATOM     37  C   UNL     1      42.760 -42.901  45.586  0.00  0.00    +0.000 A 
ATOM     38  C   UNL     1      41.772 -44.947  46.412  0.00  0.00    +0.000 A 
ATOM     39  C   UNL     1      41.649 -43.710  45.792  0.00  0.00    +0.000 A 
BRANCH  32  40
ATOM     40  C   UNL     1      47.393 -42.009  45.675  0.00  0.00    +0.000 A 
ATOM     41  C   UNL     1      47.179 -40.737  46.229  0.00  0.00    +0.000 A 
ATOM     42  C   UNL     1      48.625 -42.284  45.055  0.00  0.00    +0.000 A 
ATOM     43  C   UNL     1      48.198 -39.786  46.201  0.00  0.00    +0.000 A 
ATOM     44  C   UNL     1      49.636 -41.321  45.014  0.00  0.00    +0.000 A 
ATOM     45  C   UNL     1      49.422 -40.079  45.603  0.00  0.00    +0.000 A 
BRANCH  43  46
ATOM     46  O   UNL     1      48.031 -38.581  46.822  0.00  0.00    +0.000 OA
ATOM     47  H   UNL     1      47.392 -38.050  46.319  0.00  0.00    +0.000 HD
ENDBRANCH  43  46
BRANCH  45  48
ATOM     48  O   UNL     1      50.418 -39.144  45.630  0.00  0.00    +0.000 OA
ATOM     49  H   UNL     1      50.140 -38.370  45.113  0.00  0.00    +0.000 HD
ENDBRANCH  45  48
ENDBRANCH  32  40
BRANCH  36  50
ATOM     50  O   UNL     1      43.174 -46.580  47.456  0.00  0.00    +0.000 OA
ATOM     51  H   UNL     1      43.627 -47.189  46.849  0.00  0.00    +0.000 HD
ENDBRANCH  36  50
BRANCH  39  52
ATOM     52  O   UNL     1      40.403 -43.323  45.392  0.00  0.00    +0.000 OA
ATOM     53  H   UNL     1      40.466 -42.948  44.496  0.00  0.00    +0.000 HD
ENDBRANCH  39  52
ENDBRANCH  29  31
ENDBRANCH   2  29
TORSDOF 14
ENDMDL
MODEL 8
REMARK VINA RESULT:      -6.4      2.338      6.741
REMARK  Name = 
REMARK  14 active torsions:
REMARK  status: ('A' for Active; 'I' for Inactive)
REMARK    1  A    between atoms: O_1  and  C_14
REMARK    2  A    between atoms: O_1  and  C_15
REMARK    3  A    between atoms: O_4  and  C_16
REMARK    4  A    between atoms: O_5  and  C_18
REMARK    5  A    between atoms: O_6  and  C_26
REMARK    6  A    between atoms: O_7  and  C_29
REMARK    7  A    between atoms: O_8  and  C_35
REMARK    8  A    between atoms: O_9  and  C_36
REMARK    9  A    between atoms: O_10  and  C_39
REMARK   10  A    between atoms: O_11  and  C_40
REMARK   11  A    between atoms: O_12  and  C_41
REMARK   12  A    between atoms: O_13  and  C_43
REMARK   13  A    between atoms: C_14  and  C_20
REMARK   14  A    between atoms: C_17  and  C_24
REMARK                            x       y       z     vdW  Elec       q    Type
REMARK                         _______ _______ _______ _____ _____    ______ ____
ROOT
ATOM      1  O   UNL     1      45.988 -47.999  50.055  0.00  0.00    +0.000 OA
ATOM      2  C   UNL     1      46.476 -46.940  50.890  0.00  0.00    +0.000 C 
ATOM      3  C   UNL     1      45.313 -46.265  51.679  0.00  0.00    +0.000 C 
ATOM      4  C   UNL     1      44.231 -45.775  50.721  0.00  0.00    +0.000 C 
ATOM      5  C   UNL     1      43.865 -46.834  49.725  0.00  0.00    +0.000 A 
ATOM      6  C   UNL     1      44.769 -47.864  49.451  0.00  0.00    +0.000 A 
ATOM      7  C   UNL     1      42.654 -46.810  49.017  0.00  0.00    +0.000 A 
ATOM      8  C   UNL     1      44.459 -48.850  48.510  0.00  0.00    +0.000 A 
ATOM      9  C   UNL     1      42.345 -47.775  48.063  0.00  0.00    +0.000 A 
ATOM     10  C   UNL     1      43.254 -48.795  47.821  0.00  0.00    +0.000 A 
ENDROOT
BRANCH   2  11
ATOM     11  C   UNL     1      47.297 -45.892  50.113  0.00  0.00    +0.000 A 
ATOM     12  C   UNL     1      47.278 -45.866  48.700  0.00  0.00    +0.000 A 
ATOM     13  C   UNL     1      48.074 -44.923  50.783  0.00  0.00    +0.000 A 
ATOM     14  C   UNL     1      48.019 -44.916  48.005  0.00  0.00    +0.000 A 
ATOM     15  C   UNL     1      48.827 -43.981  50.076  0.00  0.00    +0.000 A 
ATOM     16  C   UNL     1      48.797 -43.991  48.693  0.00  0.00    +0.000 A 
BRANCH  14  17
ATOM     17  O   UNL     1      48.017 -44.838  46.641  0.00  0.00    +0.000 OA
ATOM     18  H   UNL     1      47.097 -44.899  46.312  0.00  0.00    +0.000 HD
ENDBRANCH  14  17
BRANCH  16  19
ATOM     19  O   UNL     1      49.529 -43.069  48.002  0.00  0.00    +0.000 OA
ATOM     20  H   UNL     1      49.325 -43.252  47.062  0.00  0.00    +0.000 HD
ENDBRANCH  16  19
ENDBRANCH   2  11
BRANCH   3  21
ATOM     21  O   UNL     1      44.700 -47.177  52.634  0.00  0.00    +0.000 OA
ATOM     22  H   UNL     1      45.432 -47.451  53.223  0.00  0.00    +0.000 HD
ENDBRANCH   3  21
BRANCH   4  23
ATOM     23  O   UNL     1      43.062 -45.400  51.470  0.00  0.00    +0.000 OA
ATOM     24  H   UNL     1      43.368 -45.394  52.404  0.00  0.00    +0.000 HD
ENDBRANCH   4  23
BRANCH   7  25
ATOM     25  O   UNL     1      41.709 -45.845  49.245  0.00  0.00    +0.000 OA
ATOM     26  H   UNL     1      41.882 -45.476  50.139  0.00  0.00    +0.000 HD
ENDBRANCH   7  25
BRANCH  10  27
ATOM     27  O   UNL     1      42.999 -49.772  46.903  0.00  0.00    +0.000 OA
ATOM     28  H   UNL     1      43.575 -50.530  47.095  0.00  0.00    +0.000 HD
ENDBRANCH  10  27
BRANCH   2  29
ATOM     29  O   UNL     1      47.289 -47.530  51.943  0.00  0.00    +0.000 OA
BRANCH  29  31
ATOM     30  O   UNL     1      49.180 -50.713  51.809  0.00  0.00    +0.000 OA
ATOM     31  C   UNL     1      47.436 -48.963  51.933  0.00  0.00    +0.000 C 
ATOM     32  C   UNL     1      48.947 -49.301  51.898  0.00  0.00    +0.000 C 
ATOM     33  C   UNL     1      46.850 -49.602  53.197  0.00  0.00    +0.000 C 
ATOM     34  C   UNL     1      47.400 -50.978  53.452  0.00  0.00    +0.000 A 
ATOM     35  C   UNL     1      48.515 -51.450  52.752  0.00  0.00    +0.000 A 
ATOM     36  C   UNL     1      46.808 -51.816  54.404  0.00  0.00    +0.000 A 
ATOM     37  C   UNL     1      48.999 -52.743  52.964  0.00  0.00    +0.000 A 
ATOM     38  C   UNL     1      47.291 -53.102  54.637  0.00  0.00    +0.000 A 
ATOM     39  C   UNL     1      48.383 -53.556  53.907  0.00  0.00    +0.000 A 
BRANCH  32  40
ATOM     40  C   UNL     1      49.629 -48.649  50.703  0.00  0.00    +0.000 A 
ATOM     41  C   UNL     1      49.242 -48.964  49.391  0.00  0.00    +0.000 A 
ATOM     42  C   UNL     1      50.604 -47.655  50.907  0.00  0.00    +0.000 A 
ATOM     43  C   UNL     1      49.787 -48.262  48.318  0.00  0.00    +0.000 A 
ATOM     44  C   UNL     1      51.161 -46.969  49.825  0.00  0.00    +0.000 A 
ATOM     45  C   UNL     1      50.737 -47.265  48.534  0.00  0.00    +0.000 A 
BRANCH  43  46
ATOM     46  O   UNL     1      49.345 -48.497  47.047  0.00  0.00    +0.000 OA
ATOM     47  H   UNL     1      50.105 -48.715  46.481  0.00  0.00    +0.000 HD
ENDBRANCH  43  46
BRANCH  45  48
ATOM     48  O   UNL     1      51.222 -46.563  47.467  0.00  0.00    +0.000 OA
ATOM     49  H   UNL     1      50.723 -46.811  46.671  0.00  0.00    +0.000 HD
ENDBRANCH  45  48
ENDBRANCH  32  40
BRANCH  36  50
ATOM     50  O   UNL     1      45.733 -51.349  55.108  0.00  0.00    +0.000 OA
ATOM     51  H   UNL     1      45.995 -50.542  55.583  0.00  0.00    +0.000 HD
ENDBRANCH  36  50
BRANCH  39  52
ATOM     52  O   UNL     1      48.827 -54.823  54.153  0.00  0.00    +0.000 OA
ATOM     53  H   UNL     1      49.402 -55.099  53.419  0.00  0.00    +0.000 HD
ENDBRANCH  39  52
ENDBRANCH  29  31
ENDBRANCH   2  29
TORSDOF 14
ENDMDL
MODEL 9
REMARK VINA RESULT:      -6.3      4.625      9.567
REMARK  Name = 
REMARK  14 active torsions:
REMARK  status: ('A' for Active; 'I' for Inactive)
REMARK    1  A    between atoms: O_1  and  C_14
REMARK    2  A    between atoms: O_1  and  C_15
REMARK    3  A    between atoms: O_4  and  C_16
REMARK    4  A    between atoms: O_5  and  C_18
REMARK    5  A    between atoms: O_6  and  C_26
REMARK    6  A    between atoms: O_7  and  C_29
REMARK    7  A    between atoms: O_8  and  C_35
REMARK    8  A    between atoms: O_9  and  C_36
REMARK    9  A    between atoms: O_10  and  C_39
REMARK   10  A    between atoms: O_11  and  C_40
REMARK   11  A    between atoms: O_12  and  C_41
REMARK   12  A    between atoms: O_13  and  C_43
REMARK   13  A    between atoms: C_14  and  C_20
REMARK   14  A    between atoms: C_17  and  C_24
REMARK                            x       y       z     vdW  Elec       q    Type
REMARK                         _______ _______ _______ _____ _____    ______ ____
ROOT
ATOM      1  O   UNL     1      47.413 -55.196  55.662  0.00  0.00    +0.000 OA
ATOM      2  C   UNL     1      46.881 -54.711  56.903  0.00  0.00    +0.000 C 
ATOM      3  C   UNL     1      48.020 -54.220  57.848  0.00  0.00    +0.000 C 
ATOM      4  C   UNL     1      49.046 -55.327  58.068  0.00  0.00    +0.000 C 
ATOM      5  C   UNL     1      49.452 -55.960  56.771  0.00  0.00    +0.000 A 
ATOM      6  C   UNL     1      48.606 -55.862  55.663  0.00  0.00    +0.000 A 
ATOM      7  C   UNL     1      50.642 -56.690  56.634  0.00  0.00    +0.000 A 
ATOM      8  C   UNL     1      48.952 -56.463  54.450  0.00  0.00    +0.000 A 
ATOM      9  C   UNL     1      50.986 -57.310  55.436  0.00  0.00    +0.000 A 
ATOM     10  C   UNL     1      50.135 -57.186  54.348  0.00  0.00    +0.000 A 
ENDROOT
BRANCH   2  11
ATOM     11  C   UNL     1      45.980 -55.740  57.613  0.00  0.00    +0.000 A 
ATOM     12  C   UNL     1      45.222 -55.371  58.747  0.00  0.00    +0.000 A 
ATOM     13  C   UNL     1      45.872 -57.067  57.147  0.00  0.00    +0.000 A 
ATOM     14  C   UNL     1      44.408 -56.304  59.382  0.00  0.00    +0.000 A 
ATOM     15  C   UNL     1      45.063 -58.001  57.801  0.00  0.00    +0.000 A 
ATOM     16  C   UNL     1      44.344 -57.612  58.916  0.00  0.00    +0.000 A 
BRANCH  14  17
ATOM     17  O   UNL     1      43.641 -55.989  60.468  0.00  0.00    +0.000 OA
ATOM     18  H   UNL     1      43.648 -56.736  61.100  0.00  0.00    +0.000 HD
ENDBRANCH  14  17
BRANCH  16  19
ATOM     19  O   UNL     1      43.549 -58.523  59.552  0.00  0.00    +0.000 OA
ATOM     20  H   UNL     1      42.768 -58.006  59.838  0.00  0.00    +0.000 HD
ENDBRANCH  16  19
ENDBRANCH   2  11
BRANCH   3  21
ATOM     21  O   UNL     1      48.710 -53.055  57.312  0.00  0.00    +0.000 OA
ATOM     22  H   UNL     1      49.649 -53.325  57.254  0.00  0.00    +0.000 HD
ENDBRANCH   3  21
BRANCH   4  23
ATOM     23  O   UNL     1      50.207 -54.782  58.717  0.00  0.00    +0.000 OA
ATOM     24  H   UNL     1      50.904 -54.809  58.024  0.00  0.00    +0.000 HD
ENDBRANCH   4  23
BRANCH   7  25
ATOM     25  O   UNL     1      51.531 -56.813  57.668  0.00  0.00    +0.000 OA
ATOM     26  H   UNL     1      51.490 -57.746  57.975  0.00  0.00    +0.000 HD
ENDBRANCH   7  25
BRANCH  10  27
ATOM     27  O   UNL     1      50.427 -57.765  53.147  0.00  0.00    +0.000 OA
ATOM     28  H   UNL     1      50.666 -58.694  53.305  0.00  0.00    +0.000 HD
ENDBRANCH  10  27
BRANCH   2  29
ATOM     29  O   UNL     1      46.131 -53.494  56.631  0.00  0.00    +0.000 OA
BRANCH  29  31
ATOM     30  O   UNL     1      44.249 -52.745  53.528  0.00  0.00    +0.000 OA
ATOM     31  C   UNL     1      45.989 -53.106  55.250  0.00  0.00    +0.000 C 
ATOM     32  C   UNL     1      44.478 -53.051  54.911  0.00  0.00    +0.000 C 
ATOM     33  C   UNL     1      46.570 -51.713  54.989  0.00  0.00    +0.000 C 
ATOM     34  C   UNL     1      46.023 -51.088  53.735  0.00  0.00    +0.000 A 
ATOM     35  C   UNL     1      44.912 -51.633  53.085  0.00  0.00    +0.000 A 
ATOM     36  C   UNL     1      46.613 -49.938  53.197  0.00  0.00    +0.000 A 
ATOM     37  C   UNL     1      44.431 -51.073  51.899  0.00  0.00    +0.000 A 
ATOM     38  C   UNL     1      46.132 -49.360  52.024  0.00  0.00    +0.000 A 
ATOM     39  C   UNL     1      45.045 -49.939  51.381  0.00  0.00    +0.000 A 
BRANCH  32  40
ATOM     40  C   UNL     1      43.800 -54.383  55.203  0.00  0.00    +0.000 A 
ATOM     41  C   UNL     1      42.857 -54.502  56.237  0.00  0.00    +0.000 A 
ATOM     42  C   UNL     1      44.052 -55.494  54.379  0.00  0.00    +0.000 A 
ATOM     43  C   UNL     1      42.155 -55.693  56.403  0.00  0.00    +0.000 A 
ATOM     44  C   UNL     1      43.358 -56.693  54.564  0.00  0.00    +0.000 A 
ATOM     45  C   UNL     1      42.399 -56.781  55.567  0.00  0.00    +0.000 A 
BRANCH  43  46
ATOM     46  O   UNL     1      41.170 -55.784  57.345  0.00  0.00    +0.000 OA
ATOM     47  H   UNL     1      40.379 -55.321  57.023  0.00  0.00    +0.000 HD
ENDBRANCH  43  46
BRANCH  45  48
ATOM     48  O   UNL     1      41.664 -57.921  55.725  0.00  0.00    +0.000 OA
ATOM     49  H   UNL     1      42.217 -58.599  56.147  0.00  0.00    +0.000 HD
ENDBRANCH  45  48
ENDBRANCH  32  40
BRANCH  36  50
ATOM     50  O   UNL     1      47.684 -49.389  53.845  0.00  0.00    +0.000 OA
ATOM     51  H   UNL     1      47.374 -48.648  54.392  0.00  0.00    +0.000 HD
ENDBRANCH  36  50
BRANCH  39  52
ATOM     52  O   UNL     1      44.603 -49.353  50.231  0.00  0.00    +0.000 OA
ATOM     53  H   UNL     1      44.605 -50.018  49.522  0.00  0.00    +0.000 HD
ENDBRANCH  39  52
ENDBRANCH  29  31
ENDBRANCH   2  29
TORSDOF 14
ENDMDL
