MODEL 1
REMARK VINA RESULT:      -6.8      0.000      0.000
REMARK  Name = Progesterone.pdbqt.pdb
REMARK  1 active torsions:
REMARK  status: ('A' for Active; 'I' for Inactive)
REMARK    1  A    between atoms: C_7  and  C_21
REMARK                            x       y       z     vdW  Elec       q    Type
REMARK                         _______ _______ _______ _____ _____    ______ ____
ROOT
ATOM      1  O   UNL     1      49.188 -45.697  49.905  0.00  0.00    +0.000 OA
ATOM      2  C   UNL     1      47.903 -52.520  53.132  0.00  0.00    +0.000 C 
ATOM      3  C   UNL     1      47.282 -52.663  54.626  0.00  0.00    +0.000 C 
ATOM      4  C   UNL     1      47.642 -51.347  52.274  0.00  0.00    +0.000 C 
ATOM      5  C   UNL     1      47.029 -50.047  52.715  0.00  0.00    +0.000 C 
ATOM      6  C   UNL     1      46.667 -48.893  51.754  0.00  0.00    +0.000 C 
ATOM      7  C   UNL     1      48.436 -53.202  55.417  0.00  0.00    +0.000 C 
ATOM      8  C   UNL     1      46.872 -51.302  54.971  0.00  0.00    +0.000 C 
ATOM      9  C   UNL     1      46.720 -50.077  54.103  0.00  0.00    +0.000 C 
ATOM     10  C   UNL     1      49.201 -53.122  53.153  0.00  0.00    +0.000 C 
ATOM     11  C   UNL     1      48.095 -51.305  50.935  0.00  0.00    +0.000 C 
ATOM     12  C   UNL     1      49.535 -53.514  54.568  0.00  0.00    +0.000 C 
ATOM     13  C   UNL     1      47.466 -48.912  50.303  0.00  0.00    +0.000 C 
ATOM     14  C   UNL     1      46.125 -53.684  54.528  0.00  0.00    +0.000 C 
ATOM     15  C   UNL     1      48.031 -50.166  49.963  0.00  0.00    +0.000 C 
ATOM     16  C   UNL     1      47.080 -47.576  52.342  0.00  0.00    +0.000 C 
ATOM     17  C   UNL     1      45.148 -48.932  51.436  0.00  0.00    +0.000 C 
ATOM     18  C   UNL     1      47.916 -46.398  51.792  0.00  0.00    +0.000 C 
ATOM     19  C   UNL     1      48.117 -47.825  49.947  0.00  0.00    +0.000 C 
ATOM     20  C   UNL     1      48.485 -46.516  50.464  0.00  0.00    +0.000 C 
ENDROOT
BRANCH   7  21
ATOM     21  C   UNL     1      48.405 -53.416  56.843  0.00  0.00    +0.000 C 
ATOM     22  O   UNL     1      47.409 -53.352  57.543  0.00  0.00    +0.000 OA
ATOM     23  C   UNL     1      49.589 -53.843  57.648  0.00  0.00    +0.000 C 
ENDBRANCH   7  21
TORSDOF 1
ENDMDL
MODEL 2
REMARK VINA RESULT:      -6.7      5.494     10.654
REMARK  Name = Progesterone.pdbqt.pdb
REMARK  1 active torsions:
REMARK  status: ('A' for Active; 'I' for Inactive)
REMARK    1  A    between atoms: C_7  and  C_21
REMARK                            x       y       z     vdW  Elec       q    Type
REMARK                         _______ _______ _______ _____ _____    ______ ____
ROOT
ATOM      1  O   UNL     1      51.075 -48.375  51.941  0.00  0.00    +0.000 OA
ATOM      2  C   UNL     1      47.746 -41.744  50.051  0.00  0.00    +0.000 C 
ATOM      3  C   UNL     1      48.316 -40.805  48.855  0.00  0.00    +0.000 C 
ATOM      4  C   UNL     1      47.954 -43.205  50.078  0.00  0.00    +0.000 C 
ATOM      5  C   UNL     1      48.905 -43.980  49.209  0.00  0.00    +0.000 C 
ATOM      6  C   UNL     1      48.999 -45.522  49.193  0.00  0.00    +0.000 C 
ATOM      7  C   UNL     1      48.848 -39.611  49.591  0.00  0.00    +0.000 C 
ATOM      8  C   UNL     1      49.328 -41.636  48.202  0.00  0.00    +0.000 C 
ATOM      9  C   UNL     1      49.607 -43.113  48.327  0.00  0.00    +0.000 C 
ATOM     10  C   UNL     1      47.824 -40.982  51.260  0.00  0.00    +0.000 C 
ATOM     11  C   UNL     1      47.345 -44.012  51.067  0.00  0.00    +0.000 C 
ATOM     12  C   UNL     1      48.528 -39.683  50.976  0.00  0.00    +0.000 C 
ATOM     13  C   UNL     1      48.409 -46.274  50.546  0.00  0.00    +0.000 C 
ATOM     14  C   UNL     1      47.105 -40.438  47.966  0.00  0.00    +0.000 C 
ATOM     15  C   UNL     1      47.534 -45.477  51.325  0.00  0.00    +0.000 C 
ATOM     16  C   UNL     1      50.436 -45.956  49.174  0.00  0.00    +0.000 C 
ATOM     17  C   UNL     1      48.211 -46.084  47.981  0.00  0.00    +0.000 C 
ATOM     18  C   UNL     1      51.245 -46.944  50.045  0.00  0.00    +0.000 C 
ATOM     19  C   UNL     1      49.202 -47.115  51.177  0.00  0.00    +0.000 C 
ATOM     20  C   UNL     1      50.573 -47.601  51.149  0.00  0.00    +0.000 C 
ENDROOT
BRANCH   7  21
ATOM     21  C   UNL     1      49.548 -38.520  48.958  0.00  0.00    +0.000 C 
ATOM     22  O   UNL     1      50.560 -38.629  48.286  0.00  0.00    +0.000 OA
ATOM     23  C   UNL     1      49.067 -37.106  48.963  0.00  0.00    +0.000 C 
ENDBRANCH   7  21
TORSDOF 1
ENDMDL
MODEL 3
REMARK VINA RESULT:      -6.6      4.016      8.418
REMARK  Name = Progesterone.pdbqt.pdb
REMARK  1 active torsions:
REMARK  status: ('A' for Active; 'I' for Inactive)
REMARK    1  A    between atoms: C_7  and  C_21
REMARK                            x       y       z     vdW  Elec       q    Type
REMARK                         _______ _______ _______ _____ _____    ______ ____
ROOT
ATOM      1  O   UNL     1      41.958 -59.171  58.040  0.00  0.00    +0.000 OA
ATOM      2  C   UNL     1      46.894 -53.511  56.552  0.00  0.00    +0.000 C 
ATOM      3  C   UNL     1      47.332 -53.126  55.037  0.00  0.00    +0.000 C 
ATOM      4  C   UNL     1      45.596 -54.140  56.867  0.00  0.00    +0.000 C 
ATOM      5  C   UNL     1      44.642 -54.745  55.875  0.00  0.00    +0.000 C 
ATOM      6  C   UNL     1      43.242 -55.284  56.241  0.00  0.00    +0.000 C 
ATOM      7  C   UNL     1      48.768 -53.554  54.984  0.00  0.00    +0.000 C 
ATOM      8  C   UNL     1      46.420 -53.903  54.196  0.00  0.00    +0.000 C 
ATOM      9  C   UNL     1      45.153 -54.642  54.552  0.00  0.00    +0.000 C 
ATOM     10  C   UNL     1      48.078 -53.919  57.244  0.00  0.00    +0.000 C 
ATOM     11  C   UNL     1      45.191 -54.352  58.205  0.00  0.00    +0.000 C 
ATOM     12  C   UNL     1      49.222 -53.971  56.267  0.00  0.00    +0.000 C 
ATOM     13  C   UNL     1      43.034 -55.669  57.839  0.00  0.00    +0.000 C 
ATOM     14  C   UNL     1      47.183 -51.593  54.909  0.00  0.00    +0.000 C 
ATOM     15  C   UNL     1      43.980 -55.076  58.712  0.00  0.00    +0.000 C 
ATOM     16  C   UNL     1      42.989 -56.592  55.551  0.00  0.00    +0.000 C 
ATOM     17  C   UNL     1      42.163 -54.227  55.886  0.00  0.00    +0.000 C 
ATOM     18  C   UNL     1      42.522 -57.975  56.060  0.00  0.00    +0.000 C 
ATOM     19  C   UNL     1      42.604 -56.879  58.128  0.00  0.00    +0.000 C 
ATOM     20  C   UNL     1      42.294 -58.145  57.481  0.00  0.00    +0.000 C 
ENDROOT
BRANCH   7  21
ATOM     21  C   UNL     1      49.583 -53.499  53.795  0.00  0.00    +0.000 C 
ATOM     22  O   UNL     1      49.355 -52.807  52.817  0.00  0.00    +0.000 OA
ATOM     23  C   UNL     1      50.881 -54.220  53.640  0.00  0.00    +0.000 C 
ENDBRANCH   7  21
TORSDOF 1
ENDMDL
MODEL 4
REMARK VINA RESULT:      -6.2      3.357      7.699
REMARK  Name = Progesterone.pdbqt.pdb
REMARK  1 active torsions:
REMARK  status: ('A' for Active; 'I' for Inactive)
REMARK    1  A    between atoms: C_7  and  C_21
REMARK                            x       y       z     vdW  Elec       q    Type
REMARK                         _______ _______ _______ _____ _____    ______ ____
ROOT
ATOM      1  O   UNL     1      42.445 -58.850  55.403  0.00  0.00    +0.000 OA
ATOM      2  C   UNL     1      46.904 -52.648  54.888  0.00  0.00    +0.000 C 
ATOM      3  C   UNL     1      46.781 -51.599  53.655  0.00  0.00    +0.000 C 
ATOM      4  C   UNL     1      45.769 -53.477  55.340  0.00  0.00    +0.000 C 
ATOM      5  C   UNL     1      44.474 -53.680  54.604  0.00  0.00    +0.000 C 
ATOM      6  C   UNL     1      43.270 -54.462  55.176  0.00  0.00    +0.000 C 
ATOM      7  C   UNL     1      48.060 -51.815  52.902  0.00  0.00    +0.000 C 
ATOM      8  C   UNL     1      45.567 -52.018  52.953  0.00  0.00    +0.000 C 
ATOM      9  C   UNL     1      44.468 -52.959  53.379  0.00  0.00    +0.000 C 
ATOM     10  C   UNL     1      48.225 -53.198  54.846  0.00  0.00    +0.000 C 
ATOM     11  C   UNL     1      45.871 -54.292  56.492  0.00  0.00    +0.000 C 
ATOM     12  C   UNL     1      48.921 -52.703  53.606  0.00  0.00    +0.000 C 
ATOM     13  C   UNL     1      43.637 -55.524  56.393  0.00  0.00    +0.000 C 
ATOM     14  C   UNL     1      46.714 -50.187  54.281  0.00  0.00    +0.000 C 
ATOM     15  C   UNL     1      44.880 -55.280  57.028  0.00  0.00    +0.000 C 
ATOM     16  C   UNL     1      42.681 -55.355  54.124  0.00  0.00    +0.000 C 
ATOM     17  C   UNL     1      42.221 -53.468  55.742  0.00  0.00    +0.000 C 
ATOM     18  C   UNL     1      42.330 -56.860  54.101  0.00  0.00    +0.000 C 
ATOM     19  C   UNL     1      43.252 -56.775  56.253  0.00  0.00    +0.000 C 
ATOM     20  C   UNL     1      42.629 -57.656  55.276  0.00  0.00    +0.000 C 
ENDROOT
BRANCH   7  21
ATOM     21  C   UNL     1      48.381 -51.166  51.655  0.00  0.00    +0.000 C 
ATOM     22  O   UNL     1      48.088 -51.585  50.547  0.00  0.00    +0.000 OA
ATOM     23  C   UNL     1      49.040 -49.830  51.556  0.00  0.00    +0.000 C 
ENDBRANCH   7  21
TORSDOF 1
ENDMDL
MODEL 5
REMARK VINA RESULT:      -6.2      3.713      7.213
REMARK  Name = Progesterone.pdbqt.pdb
REMARK  1 active torsions:
REMARK  status: ('A' for Active; 'I' for Inactive)
REMARK    1  A    between atoms: C_7  and  C_21
REMARK                            x       y       z     vdW  Elec       q    Type
REMARK                         _______ _______ _______ _____ _____    ______ ____
ROOT
ATOM      1  O   UNL     1      47.556 -40.790  45.436  0.00  0.00    +0.000 OA
ATOM      2  C   UNL     1      48.354 -45.456  51.454  0.00  0.00    +0.000 C 
ATOM      3  C   UNL     1      48.158 -47.063  51.329  0.00  0.00    +0.000 C 
ATOM      4  C   UNL     1      48.775 -44.618  50.314  0.00  0.00    +0.000 C 
ATOM      5  C   UNL     1      48.819 -45.043  48.872  0.00  0.00    +0.000 C 
ATOM      6  C   UNL     1      49.381 -44.167  47.730  0.00  0.00    +0.000 C 
ATOM      7  C   UNL     1      46.893 -47.307  52.097  0.00  0.00    +0.000 C 
ATOM      8  C   UNL     1      48.066 -47.298  49.888  0.00  0.00    +0.000 C 
ATOM      9  C   UNL     1      48.390 -46.391  48.727  0.00  0.00    +0.000 C 
ATOM     10  C   UNL     1      47.365 -44.979  52.371  0.00  0.00    +0.000 C 
ATOM     11  C   UNL     1      49.055 -43.242  50.481  0.00  0.00    +0.000 C 
ATOM     12  C   UNL     1      46.451 -46.117  52.742  0.00  0.00    +0.000 C 
ATOM     13  C   UNL     1      49.436 -42.543  48.055  0.00  0.00    +0.000 C 
ATOM     14  C   UNL     1      49.382 -47.712  52.016  0.00  0.00    +0.000 C 
ATOM     15  C   UNL     1      49.373 -42.219  49.433  0.00  0.00    +0.000 C 
ATOM     16  C   UNL     1      48.481 -44.233  46.531  0.00  0.00    +0.000 C 
ATOM     17  C   UNL     1      50.828 -44.611  47.391  0.00  0.00    +0.000 C 
ATOM     18  C   UNL     1      47.822 -43.146  45.652  0.00  0.00    +0.000 C 
ATOM     19  C   UNL     1      48.854 -41.726  47.202  0.00  0.00    +0.000 C 
ATOM     20  C   UNL     1      48.029 -41.755  46.004  0.00  0.00    +0.000 C 
ENDROOT
BRANCH   7  21
ATOM     21  C   UNL     1      46.247 -48.592  52.200  0.00  0.00    +0.000 C 
ATOM     22  O   UNL     1      45.385 -49.009  51.444  0.00  0.00    +0.000 OA
ATOM     23  C   UNL     1      46.620 -49.635  53.201  0.00  0.00    +0.000 C 
ENDBRANCH   7  21
TORSDOF 1
ENDMDL
MODEL 6
REMARK VINA RESULT:      -6.0      5.734      9.221
REMARK  Name = Progesterone.pdbqt.pdb
REMARK  1 active torsions:
REMARK  status: ('A' for Active; 'I' for Inactive)
REMARK    1  A    between atoms: C_7  and  C_21
REMARK                            x       y       z     vdW  Elec       q    Type
REMARK                         _______ _______ _______ _____ _____    ______ ____
ROOT
ATOM      1  O   UNL     1      54.490 -45.132  42.188  0.00  0.00    +0.000 OA
ATOM      2  C   UNL     1      51.404 -45.784  49.164  0.00  0.00    +0.000 C 
ATOM      3  C   UNL     1      50.279 -46.904  49.506  0.00  0.00    +0.000 C 
ATOM      4  C   UNL     1      52.404 -45.967  48.093  0.00  0.00    +0.000 C 
ATOM      5  C   UNL     1      52.375 -47.027  47.027  0.00  0.00    +0.000 C 
ATOM      6  C   UNL     1      53.508 -47.250  46.001  0.00  0.00    +0.000 C 
ATOM      7  C   UNL     1      49.042 -46.083  49.716  0.00  0.00    +0.000 C 
ATOM      8  C   UNL     1      50.262 -47.763  48.322  0.00  0.00    +0.000 C 
ATOM      9  C   UNL     1      51.232 -47.861  47.171  0.00  0.00    +0.000 C 
ATOM     10  C   UNL     1      50.804 -44.502  49.377  0.00  0.00    +0.000 C 
ATOM     11  C   UNL     1      53.445 -45.031  47.898  0.00  0.00    +0.000 C 
ATOM     12  C   UNL     1      49.343 -44.692  49.689  0.00  0.00    +0.000 C 
ATOM     13  C   UNL     1      54.507 -45.949  45.765  0.00  0.00    +0.000 C 
ATOM     14  C   UNL     1      50.733 -47.603  50.808  0.00  0.00    +0.000 C 
ATOM     15  C   UNL     1      54.467 -44.985  46.802  0.00  0.00    +0.000 C 
ATOM     16  C   UNL     1      52.935 -47.479  44.633  0.00  0.00    +0.000 C 
ATOM     17  C   UNL     1      54.403 -48.432  46.457  0.00  0.00    +0.000 C 
ATOM     18  C   UNL     1      53.215 -46.835  43.257  0.00  0.00    +0.000 C 
ATOM     19  C   UNL     1      54.675 -45.521  44.531  0.00  0.00    +0.000 C 
ATOM     20  C   UNL     1      54.184 -45.759  43.183  0.00  0.00    +0.000 C 
ENDROOT
BRANCH   7  21
ATOM     21  C   UNL     1      47.734 -46.642  49.960  0.00  0.00    +0.000 C 
ATOM     22  O   UNL     1      47.280 -46.917  51.058  0.00  0.00    +0.000 OA
ATOM     23  C   UNL     1      46.714 -46.873  48.894  0.00  0.00    +0.000 C 
ENDBRANCH   7  21
TORSDOF 1
ENDMDL
MODEL 7
REMARK VINA RESULT:      -5.9      2.441      7.154
REMARK  Name = Progesterone.pdbqt.pdb
REMARK  1 active torsions:
REMARK  status: ('A' for Active; 'I' for Inactive)
REMARK    1  A    between atoms: C_7  and  C_21
REMARK                            x       y       z     vdW  Elec       q    Type
REMARK                         _______ _______ _______ _____ _____    ______ ____
ROOT
ATOM      1  O   UNL     1      45.482 -55.006  51.932  0.00  0.00    +0.000 OA
ATOM      2  C   UNL     1      48.598 -48.064  51.094  0.00  0.00    +0.000 C 
ATOM      3  C   UNL     1      47.693 -46.718  51.006  0.00  0.00    +0.000 C 
ATOM      4  C   UNL     1      48.146 -49.278  51.801  0.00  0.00    +0.000 C 
ATOM      5  C   UNL     1      46.749 -49.552  52.286  0.00  0.00    +0.000 C 
ATOM      6  C   UNL     1      46.353 -50.786  53.126  0.00  0.00    +0.000 C 
ATOM      7  C   UNL     1      47.872 -46.287  49.581  0.00  0.00    +0.000 C 
ATOM      8  C   UNL     1      46.347 -47.173  51.354  0.00  0.00    +0.000 C 
ATOM      9  C   UNL     1      45.882 -48.469  51.972  0.00  0.00    +0.000 C 
ATOM     10  C   UNL     1      49.314 -48.173  49.860  0.00  0.00    +0.000 C 
ATOM     11  C   UNL     1      49.003 -50.391  51.965  0.00  0.00    +0.000 C 
ATOM     12  C   UNL     1      48.843 -47.094  48.923  0.00  0.00    +0.000 C 
ATOM     13  C   UNL     1      47.395 -52.070  53.020  0.00  0.00    +0.000 C 
ATOM     14  C   UNL     1      48.311 -45.704  51.996  0.00  0.00    +0.000 C 
ATOM     15  C   UNL     1      48.686 -51.738  52.540  0.00  0.00    +0.000 C 
ATOM     16  C   UNL     1      45.063 -51.366  52.625  0.00  0.00    +0.000 C 
ATOM     17  C   UNL     1      46.267 -50.395  54.625  0.00  0.00    +0.000 C 
ATOM     18  C   UNL     1      44.644 -52.795  52.214  0.00  0.00    +0.000 C 
ATOM     19  C   UNL     1      46.894 -53.240  52.684  0.00  0.00    +0.000 C 
ATOM     20  C   UNL     1      45.643 -53.845  52.253  0.00  0.00    +0.000 C 
ENDROOT
BRANCH   7  21
ATOM     21  C   UNL     1      47.181 -45.170  48.984  0.00  0.00    +0.000 C 
ATOM     22  O   UNL     1      47.536 -44.005  49.051  0.00  0.00    +0.000 OA
ATOM     23  C   UNL     1      45.976 -45.304  48.114  0.00  0.00    +0.000 C 
ENDBRANCH   7  21
TORSDOF 1
ENDMDL
MODEL 8
REMARK VINA RESULT:      -5.8     15.675     17.273
REMARK  Name = Progesterone.pdbqt.pdb
REMARK  1 active torsions:
REMARK  status: ('A' for Active; 'I' for Inactive)
REMARK    1  A    between atoms: C_7  and  C_21
REMARK                            x       y       z     vdW  Elec       q    Type
REMARK                         _______ _______ _______ _____ _____    ______ ____
ROOT
ATOM      1  O   UNL     1      66.698 -45.377  53.534  0.00  0.00    +0.000 OA
ATOM      2  C   UNL     1      62.027 -46.019  59.567  0.00  0.00    +0.000 C 
ATOM      3  C   UNL     1      61.472 -47.458  60.077  0.00  0.00    +0.000 C 
ATOM      4  C   UNL     1      63.305 -45.875  58.842  0.00  0.00    +0.000 C 
ATOM      5  C   UNL     1      64.117 -46.992  58.247  0.00  0.00    +0.000 C 
ATOM      6  C   UNL     1      65.507 -46.800  57.603  0.00  0.00    +0.000 C 
ATOM      7  C   UNL     1      60.012 -47.392  59.741  0.00  0.00    +0.000 C 
ATOM      8  C   UNL     1      62.246 -48.430  59.305  0.00  0.00    +0.000 C 
ATOM      9  C   UNL     1      63.489 -48.249  58.470  0.00  0.00    +0.000 C 
ATOM     10  C   UNL     1      60.890 -45.238  59.185  0.00  0.00    +0.000 C 
ATOM     11  C   UNL     1      63.821 -44.599  58.517  0.00  0.00    +0.000 C 
ATOM     12  C   UNL     1      59.657 -46.097  59.267  0.00  0.00    +0.000 C 
ATOM     13  C   UNL     1      65.841 -45.257  57.100  0.00  0.00    +0.000 C 
ATOM     14  C   UNL     1      61.709 -47.506  61.604  0.00  0.00    +0.000 C 
ATOM     15  C   UNL     1      65.025 -44.260  57.690  0.00  0.00    +0.000 C 
ATOM     16  C   UNL     1      65.605 -47.590  56.330  0.00  0.00    +0.000 C 
ATOM     17  C   UNL     1      66.614 -47.197  58.615  0.00  0.00    +0.000 C 
ATOM     18  C   UNL     1      66.026 -47.215  54.892  0.00  0.00    +0.000 C 
ATOM     19  C   UNL     1      66.216 -45.086  55.850  0.00  0.00    +0.000 C 
ATOM     20  C   UNL     1      66.378 -45.836  54.614  0.00  0.00    +0.000 C 
ENDROOT
BRANCH   7  21
ATOM     21  C   UNL     1      59.093 -48.488  59.924  0.00  0.00    +0.000 C 
ATOM     22  O   UNL     1      58.217 -48.538  60.771  0.00  0.00    +0.000 OA
ATOM     23  C   UNL     1      59.029 -49.681  59.027  0.00  0.00    +0.000 C 
ENDBRANCH   7  21
TORSDOF 1
ENDMDL
MODEL 9
REMARK VINA RESULT:      -5.8      3.848      7.585
REMARK  Name = Progesterone.pdbqt.pdb
REMARK  1 active torsions:
REMARK  status: ('A' for Active; 'I' for Inactive)
REMARK    1  A    between atoms: C_7  and  C_21
REMARK                            x       y       z     vdW  Elec       q    Type
REMARK                         _______ _______ _______ _____ _____    ______ ____
ROOT
ATOM      1  O   UNL     1      50.087 -46.429  50.157  0.00  0.00    +0.000 OA
ATOM      2  C   UNL     1      42.555 -47.399  51.131  0.00  0.00    +0.000 C 
ATOM      3  C   UNL     1      41.735 -48.581  50.378  0.00  0.00    +0.000 C 
ATOM      4  C   UNL     1      43.995 -47.507  51.441  0.00  0.00    +0.000 C 
ATOM      5  C   UNL     1      44.942 -48.541  50.898  0.00  0.00    +0.000 C 
ATOM      6  C   UNL     1      46.413 -48.684  51.346  0.00  0.00    +0.000 C 
ATOM      7  C   UNL     1      40.881 -47.827  49.403  0.00  0.00    +0.000 C 
ATOM      8  C   UNL     1      42.780 -49.412  49.778  0.00  0.00    +0.000 C 
ATOM      9  C   UNL     1      44.269 -49.434  50.019  0.00  0.00    +0.000 C 
ATOM     10  C   UNL     1      42.005 -46.154  50.689  0.00  0.00    +0.000 C 
ATOM     11  C   UNL     1      44.655 -46.516  52.204  0.00  0.00    +0.000 C 
ATOM     12  C   UNL     1      40.995 -46.423  49.606  0.00  0.00    +0.000 C 
ATOM     13  C   UNL     1      47.069 -47.330  52.040  0.00  0.00    +0.000 C 
ATOM     14  C   UNL     1      40.885 -49.288  51.460  0.00  0.00    +0.000 C 
ATOM     15  C   UNL     1      46.116 -46.394  52.513  0.00  0.00    +0.000 C 
ATOM     16  C   UNL     1      47.301 -48.908  50.157  0.00  0.00    +0.000 C 
ATOM     17  C   UNL     1      46.537 -49.831  52.383  0.00  0.00    +0.000 C 
ATOM     18  C   UNL     1      48.594 -48.218  49.667  0.00  0.00    +0.000 C 
ATOM     19  C   UNL     1      48.193 -46.865  51.536  0.00  0.00    +0.000 C 
ATOM     20  C   UNL     1      49.106 -47.094  50.426  0.00  0.00    +0.000 C 
ENDROOT
BRANCH   7  21
ATOM     21  C   UNL     1      40.026 -48.456  48.426  0.00  0.00    +0.000 C 
ATOM     22  O   UNL     1      40.372 -48.812  47.312  0.00  0.00    +0.000 OA
ATOM     23  C   UNL     1      38.608 -48.845  48.687  0.00  0.00    +0.000 C 
ENDBRANCH   7  21
TORSDOF 1
ENDMDL
