MODEL 1
REMARK VINA RESULT:      -9.4      0.000      0.000
REMARK  Name = 
REMARK  11 active torsions:
REMARK  status: ('A' for Active; 'I' for Inactive)
REMARK    1  A    between atoms: O_2  and  C_16
REMARK    2  A    between atoms: O_2  and  C_18
REMARK    3  A    between atoms: O_3  and  C_12
REMARK    4  A    between atoms: O_4  and  C_13
REMARK    5  A    between atoms: O_5  and  C_14
REMARK    6  A    between atoms: O_8  and  C_24
REMARK    7  A    between atoms: O_9  and  C_29
REMARK    8  A    between atoms: O_10  and  C_30
REMARK    9  A    between atoms: O_11  and  C_32
REMARK   10  A    between atoms: C_15  and  C_17
REMARK   11  A    between atoms: C_19  and  C_23
REMARK                            x       y       z     vdW  Elec       q    Type
REMARK                         _______ _______ _______ _____ _____    ______ ____
ROOT
ATOM      1  O   UNL     1      48.353 -43.558  48.590  0.00  0.00    +0.000 OA
ATOM      2  O   UNL     1      47.051 -42.124  52.156  0.00  0.00    +0.000 OA
ATOM      3  C   UNL     1      47.712 -41.658  49.937  0.00  0.00    +0.000 A 
ATOM      4  C   UNL     1      48.040 -42.222  48.758  0.00  0.00    +0.000 A 
ATOM      5  C   UNL     1      47.563 -42.546  51.126  0.00  0.00    +0.000 A 
ATOM      6  C   UNL     1      48.029 -43.943  50.973  0.00  0.00    +0.000 A 
ATOM      7  C   UNL     1      48.389 -44.369  49.694  0.00  0.00    +0.000 A 
ATOM      8  C   UNL     1      48.110 -44.850  52.039  0.00  0.00    +0.000 A 
ATOM      9  C   UNL     1      48.812 -45.682  49.473  0.00  0.00    +0.000 A 
ATOM     10  C   UNL     1      48.536 -46.166  51.825  0.00  0.00    +0.000 A 
ATOM     11  C   UNL     1      48.882 -46.568  50.539  0.00  0.00    +0.000 A 
ENDROOT
BRANCH   4  12
ATOM     12  C   UNL     1      48.130 -41.451  47.500  0.00  0.00    +0.000 A 
ATOM     13  C   UNL     1      49.392 -41.143  46.964  0.00  0.00    +0.000 A 
ATOM     14  C   UNL     1      46.974 -41.025  46.821  0.00  0.00    +0.000 A 
ATOM     15  C   UNL     1      49.480 -40.401  45.791  0.00  0.00    +0.000 A 
ATOM     16  C   UNL     1      47.072 -40.277  45.645  0.00  0.00    +0.000 A 
ATOM     17  C   UNL     1      48.326 -39.969  45.144  0.00  0.00    +0.000 A 
BRANCH  15  18
ATOM     18  O   UNL     1      50.684 -40.067  45.234  0.00  0.00    +0.000 OA
ATOM     19  H   UNL     1      50.516 -39.573  44.413  0.00  0.00    +0.000 HD
ENDBRANCH  15  18
BRANCH  17  20
ATOM     20  O   UNL     1      48.421 -39.235  43.997  0.00  0.00    +0.000 OA
ATOM     21  H   UNL     1      48.376 -39.893  43.274  0.00  0.00    +0.000 HD
ENDBRANCH  17  20
ENDBRANCH   4  12
BRANCH   8  22
ATOM     22  O   UNL     1      47.795 -44.463  53.310  0.00  0.00    +0.000 OA
ATOM     23  H   UNL     1      47.786 -43.496  53.390  0.00  0.00    +0.000 HD
ENDBRANCH   8  22
BRANCH  11  24
ATOM     24  O   UNL     1      49.302 -47.837  50.277  0.00  0.00    +0.000 OA
ATOM     25  H   UNL     1      48.661 -48.472  50.637  0.00  0.00    +0.000 HD
ENDBRANCH  11  24
BRANCH   3  26
ATOM     26  O   UNL     1      47.402 -40.315  50.092  0.00  0.00    +0.000 OA
BRANCH  26  32
ATOM     27  O   UNL     1      47.879 -38.458  51.527  0.00  0.00    +0.000 OA
ATOM     28  C   UNL     1      49.314 -38.181  49.042  0.00  0.00    +0.000 C 
ATOM     29  C   UNL     1      48.748 -36.969  49.790  0.00  0.00    +0.000 C 
ATOM     30  C   UNL     1      49.616 -39.328  50.007  0.00  0.00    +0.000 C 
ATOM     31  C   UNL     1      47.531 -37.406  50.613  0.00  0.00    +0.000 C 
ATOM     32  C   UNL     1      48.383 -39.633  50.887  0.00  0.00    +0.000 C 
ATOM     33  C   UNL     1      46.967 -36.255  51.438  0.00  0.00    +0.000 C 
BRANCH  28  34
ATOM     34  O   UNL     1      50.519 -37.777  48.364  0.00  0.00    +0.000 OA
ATOM     35  H   UNL     1      50.655 -38.455  47.669  0.00  0.00    +0.000 HD
ENDBRANCH  28  34
BRANCH  29  36
ATOM     36  O   UNL     1      48.406 -35.954  48.841  0.00  0.00    +0.000 OA
ATOM     37  H   UNL     1      47.743 -36.363  48.250  0.00  0.00    +0.000 HD
ENDBRANCH  29  36
BRANCH  30  38
ATOM     38  O   UNL     1      50.763 -38.940  50.793  0.00  0.00    +0.000 OA
ATOM     39  H   UNL     1      51.496 -38.770  50.173  0.00  0.00    +0.000 HD
ENDBRANCH  30  38
ENDBRANCH  26  32
ENDBRANCH   3  26
TORSDOF 10
ENDMDL
MODEL 2
REMARK VINA RESULT:      -8.2      1.763      5.049
REMARK  Name = 
REMARK  11 active torsions:
REMARK  status: ('A' for Active; 'I' for Inactive)
REMARK    1  A    between atoms: O_2  and  C_16
REMARK    2  A    between atoms: O_2  and  C_18
REMARK    3  A    between atoms: O_3  and  C_12
REMARK    4  A    between atoms: O_4  and  C_13
REMARK    5  A    between atoms: O_5  and  C_14
REMARK    6  A    between atoms: O_8  and  C_24
REMARK    7  A    between atoms: O_9  and  C_29
REMARK    8  A    between atoms: O_10  and  C_30
REMARK    9  A    between atoms: O_11  and  C_32
REMARK   10  A    between atoms: C_15  and  C_17
REMARK   11  A    between atoms: C_19  and  C_23
REMARK                            x       y       z     vdW  Elec       q    Type
REMARK                         _______ _______ _______ _____ _____    ______ ____
ROOT
ATOM      1  O   UNL     1      48.358 -41.522  51.460  0.00  0.00    +0.000 OA
ATOM      2  O   UNL     1      50.070 -42.964  48.076  0.00  0.00    +0.000 OA
ATOM      3  C   UNL     1      49.235 -41.093  49.250  0.00  0.00    +0.000 A 
ATOM      4  C   UNL     1      48.766 -40.678  50.444  0.00  0.00    +0.000 A 
ATOM      5  C   UNL     1      49.439 -42.557  49.043  0.00  0.00    +0.000 A 
ATOM      6  C   UNL     1      48.877 -43.457  50.076  0.00  0.00    +0.000 A 
ATOM      7  C   UNL     1      48.375 -42.874  51.240  0.00  0.00    +0.000 A 
ATOM      8  C   UNL     1      48.840 -44.852  49.944  0.00  0.00    +0.000 A 
ATOM      9  C   UNL     1      47.853 -43.666  52.265  0.00  0.00    +0.000 A 
ATOM     10  C   UNL     1      48.316 -45.651  50.966  0.00  0.00    +0.000 A 
ATOM     11  C   UNL     1      47.829 -45.047  52.120  0.00  0.00    +0.000 A 
ENDROOT
BRANCH   4  12
ATOM     12  C   UNL     1      48.607 -39.250  50.788  0.00  0.00    +0.000 A 
ATOM     13  C   UNL     1      47.331 -38.662  50.740  0.00  0.00    +0.000 A 
ATOM     14  C   UNL     1      49.709 -38.464  51.172  0.00  0.00    +0.000 A 
ATOM     15  C   UNL     1      47.181 -37.314  51.045  0.00  0.00    +0.000 A 
ATOM     16  C   UNL     1      49.550 -37.109  51.472  0.00  0.00    +0.000 A 
ATOM     17  C   UNL     1      48.286 -36.546  51.401  0.00  0.00    +0.000 A 
BRANCH  15  18
ATOM     18  O   UNL     1      45.963 -36.693  51.003  0.00  0.00    +0.000 OA
ATOM     19  H   UNL     1      45.294 -37.346  50.735  0.00  0.00    +0.000 HD
ENDBRANCH  15  18
BRANCH  17  20
ATOM     20  O   UNL     1      48.132 -35.221  51.690  0.00  0.00    +0.000 OA
ATOM     21  H   UNL     1      48.481 -35.121  52.599  0.00  0.00    +0.000 HD
ENDBRANCH  17  20
ENDBRANCH   4  12
BRANCH   8  22
ATOM     22  O   UNL     1      49.294 -45.458  48.808  0.00  0.00    +0.000 OA
ATOM     23  H   UNL     1      49.107 -44.919  48.024  0.00  0.00    +0.000 HD
ENDBRANCH   8  22
BRANCH  11  24
ATOM     24  O   UNL     1      47.309 -45.779  53.144  0.00  0.00    +0.000 OA
ATOM     25  H   UNL     1      48.013 -45.999  53.776  0.00  0.00    +0.000 HD
ENDBRANCH  11  24
BRANCH   3  26
ATOM     26  O   UNL     1      49.640 -40.236  48.238  0.00  0.00    +0.000 OA
BRANCH  26  32
ATOM     27  O   UNL     1      48.394 -40.870  46.293  0.00  0.00    +0.000 OA
ATOM     28  C   UNL     1      49.882 -38.457  45.770  0.00  0.00    +0.000 C 
ATOM     29  C   UNL     1      49.658 -39.521  44.690  0.00  0.00    +0.000 C 
ATOM     30  C   UNL     1      48.760 -38.485  46.809  0.00  0.00    +0.000 C 
ATOM     31  C   UNL     1      49.483 -40.889  45.357  0.00  0.00    +0.000 C 
ATOM     32  C   UNL     1      48.559 -39.919  47.348  0.00  0.00    +0.000 C 
ATOM     33  C   UNL     1      49.183 -41.980  44.335  0.00  0.00    +0.000 C 
BRANCH  28  34
ATOM     34  O   UNL     1      49.933 -37.165  45.135  0.00  0.00    +0.000 OA
ATOM     35  H   UNL     1      49.217 -36.648  45.561  0.00  0.00    +0.000 HD
ENDBRANCH  28  34
BRANCH  29  36
ATOM     36  O   UNL     1      50.769 -39.511  43.789  0.00  0.00    +0.000 OA
ATOM     37  H   UNL     1      50.860 -40.434  43.478  0.00  0.00    +0.000 HD
ENDBRANCH  29  36
BRANCH  30  38
ATOM     38  O   UNL     1      47.570 -37.973  46.172  0.00  0.00    +0.000 OA
ATOM     39  H   UNL     1      46.955 -37.703  46.879  0.00  0.00    +0.000 HD
ENDBRANCH  30  38
ENDBRANCH  26  32
ENDBRANCH   3  26
TORSDOF 10
ENDMDL
MODEL 3
REMARK VINA RESULT:      -8.1      1.696      4.649
REMARK  Name = 
REMARK  11 active torsions:
REMARK  status: ('A' for Active; 'I' for Inactive)
REMARK    1  A    between atoms: O_2  and  C_16
REMARK    2  A    between atoms: O_2  and  C_18
REMARK    3  A    between atoms: O_3  and  C_12
REMARK    4  A    between atoms: O_4  and  C_13
REMARK    5  A    between atoms: O_5  and  C_14
REMARK    6  A    between atoms: O_8  and  C_24
REMARK    7  A    between atoms: O_9  and  C_29
REMARK    8  A    between atoms: O_10  and  C_30
REMARK    9  A    between atoms: O_11  and  C_32
REMARK   10  A    between atoms: C_15  and  C_17
REMARK   11  A    between atoms: C_19  and  C_23
REMARK                            x       y       z     vdW  Elec       q    Type
REMARK                         _______ _______ _______ _____ _____    ______ ____
ROOT
ATOM      1  O   UNL     1      48.296 -41.384  51.324  0.00  0.00    +0.000 OA
ATOM      2  O   UNL     1      48.137 -42.641  47.469  0.00  0.00    +0.000 OA
ATOM      3  C   UNL     1      48.077 -40.829  48.983  0.00  0.00    +0.000 A 
ATOM      4  C   UNL     1      48.245 -40.485  50.275  0.00  0.00    +0.000 A 
ATOM      5  C   UNL     1      48.058 -42.281  48.637  0.00  0.00    +0.000 A 
ATOM      6  C   UNL     1      47.977 -43.231  49.770  0.00  0.00    +0.000 A 
ATOM      7  C   UNL     1      48.114 -42.716  51.059  0.00  0.00    +0.000 A 
ATOM      8  C   UNL     1      47.785 -44.610  49.605  0.00  0.00    +0.000 A 
ATOM      9  C   UNL     1      48.073 -43.560  52.171  0.00  0.00    +0.000 A 
ATOM     10  C   UNL     1      47.740 -45.461  50.715  0.00  0.00    +0.000 A 
ATOM     11  C   UNL     1      47.887 -44.924  51.990  0.00  0.00    +0.000 A 
ENDROOT
BRANCH   4  12
ATOM     12  C   UNL     1      48.364 -39.080  50.720  0.00  0.00    +0.000 A 
ATOM     13  C   UNL     1      47.219 -38.267  50.766  0.00  0.00    +0.000 A 
ATOM     14  C   UNL     1      49.604 -38.541  51.107  0.00  0.00    +0.000 A 
ATOM     15  C   UNL     1      47.332 -36.940  51.165  0.00  0.00    +0.000 A 
ATOM     16  C   UNL     1      49.709 -37.205  51.503  0.00  0.00    +0.000 A 
ATOM     17  C   UNL     1      48.571 -36.416  51.524  0.00  0.00    +0.000 A 
BRANCH  15  18
ATOM     18  O   UNL     1      46.250 -36.105  51.218  0.00  0.00    +0.000 OA
ATOM     19  H   UNL     1      46.565 -35.188  51.139  0.00  0.00    +0.000 HD
ENDBRANCH  15  18
BRANCH  17  20
ATOM     20  O   UNL     1      48.675 -35.110  51.907  0.00  0.00    +0.000 OA
ATOM     21  H   UNL     1      49.075 -34.655  51.139  0.00  0.00    +0.000 HD
ENDBRANCH  17  20
ENDBRANCH   4  12
BRANCH   8  22
ATOM     22  O   UNL     1      47.616 -45.149  48.362  0.00  0.00    +0.000 OA
ATOM     23  H   UNL     1      48.371 -44.946  47.787  0.00  0.00    +0.000 HD
ENDBRANCH   8  22
BRANCH  11  24
ATOM     24  O   UNL     1      47.852 -45.708  53.104  0.00  0.00    +0.000 OA
ATOM     25  H   UNL     1      48.518 -46.411  53.027  0.00  0.00    +0.000 HD
ENDBRANCH  11  24
BRANCH   3  26
ATOM     26  O   UNL     1      48.025 -39.917  47.940  0.00  0.00    +0.000 OA
BRANCH  26  32
ATOM     27  O   UNL     1      49.795 -38.315  47.757  0.00  0.00    +0.000 OA
ATOM     28  C   UNL     1      48.586 -38.750  45.176  0.00  0.00    +0.000 C 
ATOM     29  C   UNL     1      49.111 -37.375  45.603  0.00  0.00    +0.000 C 
ATOM     30  C   UNL     1      49.335 -39.871  45.899  0.00  0.00    +0.000 C 
ATOM     31  C   UNL     1      49.046 -37.262  47.131  0.00  0.00    +0.000 C 
ATOM     32  C   UNL     1      49.332 -39.626  47.424  0.00  0.00    +0.000 C 
ATOM     33  C   UNL     1      49.625 -35.939  47.622  0.00  0.00    +0.000 C 
BRANCH  28  34
ATOM     34  O   UNL     1      48.757 -38.882  43.752  0.00  0.00    +0.000 OA
ATOM     35  H   UNL     1      49.313 -39.681  43.640  0.00  0.00    +0.000 HD
ENDBRANCH  28  34
BRANCH  29  36
ATOM     36  O   UNL     1      48.330 -36.360  44.965  0.00  0.00    +0.000 OA
ATOM     37  H   UNL     1      47.971 -35.813  45.692  0.00  0.00    +0.000 HD
ENDBRANCH  29  36
BRANCH  30  38
ATOM     38  O   UNL     1      50.673 -39.915  45.357  0.00  0.00    +0.000 OA
ATOM     39  H   UNL     1      50.640 -40.459  44.549  0.00  0.00    +0.000 HD
ENDBRANCH  30  38
ENDBRANCH  26  32
ENDBRANCH   3  26
TORSDOF 10
ENDMDL
MODEL 4
REMARK VINA RESULT:      -7.8      2.173      7.102
REMARK  Name = 
REMARK  11 active torsions:
REMARK  status: ('A' for Active; 'I' for Inactive)
REMARK    1  A    between atoms: O_2  and  C_16
REMARK    2  A    between atoms: O_2  and  C_18
REMARK    3  A    between atoms: O_3  and  C_12
REMARK    4  A    between atoms: O_4  and  C_13
REMARK    5  A    between atoms: O_5  and  C_14
REMARK    6  A    between atoms: O_8  and  C_24
REMARK    7  A    between atoms: O_9  and  C_29
REMARK    8  A    between atoms: O_10  and  C_30
REMARK    9  A    between atoms: O_11  and  C_32
REMARK   10  A    between atoms: C_15  and  C_17
REMARK   11  A    between atoms: C_19  and  C_23
REMARK                            x       y       z     vdW  Elec       q    Type
REMARK                         _______ _______ _______ _____ _____    ______ ____
ROOT
ATOM      1  O   UNL     1      49.941 -41.551  48.203  0.00  0.00    +0.000 OA
ATOM      2  O   UNL     1      47.195 -41.326  51.182  0.00  0.00    +0.000 OA
ATOM      3  C   UNL     1      48.274 -42.658  49.557  0.00  0.00    +0.000 A 
ATOM      4  C   UNL     1      49.275 -42.675  48.654  0.00  0.00    +0.000 A 
ATOM      5  C   UNL     1      47.930 -41.357  50.203  0.00  0.00    +0.000 A 
ATOM      6  C   UNL     1      48.548 -40.144  49.621  0.00  0.00    +0.000 A 
ATOM      7  C   UNL     1      49.536 -40.322  48.652  0.00  0.00    +0.000 A 
ATOM      8  C   UNL     1      48.199 -38.842  50.006  0.00  0.00    +0.000 A 
ATOM      9  C   UNL     1      50.179 -39.221  48.081  0.00  0.00    +0.000 A 
ATOM     10  C   UNL     1      48.837 -37.735  49.435  0.00  0.00    +0.000 A 
ATOM     11  C   UNL     1      49.825 -37.938  48.477  0.00  0.00    +0.000 A 
ENDROOT
BRANCH   4  12
ATOM     12  C   UNL     1      49.756 -43.919  48.017  0.00  0.00    +0.000 A 
ATOM     13  C   UNL     1      50.988 -44.469  48.410  0.00  0.00    +0.000 A 
ATOM     14  C   UNL     1      48.999 -44.571  47.026  0.00  0.00    +0.000 A 
ATOM     15  C   UNL     1      51.451 -45.629  47.798  0.00  0.00    +0.000 A 
ATOM     16  C   UNL     1      49.474 -45.733  46.414  0.00  0.00    +0.000 A 
ATOM     17  C   UNL     1      50.700 -46.248  46.804  0.00  0.00    +0.000 A 
BRANCH  15  18
ATOM     18  O   UNL     1      52.648 -46.198  48.137  0.00  0.00    +0.000 OA
ATOM     19  H   UNL     1      52.515 -47.157  48.237  0.00  0.00    +0.000 HD
ENDBRANCH  15  18
BRANCH  17  20
ATOM     20  O   UNL     1      51.166 -47.381  46.202  0.00  0.00    +0.000 OA
ATOM     21  H   UNL     1      52.092 -47.464  46.507  0.00  0.00    +0.000 HD
ENDBRANCH  17  20
ENDBRANCH   4  12
BRANCH   8  22
ATOM     22  O   UNL     1      47.217 -38.626  50.929  0.00  0.00    +0.000 OA
ATOM     23  H   UNL     1      46.996 -37.684  50.992  0.00  0.00    +0.000 HD
ENDBRANCH   8  22
BRANCH  11  24
ATOM     24  O   UNL     1      50.476 -36.895  47.891  0.00  0.00    +0.000 OA
ATOM     25  H   UNL     1      50.880 -37.192  47.058  0.00  0.00    +0.000 HD
ENDBRANCH  11  24
BRANCH   3  26
ATOM     26  O   UNL     1      47.612 -43.793  50.000  0.00  0.00    +0.000 OA
BRANCH  26  32
ATOM     27  O   UNL     1      49.034 -45.591  50.693  0.00  0.00    +0.000 OA
ATOM     28  C   UNL     1      46.410 -45.904  51.847  0.00  0.00    +0.000 C 
ATOM     29  C   UNL     1      47.250 -47.108  51.407  0.00  0.00    +0.000 C 
ATOM     30  C   UNL     1      47.303 -44.720  52.220  0.00  0.00    +0.000 C 
ATOM     31  C   UNL     1      48.194 -46.680  50.277  0.00  0.00    +0.000 C 
ATOM     32  C   UNL     1      48.308 -44.423  51.085  0.00  0.00    +0.000 C 
ATOM     33  C   UNL     1      49.109 -47.820  49.846  0.00  0.00    +0.000 C 
BRANCH  28  34
ATOM     34  O   UNL     1      45.611 -46.295  52.981  0.00  0.00    +0.000 OA
ATOM     35  H   UNL     1      45.162 -47.119  52.698  0.00  0.00    +0.000 HD
ENDBRANCH  28  34
BRANCH  29  36
ATOM     36  O   UNL     1      46.374 -48.161  50.992  0.00  0.00    +0.000 OA
ATOM     37  H   UNL     1      46.632 -48.938  51.527  0.00  0.00    +0.000 HD
ENDBRANCH  29  36
BRANCH  30  38
ATOM     38  O   UNL     1      47.965 -45.052  53.460  0.00  0.00    +0.000 OA
ATOM     39  H   UNL     1      47.397 -44.734  54.186  0.00  0.00    +0.000 HD
ENDBRANCH  30  38
ENDBRANCH  26  32
ENDBRANCH   3  26
TORSDOF 10
ENDMDL
MODEL 5
REMARK VINA RESULT:      -7.6      2.842      7.860
REMARK  Name = 
REMARK  11 active torsions:
REMARK  status: ('A' for Active; 'I' for Inactive)
REMARK    1  A    between atoms: O_2  and  C_16
REMARK    2  A    between atoms: O_2  and  C_18
REMARK    3  A    between atoms: O_3  and  C_12
REMARK    4  A    between atoms: O_4  and  C_13
REMARK    5  A    between atoms: O_5  and  C_14
REMARK    6  A    between atoms: O_8  and  C_24
REMARK    7  A    between atoms: O_9  and  C_29
REMARK    8  A    between atoms: O_10  and  C_30
REMARK    9  A    between atoms: O_11  and  C_32
REMARK   10  A    between atoms: C_15  and  C_17
REMARK   11  A    between atoms: C_19  and  C_23
REMARK                            x       y       z     vdW  Elec       q    Type
REMARK                         _______ _______ _______ _____ _____    ______ ____
ROOT
ATOM      1  O   UNL     1      50.083 -43.355  48.557  0.00  0.00    +0.000 OA
ATOM      2  O   UNL     1      48.171 -44.190  52.037  0.00  0.00    +0.000 OA
ATOM      3  C   UNL     1      49.420 -44.995  50.202  0.00  0.00    +0.000 A 
ATOM      4  C   UNL     1      50.122 -44.619  49.114  0.00  0.00    +0.000 A 
ATOM      5  C   UNL     1      48.634 -43.955  50.928  0.00  0.00    +0.000 A 
ATOM      6  C   UNL     1      48.488 -42.645  50.255  0.00  0.00    +0.000 A 
ATOM      7  C   UNL     1      49.241 -42.421  49.102  0.00  0.00    +0.000 A 
ATOM      8  C   UNL     1      47.648 -41.626  50.726  0.00  0.00    +0.000 A 
ATOM      9  C   UNL     1      49.170 -41.198  48.432  0.00  0.00    +0.000 A 
ATOM     10  C   UNL     1      47.570 -40.399  50.058  0.00  0.00    +0.000 A 
ATOM     11  C   UNL     1      48.337 -40.198  48.915  0.00  0.00    +0.000 A 
ENDROOT
BRANCH   4  12
ATOM     12  C   UNL     1      51.001 -45.545  48.370  0.00  0.00    +0.000 A 
ATOM     13  C   UNL     1      52.382 -45.552  48.630  0.00  0.00    +0.000 A 
ATOM     14  C   UNL     1      50.481 -46.428  47.406  0.00  0.00    +0.000 A 
ATOM     15  C   UNL     1      53.214 -46.409  47.918  0.00  0.00    +0.000 A 
ATOM     16  C   UNL     1      51.325 -47.282  46.692  0.00  0.00    +0.000 A 
ATOM     17  C   UNL     1      52.685 -47.260  46.952  0.00  0.00    +0.000 A 
BRANCH  15  18
ATOM     18  O   UNL     1      54.565 -46.447  48.127  0.00  0.00    +0.000 OA
ATOM     19  H   UNL     1      54.757 -46.008  48.974  0.00  0.00    +0.000 HD
ENDBRANCH  15  18
BRANCH  17  20
ATOM     20  O   UNL     1      53.509 -48.092  46.251  0.00  0.00    +0.000 OA
ATOM     21  H   UNL     1      54.344 -47.591  46.150  0.00  0.00    +0.000 HD
ENDBRANCH  17  20
ENDBRANCH   4  12
BRANCH   8  22
ATOM     22  O   UNL     1      46.873 -41.817  51.834  0.00  0.00    +0.000 OA
ATOM     23  H   UNL     1      46.764 -42.761  52.027  0.00  0.00    +0.000 HD
ENDBRANCH   8  22
BRANCH  11  24
ATOM     24  O   UNL     1      48.298 -39.022  48.227  0.00  0.00    +0.000 OA
ATOM     25  H   UNL     1      48.664 -38.311  48.779  0.00  0.00    +0.000 HD
ENDBRANCH  11  24
BRANCH   3  26
ATOM     26  O   UNL     1      49.466 -46.268  50.750  0.00  0.00    +0.000 OA
BRANCH  26  32
ATOM     27  O   UNL     1      47.178 -46.973  50.812  0.00  0.00    +0.000 OA
ATOM     28  C   UNL     1      48.899 -49.122  51.669  0.00  0.00    +0.000 C 
ATOM     29  C   UNL     1      47.512 -48.901  52.283  0.00  0.00    +0.000 C 
ATOM     30  C   UNL     1      48.957 -48.584  50.239  0.00  0.00    +0.000 C 
ATOM     31  C   UNL     1      47.145 -47.416  52.178  0.00  0.00    +0.000 C 
ATOM     32  C   UNL     1      48.458 -47.123  50.191  0.00  0.00    +0.000 C 
ATOM     33  C   UNL     1      45.741 -47.145  52.708  0.00  0.00    +0.000 C 
BRANCH  28  34
ATOM     34  O   UNL     1      49.180 -50.535  51.676  0.00  0.00    +0.000 OA
ATOM     35  H   UNL     1      48.604 -50.908  50.976  0.00  0.00    +0.000 HD
ENDBRANCH  28  34
BRANCH  29  36
ATOM     36  O   UNL     1      47.529 -49.345  53.643  0.00  0.00    +0.000 OA
ATOM     37  H   UNL     1      46.607 -49.253  53.958  0.00  0.00    +0.000 HD
ENDBRANCH  29  36
BRANCH  30  38
ATOM     38  O   UNL     1      48.157 -49.460  49.415  0.00  0.00    +0.000 OA
ATOM     39  H   UNL     1      48.493 -50.366  49.544  0.00  0.00    +0.000 HD
ENDBRANCH  30  38
ENDBRANCH  26  32
ENDBRANCH   3  26
TORSDOF 10
ENDMDL
MODEL 6
REMARK VINA RESULT:      -7.2      2.276      7.824
REMARK  Name = 
REMARK  11 active torsions:
REMARK  status: ('A' for Active; 'I' for Inactive)
REMARK    1  A    between atoms: O_2  and  C_16
REMARK    2  A    between atoms: O_2  and  C_18
REMARK    3  A    between atoms: O_3  and  C_12
REMARK    4  A    between atoms: O_4  and  C_13
REMARK    5  A    between atoms: O_5  and  C_14
REMARK    6  A    between atoms: O_8  and  C_24
REMARK    7  A    between atoms: O_9  and  C_29
REMARK    8  A    between atoms: O_10  and  C_30
REMARK    9  A    between atoms: O_11  and  C_32
REMARK   10  A    between atoms: C_15  and  C_17
REMARK   11  A    between atoms: C_19  and  C_23
REMARK                            x       y       z     vdW  Elec       q    Type
REMARK                         _______ _______ _______ _____ _____    ______ ____
ROOT
ATOM      1  O   UNL     1      48.094 -41.146  50.322  0.00  0.00    +0.000 OA
ATOM      2  O   UNL     1      49.844 -41.067  46.661  0.00  0.00    +0.000 OA
ATOM      3  C   UNL     1      49.032 -42.365  48.459  0.00  0.00    +0.000 A 
ATOM      4  C   UNL     1      48.354 -42.310  49.623  0.00  0.00    +0.000 A 
ATOM      5  C   UNL     1      49.434 -41.081  47.816  0.00  0.00    +0.000 A 
ATOM      6  C   UNL     1      49.275 -39.853  48.629  0.00  0.00    +0.000 A 
ATOM      7  C   UNL     1      48.595 -39.964  49.842  0.00  0.00    +0.000 A 
ATOM      8  C   UNL     1      49.757 -38.598  48.232  0.00  0.00    +0.000 A 
ATOM      9  C   UNL     1      48.387 -38.842  50.646  0.00  0.00    +0.000 A 
ATOM     10  C   UNL     1      49.555 -37.470  49.034  0.00  0.00    +0.000 A 
ATOM     11  C   UNL     1      48.868 -37.605  50.236  0.00  0.00    +0.000 A 
ENDROOT
BRANCH   4  12
ATOM     12  C   UNL     1      47.833 -43.514  50.304  0.00  0.00    +0.000 A 
ATOM     13  C   UNL     1      48.020 -43.664  51.689  0.00  0.00    +0.000 A 
ATOM     14  C   UNL     1      47.146 -44.514  49.593  0.00  0.00    +0.000 A 
ATOM     15  C   UNL     1      47.548 -44.805  52.328  0.00  0.00    +0.000 A 
ATOM     16  C   UNL     1      46.679 -45.659  50.243  0.00  0.00    +0.000 A 
ATOM     17  C   UNL     1      46.888 -45.794  51.605  0.00  0.00    +0.000 A 
BRANCH  15  18
ATOM     18  O   UNL     1      47.712 -45.002  53.671  0.00  0.00    +0.000 OA
ATOM     19  H   UNL     1      48.643 -45.230  53.837  0.00  0.00    +0.000 HD
ENDBRANCH  15  18
BRANCH  17  20
ATOM     20  O   UNL     1      46.436 -46.915  52.239  0.00  0.00    +0.000 OA
ATOM     21  H   UNL     1      45.701 -47.239  51.680  0.00  0.00    +0.000 HD
ENDBRANCH  17  20
ENDBRANCH   4  12
BRANCH   8  22
ATOM     22  O   UNL     1      50.453 -38.455  47.066  0.00  0.00    +0.000 OA
ATOM     23  H   UNL     1      49.987 -38.874  46.325  0.00  0.00    +0.000 HD
ENDBRANCH   8  22
BRANCH  11  24
ATOM     24  O   UNL     1      48.643 -36.539  51.054  0.00  0.00    +0.000 OA
ATOM     25  H   UNL     1      49.313 -35.855  50.887  0.00  0.00    +0.000 HD
ENDBRANCH  11  24
BRANCH   3  26
ATOM     26  O   UNL     1      49.288 -43.540  47.769  0.00  0.00    +0.000 OA
BRANCH  26  32
ATOM     27  O   UNL     1      51.310 -44.196  46.664  0.00  0.00    +0.000 OA
ATOM     28  C   UNL     1      50.209 -46.429  48.118  0.00  0.00    +0.000 C 
ATOM     29  C   UNL     1      50.928 -46.611  46.776  0.00  0.00    +0.000 C 
ATOM     30  C   UNL     1      50.713 -45.182  48.845  0.00  0.00    +0.000 C 
ATOM     31  C   UNL     1      50.788 -45.327  45.950  0.00  0.00    +0.000 C 
ATOM     32  C   UNL     1      50.656 -43.952  47.912  0.00  0.00    +0.000 C 
ATOM     33  C   UNL     1      51.547 -45.421  44.631  0.00  0.00    +0.000 C 
BRANCH  28  34
ATOM     34  O   UNL     1      50.445 -47.599  48.924  0.00  0.00    +0.000 OA
ATOM     35  H   UNL     1      51.107 -47.316  49.589  0.00  0.00    +0.000 HD
ENDBRANCH  28  34
BRANCH  29  36
ATOM     36  O   UNL     1      50.369 -47.740  46.097  0.00  0.00    +0.000 OA
ATOM     37  H   UNL     1      50.699 -47.680  45.179  0.00  0.00    +0.000 HD
ENDBRANCH  29  36
BRANCH  30  38
ATOM     38  O   UNL     1      52.056 -45.460  49.298  0.00  0.00    +0.000 OA
ATOM     39  H   UNL     1      52.306 -44.751  49.918  0.00  0.00    +0.000 HD
ENDBRANCH  30  38
ENDBRANCH  26  32
ENDBRANCH   3  26
TORSDOF 10
ENDMDL
MODEL 7
REMARK VINA RESULT:      -6.8      1.518      4.708
REMARK  Name = 
REMARK  11 active torsions:
REMARK  status: ('A' for Active; 'I' for Inactive)
REMARK    1  A    between atoms: O_2  and  C_16
REMARK    2  A    between atoms: O_2  and  C_18
REMARK    3  A    between atoms: O_3  and  C_12
REMARK    4  A    between atoms: O_4  and  C_13
REMARK    5  A    between atoms: O_5  and  C_14
REMARK    6  A    between atoms: O_8  and  C_24
REMARK    7  A    between atoms: O_9  and  C_29
REMARK    8  A    between atoms: O_10  and  C_30
REMARK    9  A    between atoms: O_11  and  C_32
REMARK   10  A    between atoms: C_15  and  C_17
REMARK   11  A    between atoms: C_19  and  C_23
REMARK                            x       y       z     vdW  Elec       q    Type
REMARK                         _______ _______ _______ _____ _____    ______ ____
ROOT
ATOM      1  O   UNL     1      48.511 -42.276  50.815  0.00  0.00    +0.000 OA
ATOM      2  O   UNL     1      50.241 -44.495  47.891  0.00  0.00    +0.000 OA
ATOM      3  C   UNL     1      49.508 -42.370  48.616  0.00  0.00    +0.000 A 
ATOM      4  C   UNL     1      49.025 -41.689  49.674  0.00  0.00    +0.000 A 
ATOM      5  C   UNL     1      49.605 -43.856  48.720  0.00  0.00    +0.000 A 
ATOM      6  C   UNL     1      48.933 -44.485  49.879  0.00  0.00    +0.000 A 
ATOM      7  C   UNL     1      48.432 -43.643  50.873  0.00  0.00    +0.000 A 
ATOM      8  C   UNL     1      48.793 -45.872  50.029  0.00  0.00    +0.000 A 
ATOM      9  C   UNL     1      47.809 -44.171  52.006  0.00  0.00    +0.000 A 
ATOM     10  C   UNL     1      48.167 -46.407  51.161  0.00  0.00    +0.000 A 
ATOM     11  C   UNL     1      47.682 -45.547  52.141  0.00  0.00    +0.000 A 
ENDROOT
BRANCH   4  12
ATOM     12  C   UNL     1      48.964 -40.212  49.714  0.00  0.00    +0.000 A 
ATOM     13  C   UNL     1      49.868 -39.458  48.946  0.00  0.00    +0.000 A 
ATOM     14  C   UNL     1      48.011 -39.543  50.503  0.00  0.00    +0.000 A 
ATOM     15  C   UNL     1      49.825 -38.070  48.997  0.00  0.00    +0.000 A 
ATOM     16  C   UNL     1      47.977 -38.147  50.551  0.00  0.00    +0.000 A 
ATOM     17  C   UNL     1      48.889 -37.424  49.800  0.00  0.00    +0.000 A 
BRANCH  15  18
ATOM     18  O   UNL     1      50.689 -37.292  48.277  0.00  0.00    +0.000 OA
ATOM     19  H   UNL     1      50.297 -36.406  48.179  0.00  0.00    +0.000 HD
ENDBRANCH  15  18
BRANCH  17  20
ATOM     20  O   UNL     1      48.859 -36.061  49.851  0.00  0.00    +0.000 OA
ATOM     21  H   UNL     1      47.942 -35.840  50.111  0.00  0.00    +0.000 HD
ENDBRANCH  17  20
ENDBRANCH   4  12
BRANCH   8  22
ATOM     22  O   UNL     1      49.244 -46.727  49.065  0.00  0.00    +0.000 OA
ATOM     23  H   UNL     1      49.261 -46.298  48.196  0.00  0.00    +0.000 HD
ENDBRANCH   8  22
BRANCH  11  24
ATOM     24  O   UNL     1      47.066 -46.016  53.261  0.00  0.00    +0.000 OA
ATOM     25  H   UNL     1      47.226 -45.405  54.000  0.00  0.00    +0.000 HD
ENDBRANCH  11  24
BRANCH   3  26
ATOM     26  O   UNL     1      50.019 -41.769  47.476  0.00  0.00    +0.000 OA
BRANCH  26  32
ATOM     27  O   UNL     1      49.977 -41.836  45.082  0.00  0.00    +0.000 OA
ATOM     28  C   UNL     1      47.914 -40.074  46.058  0.00  0.00    +0.000 C 
ATOM     29  C   UNL     1      48.678 -39.787  44.760  0.00  0.00    +0.000 C 
ATOM     30  C   UNL     1      47.878 -41.574  46.352  0.00  0.00    +0.000 C 
ATOM     31  C   UNL     1      50.070 -40.423  44.842  0.00  0.00    +0.000 C 
ATOM     32  C   UNL     1      49.303 -42.169  46.299  0.00  0.00    +0.000 C 
ATOM     33  C   UNL     1      50.853 -40.234  43.548  0.00  0.00    +0.000 C 
BRANCH  28  34
ATOM     34  O   UNL     1      46.573 -39.566  45.919  0.00  0.00    +0.000 OA
ATOM     35  H   UNL     1      46.678 -38.704  45.464  0.00  0.00    +0.000 HD
ENDBRANCH  28  34
BRANCH  29  36
ATOM     36  O   UNL     1      48.756 -38.371  44.568  0.00  0.00    +0.000 OA
ATOM     37  H   UNL     1      48.296 -38.198  43.722  0.00  0.00    +0.000 HD
ENDBRANCH  29  36
BRANCH  30  38
ATOM     38  O   UNL     1      46.997 -42.183  45.384  0.00  0.00    +0.000 OA
ATOM     39  H   UNL     1      46.778 -41.501  44.722  0.00  0.00    +0.000 HD
ENDBRANCH  30  38
ENDBRANCH  26  32
ENDBRANCH   3  26
TORSDOF 10
ENDMDL
MODEL 8
REMARK VINA RESULT:      -6.7      2.469      6.828
REMARK  Name = 
REMARK  11 active torsions:
REMARK  status: ('A' for Active; 'I' for Inactive)
REMARK    1  A    between atoms: O_2  and  C_16
REMARK    2  A    between atoms: O_2  and  C_18
REMARK    3  A    between atoms: O_3  and  C_12
REMARK    4  A    between atoms: O_4  and  C_13
REMARK    5  A    between atoms: O_5  and  C_14
REMARK    6  A    between atoms: O_8  and  C_24
REMARK    7  A    between atoms: O_9  and  C_29
REMARK    8  A    between atoms: O_10  and  C_30
REMARK    9  A    between atoms: O_11  and  C_32
REMARK   10  A    between atoms: C_15  and  C_17
REMARK   11  A    between atoms: C_19  and  C_23
REMARK                            x       y       z     vdW  Elec       q    Type
REMARK                         _______ _______ _______ _____ _____    ______ ____
ROOT
ATOM      1  O   UNL     1      50.086 -41.777  44.466  0.00  0.00    +0.000 OA
ATOM      2  O   UNL     1      49.741 -38.212  46.372  0.00  0.00    +0.000 OA
ATOM      3  C   UNL     1      49.247 -40.521  46.351  0.00  0.00    +0.000 A 
ATOM      4  C   UNL     1      49.497 -41.681  45.712  0.00  0.00    +0.000 A 
ATOM      5  C   UNL     1      49.739 -39.256  45.732  0.00  0.00    +0.000 A 
ATOM      6  C   UNL     1      50.244 -39.350  44.343  0.00  0.00    +0.000 A 
ATOM      7  C   UNL     1      50.398 -40.624  43.795  0.00  0.00    +0.000 A 
ATOM      8  C   UNL     1      50.584 -38.231  43.570  0.00  0.00    +0.000 A 
ATOM      9  C   UNL     1      50.895 -40.786  42.500  0.00  0.00    +0.000 A 
ATOM     10  C   UNL     1      51.079 -38.386  42.270  0.00  0.00    +0.000 A 
ATOM     11  C   UNL     1      51.231 -39.667  41.749  0.00  0.00    +0.000 A 
ENDROOT
BRANCH   4  12
ATOM     12  C   UNL     1      49.132 -42.999  46.274  0.00  0.00    +0.000 A 
ATOM     13  C   UNL     1      50.144 -43.893  46.663  0.00  0.00    +0.000 A 
ATOM     14  C   UNL     1      47.786 -43.375  46.437  0.00  0.00    +0.000 A 
ATOM     15  C   UNL     1      49.804 -45.140  47.174  0.00  0.00    +0.000 A 
ATOM     16  C   UNL     1      47.453 -44.632  46.947  0.00  0.00    +0.000 A 
ATOM     17  C   UNL     1      48.467 -45.505  47.307  0.00  0.00    +0.000 A 
BRANCH  15  18
ATOM     18  O   UNL     1      50.751 -46.049  47.557  0.00  0.00    +0.000 OA
ATOM     19  H   UNL     1      51.342 -45.624  48.202  0.00  0.00    +0.000 HD
ENDBRANCH  15  18
BRANCH  17  20
ATOM     20  O   UNL     1      48.141 -46.734  47.801  0.00  0.00    +0.000 OA
ATOM     21  H   UNL     1      48.323 -46.674  48.761  0.00  0.00    +0.000 HD
ENDBRANCH  17  20
ENDBRANCH   4  12
BRANCH   8  22
ATOM     22  O   UNL     1      50.420 -36.967  44.060  0.00  0.00    +0.000 OA
ATOM     23  H   UNL     1      50.664 -36.920  44.998  0.00  0.00    +0.000 HD
ENDBRANCH   8  22
BRANCH  11  24
ATOM     24  O   UNL     1      51.709 -39.874  40.490  0.00  0.00    +0.000 OA
ATOM     25  H   UNL     1      52.468 -40.479  40.526  0.00  0.00    +0.000 HD
ENDBRANCH  11  24
BRANCH   3  26
ATOM     26  O   UNL     1      48.653 -40.439  47.601  0.00  0.00    +0.000 OA
BRANCH  26  32
ATOM     27  O   UNL     1      49.718 -41.800  49.259  0.00  0.00    +0.000 OA
ATOM     28  C   UNL     1      48.092 -39.785  50.529  0.00  0.00    +0.000 C 
ATOM     29  C   UNL     1      48.246 -41.192  51.118  0.00  0.00    +0.000 C 
ATOM     30  C   UNL     1      49.314 -39.405  49.693  0.00  0.00    +0.000 C 
ATOM     31  C   UNL     1      48.540 -42.184  49.987  0.00  0.00    +0.000 C 
ATOM     32  C   UNL     1      49.624 -40.507  48.656  0.00  0.00    +0.000 C 
ATOM     33  C   UNL     1      48.776 -43.592  50.521  0.00  0.00    +0.000 C 
BRANCH  28  34
ATOM     34  O   UNL     1      47.927 -38.852  51.614  0.00  0.00    +0.000 OA
ATOM     35  H   UNL     1      47.405 -38.115  51.233  0.00  0.00    +0.000 HD
ENDBRANCH  28  34
BRANCH  29  36
ATOM     36  O   UNL     1      47.049 -41.536  51.822  0.00  0.00    +0.000 OA
ATOM     37  H   UNL     1      46.862 -42.464  51.580  0.00  0.00    +0.000 HD
ENDBRANCH  29  36
BRANCH  30  38
ATOM     38  O   UNL     1      50.413 -39.193  50.607  0.00  0.00    +0.000 OA
ATOM     39  H   UNL     1      50.351 -38.275  50.927  0.00  0.00    +0.000 HD
ENDBRANCH  30  38
ENDBRANCH  26  32
ENDBRANCH   3  26
TORSDOF 10
ENDMDL
MODEL 9
REMARK VINA RESULT:      -6.7     13.049     17.039
REMARK  Name = 
REMARK  11 active torsions:
REMARK  status: ('A' for Active; 'I' for Inactive)
REMARK    1  A    between atoms: O_2  and  C_16
REMARK    2  A    between atoms: O_2  and  C_18
REMARK    3  A    between atoms: O_3  and  C_12
REMARK    4  A    between atoms: O_4  and  C_13
REMARK    5  A    between atoms: O_5  and  C_14
REMARK    6  A    between atoms: O_8  and  C_24
REMARK    7  A    between atoms: O_9  and  C_29
REMARK    8  A    between atoms: O_10  and  C_30
REMARK    9  A    between atoms: O_11  and  C_32
REMARK   10  A    between atoms: C_15  and  C_17
REMARK   11  A    between atoms: C_19  and  C_23
REMARK                            x       y       z     vdW  Elec       q    Type
REMARK                         _______ _______ _______ _____ _____    ______ ____
ROOT
ATOM      1  O   UNL     1      48.043 -25.848  47.596  0.00  0.00    +0.000 OA
ATOM      2  O   UNL     1      51.713 -26.767  49.063  0.00  0.00    +0.000 OA
ATOM      3  C   UNL     1      49.994 -25.162  48.844  0.00  0.00    +0.000 A 
ATOM      4  C   UNL     1      48.730 -24.973  48.415  0.00  0.00    +0.000 A 
ATOM      5  C   UNL     1      50.665 -26.453  48.512  0.00  0.00    +0.000 A 
ATOM      6  C   UNL     1      49.981 -27.322  47.528  0.00  0.00    +0.000 A 
ATOM      7  C   UNL     1      48.690 -26.965  47.135  0.00  0.00    +0.000 A 
ATOM      8  C   UNL     1      50.558 -28.481  46.991  0.00  0.00    +0.000 A 
ATOM      9  C   UNL     1      47.978 -27.754  46.230  0.00  0.00    +0.000 A 
ATOM     10  C   UNL     1      49.851 -29.275  46.081  0.00  0.00    +0.000 A 
ATOM     11  C   UNL     1      48.563 -28.901  45.711  0.00  0.00    +0.000 A 
ENDROOT
BRANCH   4  12
ATOM     12  C   UNL     1      47.941 -23.771  48.757  0.00  0.00    +0.000 A 
ATOM     13  C   UNL     1      46.823 -23.891  49.600  0.00  0.00    +0.000 A 
ATOM     14  C   UNL     1      48.291 -22.502  48.260  0.00  0.00    +0.000 A 
ATOM     15  C   UNL     1      46.067 -22.765  49.907  0.00  0.00    +0.000 A 
ATOM     16  C   UNL     1      47.524 -21.377  48.571  0.00  0.00    +0.000 A 
ATOM     17  C   UNL     1      46.416 -21.521  49.389  0.00  0.00    +0.000 A 
BRANCH  15  18
ATOM     18  O   UNL     1      44.965 -22.830  50.714  0.00  0.00    +0.000 OA
ATOM     19  H   UNL     1      44.352 -22.120  50.457  0.00  0.00    +0.000 HD
ENDBRANCH  15  18
BRANCH  17  20
ATOM     20  O   UNL     1      45.664 -20.422  49.689  0.00  0.00    +0.000 OA
ATOM     21  H   UNL     1      45.524 -20.471  50.656  0.00  0.00    +0.000 HD
ENDBRANCH  17  20
ENDBRANCH   4  12
BRANCH   8  22
ATOM     22  O   UNL     1      51.830 -28.848  47.328  0.00  0.00    +0.000 OA
ATOM     23  H   UNL     1      51.829 -29.485  48.059  0.00  0.00    +0.000 HD
ENDBRANCH   8  22
BRANCH  11  24
ATOM     24  O   UNL     1      47.831 -29.639  44.830  0.00  0.00    +0.000 OA
ATOM     25  H   UNL     1      47.872 -30.577  45.079  0.00  0.00    +0.000 HD
ENDBRANCH  11  24
BRANCH   3  26
ATOM     26  O   UNL     1      50.673 -24.275  49.664  0.00  0.00    +0.000 OA
BRANCH  26  32
ATOM     27  O   UNL     1      49.829 -23.109  51.578  0.00  0.00    +0.000 OA
ATOM     28  C   UNL     1      52.495 -24.073  52.105  0.00  0.00    +0.000 C 
ATOM     29  C   UNL     1      51.991 -22.739  52.666  0.00  0.00    +0.000 C 
ATOM     30  C   UNL     1      51.335 -25.041  51.868  0.00  0.00    +0.000 C 
ATOM     31  C   UNL     1      50.910 -22.176  51.735  0.00  0.00    +0.000 C 
ATOM     32  C   UNL     1      50.230 -24.366  51.026  0.00  0.00    +0.000 C 
ATOM     33  C   UNL     1      50.317 -20.882  52.281  0.00  0.00    +0.000 C 
BRANCH  28  34
ATOM     34  O   UNL     1      53.426 -24.640  53.046  0.00  0.00    +0.000 OA
ATOM     35  H   UNL     1      53.020 -25.490  53.319  0.00  0.00    +0.000 HD
ENDBRANCH  28  34
BRANCH  29  36
ATOM     36  O   UNL     1      53.096 -21.840  52.794  0.00  0.00    +0.000 OA
ATOM     37  H   UNL     1      53.847 -22.286  52.354  0.00  0.00    +0.000 HD
ENDBRANCH  29  36
BRANCH  30  38
ATOM     38  O   UNL     1      50.852 -25.461  53.163  0.00  0.00    +0.000 OA
ATOM     39  H   UNL     1      50.114 -24.872  53.402  0.00  0.00    +0.000 HD
ENDBRANCH  30  38
ENDBRANCH  26  32
ENDBRANCH   3  26
TORSDOF 10
ENDMDL
