MODEL 1
REMARK VINA RESULT:      -7.9      0.000      0.000
REMARK  Name = Quercetin.pdbqt.pdb
REMARK  6 active torsions:
REMARK  status: ('A' for Active; 'I' for Inactive)
REMARK    1  A    between atoms: C_5  and  C_12
REMARK    2  A    between atoms: C_6  and  O_22
REMARK    3  A    between atoms: C_8  and  O_24
REMARK    4  A    between atoms: C_10  and  O_26
REMARK    5  A    between atoms: C_15  and  O_18
REMARK    6  A    between atoms: C_17  and  O_20
REMARK                            x       y       z     vdW  Elec       q    Type
REMARK                         _______ _______ _______ _____ _____    ______ ____
ROOT
ATOM      1  O   UNL     1      48.093 -40.697  51.485  0.00  0.00    +0.000 OA
ATOM      2  O   UNL     1      48.521 -41.951  47.643  0.00  0.00    +0.000 OA
ATOM      3  C   UNL     1      48.275 -42.515  49.891  0.00  0.00    +0.000 A 
ATOM      4  C   UNL     1      48.134 -42.031  51.187  0.00  0.00    +0.000 A 
ATOM      5  C   UNL     1      48.178 -39.776  50.451  0.00  0.00    +0.000 A 
ATOM      6  C   UNL     1      48.330 -40.100  49.149  0.00  0.00    +0.000 A 
ATOM      7  C   UNL     1      48.386 -41.547  48.795  0.00  0.00    +0.000 A 
ATOM      8  C   UNL     1      48.310 -43.896  49.659  0.00  0.00    +0.000 A 
ATOM      9  C   UNL     1      48.028 -42.919  52.257  0.00  0.00    +0.000 A 
ATOM     10  C   UNL     1      48.063 -44.288  52.016  0.00  0.00    +0.000 A 
ATOM     11  C   UNL     1      48.204 -44.785  50.724  0.00  0.00    +0.000 A 
ENDROOT
BRANCH   5  12
ATOM     12  C   UNL     1      48.094 -38.391  50.938  0.00  0.00    +0.000 A 
ATOM     13  C   UNL     1      46.882 -37.695  50.922  0.00  0.00    +0.000 A 
ATOM     14  C   UNL     1      49.230 -37.779  51.483  0.00  0.00    +0.000 A 
ATOM     15  C   UNL     1      46.823 -36.400  51.422  0.00  0.00    +0.000 A 
ATOM     16  C   UNL     1      49.164 -36.485  52.000  0.00  0.00    +0.000 A 
ATOM     17  C   UNL     1      47.952 -35.810  51.981  0.00  0.00    +0.000 A 
BRANCH  15  18
ATOM     18  O   UNL     1      45.651 -35.710  51.322  0.00  0.00    +0.000 OA
ATOM     19  H   UNL     1      45.393 -35.720  50.382  0.00  0.00    +0.000 HD
ENDBRANCH  15  18
BRANCH  17  20
ATOM     20  O   UNL     1      47.877 -34.567  52.538  0.00  0.00    +0.000 OA
ATOM     21  H   UNL     1      48.711 -34.112  52.317  0.00  0.00    +0.000 HD
ENDBRANCH  17  20
ENDBRANCH   5  12
BRANCH   6  22
ATOM     22  O   UNL     1      48.457 -39.198  48.110  0.00  0.00    +0.000 OA
ATOM     23  H   UNL     1      49.129 -39.503  47.481  0.00  0.00    +0.000 HD
ENDBRANCH   6  22
BRANCH   8  24
ATOM     24  O   UNL     1      48.449 -44.441  48.412  0.00  0.00    +0.000 OA
ATOM     25  H   UNL     1      47.699 -44.130  47.853  0.00  0.00    +0.000 HD
ENDBRANCH   8  24
BRANCH  10  26
ATOM     26  O   UNL     1      47.957 -45.136  53.079  0.00  0.00    +0.000 OA
ATOM     27  H   UNL     1      48.791 -45.099  53.581  0.00  0.00    +0.000 HD
ENDBRANCH  10  26
TORSDOF 6
ENDMDL
MODEL 2
REMARK VINA RESULT:      -7.3      3.270      5.461
REMARK  Name = Quercetin.pdbqt.pdb
REMARK  6 active torsions:
REMARK  status: ('A' for Active; 'I' for Inactive)
REMARK    1  A    between atoms: C_5  and  C_12
REMARK    2  A    between atoms: C_6  and  O_22
REMARK    3  A    between atoms: C_8  and  O_24
REMARK    4  A    between atoms: C_10  and  O_26
REMARK    5  A    between atoms: C_15  and  O_18
REMARK    6  A    between atoms: C_17  and  O_20
REMARK                            x       y       z     vdW  Elec       q    Type
REMARK                         _______ _______ _______ _____ _____    ______ ____
ROOT
ATOM      1  O   UNL     1      48.931 -36.982  47.992  0.00  0.00    +0.000 OA
ATOM      2  O   UNL     1      50.041 -40.878  47.662  0.00  0.00    +0.000 OA
ATOM      3  C   UNL     1      49.693 -38.825  46.614  0.00  0.00    +0.000 A 
ATOM      4  C   UNL     1      49.301 -37.502  46.782  0.00  0.00    +0.000 A 
ATOM      5  C   UNL     1      48.960 -37.801  49.111  0.00  0.00    +0.000 A 
ATOM      6  C   UNL     1      49.307 -39.106  49.095  0.00  0.00    +0.000 A 
ATOM      7  C   UNL     1      49.707 -39.703  47.788  0.00  0.00    +0.000 A 
ATOM      8  C   UNL     1      50.058 -39.291  45.344  0.00  0.00    +0.000 A 
ATOM      9  C   UNL     1      49.271 -36.637  45.690  0.00  0.00    +0.000 A 
ATOM     10  C   UNL     1      49.637 -37.109  44.433  0.00  0.00    +0.000 A 
ATOM     11  C   UNL     1      50.030 -38.431  44.250  0.00  0.00    +0.000 A 
ENDROOT
BRANCH   5  12
ATOM     12  C   UNL     1      48.558 -37.084  50.330  0.00  0.00    +0.000 A 
ATOM     13  C   UNL     1      47.220 -36.751  50.560  0.00  0.00    +0.000 A 
ATOM     14  C   UNL     1      49.517 -36.783  51.305  0.00  0.00    +0.000 A 
ATOM     15  C   UNL     1      46.862 -36.107  51.738  0.00  0.00    +0.000 A 
ATOM     16  C   UNL     1      49.153 -36.151  52.494  0.00  0.00    +0.000 A 
ATOM     17  C   UNL     1      47.819 -35.832  52.708  0.00  0.00    +0.000 A 
BRANCH  15  18
ATOM     18  O   UNL     1      45.565 -35.719  51.906  0.00  0.00    +0.000 OA
ATOM     19  H   UNL     1      45.551 -34.744  51.861  0.00  0.00    +0.000 HD
ENDBRANCH  15  18
BRANCH  17  20
ATOM     20  O   UNL     1      47.456 -35.266  53.895  0.00  0.00    +0.000 OA
ATOM     21  H   UNL     1      46.482 -35.302  53.934  0.00  0.00    +0.000 HD
ENDBRANCH  17  20
ENDBRANCH   5  12
BRANCH   6  22
ATOM     22  O   UNL     1      49.305 -39.948  50.191  0.00  0.00    +0.000 OA
ATOM     23  H   UNL     1      50.107 -40.493  50.196  0.00  0.00    +0.000 HD
ENDBRANCH   6  22
BRANCH   8  24
ATOM     24  O   UNL     1      50.452 -40.580  45.105  0.00  0.00    +0.000 OA
ATOM     25  H   UNL     1      51.255 -40.557  44.533  0.00  0.00    +0.000 HD
ENDBRANCH   8  24
BRANCH  10  26
ATOM     26  O   UNL     1      49.599 -36.243  43.379  0.00  0.00    +0.000 OA
ATOM     27  H   UNL     1      48.824 -35.664  43.490  0.00  0.00    +0.000 HD
ENDBRANCH  10  26
TORSDOF 6
ENDMDL
MODEL 3
REMARK VINA RESULT:      -7.2      1.711      3.689
REMARK  Name = Quercetin.pdbqt.pdb
REMARK  6 active torsions:
REMARK  status: ('A' for Active; 'I' for Inactive)
REMARK    1  A    between atoms: C_5  and  C_12
REMARK    2  A    between atoms: C_6  and  O_22
REMARK    3  A    between atoms: C_8  and  O_24
REMARK    4  A    between atoms: C_10  and  O_26
REMARK    5  A    between atoms: C_15  and  O_18
REMARK    6  A    between atoms: C_17  and  O_20
REMARK                            x       y       z     vdW  Elec       q    Type
REMARK                         _______ _______ _______ _____ _____    ______ ____
ROOT
ATOM      1  O   UNL     1      48.879 -39.072  48.777  0.00  0.00    +0.000 OA
ATOM      2  O   UNL     1      48.379 -42.906  50.031  0.00  0.00    +0.000 OA
ATOM      3  C   UNL     1      48.879 -41.446  48.284  0.00  0.00    +0.000 A 
ATOM      4  C   UNL     1      49.034 -40.116  47.908  0.00  0.00    +0.000 A 
ATOM      5  C   UNL     1      48.570 -39.342  50.102  0.00  0.00    +0.000 A 
ATOM      6  C   UNL     1      48.377 -40.581  50.604  0.00  0.00    +0.000 A 
ATOM      7  C   UNL     1      48.531 -41.739  49.678  0.00  0.00    +0.000 A 
ATOM      8  C   UNL     1      49.051 -42.465  47.339  0.00  0.00    +0.000 A 
ATOM      9  C   UNL     1      49.362 -39.796  46.591  0.00  0.00    +0.000 A 
ATOM     10  C   UNL     1      49.532 -40.816  45.661  0.00  0.00    +0.000 A 
ATOM     11  C   UNL     1      49.379 -42.150  46.024  0.00  0.00    +0.000 A 
ENDROOT
BRANCH   5  12
ATOM     12  C   UNL     1      48.462 -38.116  50.905  0.00  0.00    +0.000 A 
ATOM     13  C   UNL     1      47.229 -37.484  51.092  0.00  0.00    +0.000 A 
ATOM     14  C   UNL     1      49.599 -37.605  51.545  0.00  0.00    +0.000 A 
ATOM     15  C   UNL     1      47.150 -36.347  51.886  0.00  0.00    +0.000 A 
ATOM     16  C   UNL     1      49.514 -36.474  52.356  0.00  0.00    +0.000 A 
ATOM     17  C   UNL     1      48.281 -35.861  52.534  0.00  0.00    +0.000 A 
BRANCH  15  18
ATOM     18  O   UNL     1      45.955 -35.699  51.988  0.00  0.00    +0.000 OA
ATOM     19  H   UNL     1      46.144 -34.742  51.962  0.00  0.00    +0.000 HD
ENDBRANCH  15  18
BRANCH  17  20
ATOM     20  O   UNL     1      48.189 -34.789  53.372  0.00  0.00    +0.000 OA
ATOM     21  H   UNL     1      47.694 -35.090  54.156  0.00  0.00    +0.000 HD
ENDBRANCH  17  20
ENDBRANCH   5  12
BRANCH   6  22
ATOM     22  O   UNL     1      48.029 -40.870  51.911  0.00  0.00    +0.000 OA
ATOM     23  H   UNL     1      47.179 -40.457  52.130  0.00  0.00    +0.000 HD
ENDBRANCH   6  22
BRANCH   8  24
ATOM     24  O   UNL     1      48.912 -43.794  47.638  0.00  0.00    +0.000 OA
ATOM     25  H   UNL     1      49.420 -44.315  46.974  0.00  0.00    +0.000 HD
ENDBRANCH   8  24
BRANCH  10  26
ATOM     26  O   UNL     1      49.852 -40.477  44.379  0.00  0.00    +0.000 OA
ATOM     27  H   UNL     1      49.747 -39.513  44.285  0.00  0.00    +0.000 HD
ENDBRANCH  10  26
TORSDOF 6
ENDMDL
MODEL 4
REMARK VINA RESULT:      -7.1      2.494      7.076
REMARK  Name = Quercetin.pdbqt.pdb
REMARK  6 active torsions:
REMARK  status: ('A' for Active; 'I' for Inactive)
REMARK    1  A    between atoms: C_5  and  C_12
REMARK    2  A    between atoms: C_6  and  O_22
REMARK    3  A    between atoms: C_8  and  O_24
REMARK    4  A    between atoms: C_10  and  O_26
REMARK    5  A    between atoms: C_15  and  O_18
REMARK    6  A    between atoms: C_17  and  O_20
REMARK                            x       y       z     vdW  Elec       q    Type
REMARK                         _______ _______ _______ _____ _____    ______ ____
ROOT
ATOM      1  O   UNL     1      48.922 -42.574  49.274  0.00  0.00    +0.000 OA
ATOM      2  O   UNL     1      47.880 -39.173  51.241  0.00  0.00    +0.000 OA
ATOM      3  C   UNL     1      48.729 -40.158  49.306  0.00  0.00    +0.000 A 
ATOM      4  C   UNL     1      49.072 -41.351  48.681  0.00  0.00    +0.000 A 
ATOM      5  C   UNL     1      48.387 -42.638  50.552  0.00  0.00    +0.000 A 
ATOM      6  C   UNL     1      48.022 -41.563  51.283  0.00  0.00    +0.000 A 
ATOM      7  C   UNL     1      48.182 -40.215  50.665  0.00  0.00    +0.000 A 
ATOM      8  C   UNL     1      48.911 -38.940  48.638  0.00  0.00    +0.000 A 
ATOM      9  C   UNL     1      49.598 -41.338  47.390  0.00  0.00    +0.000 A 
ATOM     10  C   UNL     1      49.774 -40.123  46.735  0.00  0.00    +0.000 A 
ATOM     11  C   UNL     1      49.435 -38.922  47.349  0.00  0.00    +0.000 A 
ENDROOT
BRANCH   5  12
ATOM     12  C   UNL     1      48.271 -44.022  51.033  0.00  0.00    +0.000 A 
ATOM     13  C   UNL     1      47.344 -44.365  52.022  0.00  0.00    +0.000 A 
ATOM     14  C   UNL     1      49.056 -45.026  50.451  0.00  0.00    +0.000 A 
ATOM     15  C   UNL     1      47.229 -45.688  52.431  0.00  0.00    +0.000 A 
ATOM     16  C   UNL     1      48.927 -46.355  50.852  0.00  0.00    +0.000 A 
ATOM     17  C   UNL     1      47.998 -46.679  51.831  0.00  0.00    +0.000 A 
BRANCH  15  18
ATOM     18  O   UNL     1      46.378 -45.988  53.453  0.00  0.00    +0.000 OA
ATOM     19  H   UNL     1      46.281 -45.180  53.991  0.00  0.00    +0.000 HD
ENDBRANCH  15  18
BRANCH  17  20
ATOM     20  O   UNL     1      47.833 -47.988  52.181  0.00  0.00    +0.000 OA
ATOM     21  H   UNL     1      48.678 -48.279  52.571  0.00  0.00    +0.000 HD
ENDBRANCH  17  20
ENDBRANCH   5  12
BRANCH   6  22
ATOM     22  O   UNL     1      47.524 -41.603  52.572  0.00  0.00    +0.000 OA
ATOM     23  H   UNL     1      46.563 -41.475  52.564  0.00  0.00    +0.000 HD
ENDBRANCH   6  22
BRANCH   8  24
ATOM     24  O   UNL     1      48.597 -37.728  49.192  0.00  0.00    +0.000 OA
ATOM     25  H   UNL     1      48.293 -37.128  48.472  0.00  0.00    +0.000 HD
ENDBRANCH   8  24
BRANCH  10  26
ATOM     26  O   UNL     1      50.291 -40.137  45.472  0.00  0.00    +0.000 OA
ATOM     27  H   UNL     1      49.549 -40.168  44.842  0.00  0.00    +0.000 HD
ENDBRANCH  10  26
TORSDOF 6
ENDMDL
MODEL 5
REMARK VINA RESULT:      -6.9      1.516      6.599
REMARK  Name = Quercetin.pdbqt.pdb
REMARK  6 active torsions:
REMARK  status: ('A' for Active; 'I' for Inactive)
REMARK    1  A    between atoms: C_5  and  C_12
REMARK    2  A    between atoms: C_6  and  O_22
REMARK    3  A    between atoms: C_8  and  O_24
REMARK    4  A    between atoms: C_10  and  O_26
REMARK    5  A    between atoms: C_15  and  O_18
REMARK    6  A    between atoms: C_17  and  O_20
REMARK                            x       y       z     vdW  Elec       q    Type
REMARK                         _______ _______ _______ _____ _____    ______ ____
ROOT
ATOM      1  O   UNL     1      47.982 -40.531  50.514  0.00  0.00    +0.000 OA
ATOM      2  O   UNL     1      50.343 -39.889  47.268  0.00  0.00    +0.000 OA
ATOM      3  C   UNL     1      49.121 -38.984  49.035  0.00  0.00    +0.000 A 
ATOM      4  C   UNL     1      48.315 -39.260  50.133  0.00  0.00    +0.000 A 
ATOM      5  C   UNL     1      48.482 -41.601  49.787  0.00  0.00    +0.000 A 
ATOM      6  C   UNL     1      49.265 -41.482  48.692  0.00  0.00    +0.000 A 
ATOM      7  C   UNL     1      49.636 -40.108  48.248  0.00  0.00    +0.000 A 
ATOM      8  C   UNL     1      49.419 -37.656  48.702  0.00  0.00    +0.000 A 
ATOM      9  C   UNL     1      47.802 -38.218  50.904  0.00  0.00    +0.000 A 
ATOM     10  C   UNL     1      48.105 -36.903  50.566  0.00  0.00    +0.000 A 
ATOM     11  C   UNL     1      48.910 -36.612  49.469  0.00  0.00    +0.000 A 
ENDROOT
BRANCH   5  12
ATOM     12  C   UNL     1      48.052 -42.893  50.340  0.00  0.00    +0.000 A 
ATOM     13  C   UNL     1      48.185 -43.172  51.704  0.00  0.00    +0.000 A 
ATOM     14  C   UNL     1      47.444 -43.837  49.503  0.00  0.00    +0.000 A 
ATOM     15  C   UNL     1      47.736 -44.387  52.206  0.00  0.00    +0.000 A 
ATOM     16  C   UNL     1      46.978 -45.048  50.013  0.00  0.00    +0.000 A 
ATOM     17  C   UNL     1      47.114 -45.307  51.370  0.00  0.00    +0.000 A 
BRANCH  15  18
ATOM     18  O   UNL     1      47.949 -44.672  53.523  0.00  0.00    +0.000 OA
ATOM     19  H   UNL     1      48.757 -45.216  53.570  0.00  0.00    +0.000 HD
ENDBRANCH  15  18
BRANCH  17  20
ATOM     20  O   UNL     1      46.607 -46.468  51.877  0.00  0.00    +0.000 OA
ATOM     21  H   UNL     1      47.357 -47.087  51.956  0.00  0.00    +0.000 HD
ENDBRANCH  17  20
ENDBRANCH   5  12
BRANCH   6  22
ATOM     22  O   UNL     1      49.740 -42.534  47.931  0.00  0.00    +0.000 OA
ATOM     23  H   UNL     1      50.348 -43.079  48.454  0.00  0.00    +0.000 HD
ENDBRANCH   6  22
BRANCH   8  24
ATOM     24  O   UNL     1      50.203 -37.311  47.634  0.00  0.00    +0.000 OA
ATOM     25  H   UNL     1      50.625 -36.441  47.829  0.00  0.00    +0.000 HD
ENDBRANCH   8  24
BRANCH  10  26
ATOM     26  O   UNL     1      47.592 -35.901  51.336  0.00  0.00    +0.000 OA
ATOM     27  H   UNL     1      48.054 -35.910  52.193  0.00  0.00    +0.000 HD
ENDBRANCH  10  26
TORSDOF 6
ENDMDL
MODEL 6
REMARK VINA RESULT:      -6.9      2.616      3.923
REMARK  Name = Quercetin.pdbqt.pdb
REMARK  6 active torsions:
REMARK  status: ('A' for Active; 'I' for Inactive)
REMARK    1  A    between atoms: C_5  and  C_12
REMARK    2  A    between atoms: C_6  and  O_22
REMARK    3  A    between atoms: C_8  and  O_24
REMARK    4  A    between atoms: C_10  and  O_26
REMARK    5  A    between atoms: C_15  and  O_18
REMARK    6  A    between atoms: C_17  and  O_20
REMARK                            x       y       z     vdW  Elec       q    Type
REMARK                         _______ _______ _______ _____ _____    ______ ____
ROOT
ATOM      1  O   UNL     1      49.351 -41.831  48.842  0.00  0.00    +0.000 OA
ATOM      2  O   UNL     1      46.790 -41.926  51.997  0.00  0.00    +0.000 OA
ATOM      3  C   UNL     1      48.269 -43.082  50.616  0.00  0.00    +0.000 A 
ATOM      4  C   UNL     1      49.131 -42.994  49.528  0.00  0.00    +0.000 A 
ATOM      5  C   UNL     1      48.702 -40.676  49.255  0.00  0.00    +0.000 A 
ATOM      6  C   UNL     1      47.830 -40.616  50.284  0.00  0.00    +0.000 A 
ATOM      7  C   UNL     1      47.564 -41.870  51.045  0.00  0.00    +0.000 A 
ATOM      8  C   UNL     1      48.091 -44.307  51.270  0.00  0.00    +0.000 A 
ATOM      9  C   UNL     1      49.818 -44.124  49.087  0.00  0.00    +0.000 A 
ATOM     10  C   UNL     1      49.634 -45.336  49.745  0.00  0.00    +0.000 A 
ATOM     11  C   UNL     1      48.775 -45.438  50.834  0.00  0.00    +0.000 A 
ENDROOT
BRANCH   5  12
ATOM     12  C   UNL     1      49.066 -39.515  48.430  0.00  0.00    +0.000 A 
ATOM     13  C   UNL     1      48.644 -39.416  47.101  0.00  0.00    +0.000 A 
ATOM     14  C   UNL     1      49.793 -38.462  48.999  0.00  0.00    +0.000 A 
ATOM     15  C   UNL     1      48.970 -38.290  46.356  0.00  0.00    +0.000 A 
ATOM     16  C   UNL     1      50.104 -37.325  48.254  0.00  0.00    +0.000 A 
ATOM     17  C   UNL     1      49.674 -37.241  46.937  0.00  0.00    +0.000 A 
BRANCH  15  18
ATOM     18  O   UNL     1      48.619 -38.250  45.038  0.00  0.00    +0.000 OA
ATOM     19  H   UNL     1      49.401 -37.943  44.543  0.00  0.00    +0.000 HD
ENDBRANCH  15  18
BRANCH  17  20
ATOM     20  O   UNL     1      49.930 -36.105  46.227  0.00  0.00    +0.000 OA
ATOM     21  H   UNL     1      49.136 -35.927  45.690  0.00  0.00    +0.000 HD
ENDBRANCH  17  20
ENDBRANCH   5  12
BRANCH   6  22
ATOM     22  O   UNL     1      47.144 -39.485  50.685  0.00  0.00    +0.000 OA
ATOM     23  H   UNL     1      46.711 -39.068  49.924  0.00  0.00    +0.000 HD
ENDBRANCH   6  22
BRANCH   8  24
ATOM     24  O   UNL     1      47.258 -44.467  52.344  0.00  0.00    +0.000 OA
ATOM     25  H   UNL     1      47.589 -43.899  53.079  0.00  0.00    +0.000 HD
ENDBRANCH   8  24
BRANCH  10  26
ATOM     26  O   UNL     1      50.318 -46.428  49.294  0.00  0.00    +0.000 OA
ATOM     27  H   UNL     1      50.167 -46.506  48.335  0.00  0.00    +0.000 HD
ENDBRANCH  10  26
TORSDOF 6
ENDMDL
MODEL 7
REMARK VINA RESULT:      -6.6      2.123      7.376
REMARK  Name = Quercetin.pdbqt.pdb
REMARK  6 active torsions:
REMARK  status: ('A' for Active; 'I' for Inactive)
REMARK    1  A    between atoms: C_5  and  C_12
REMARK    2  A    between atoms: C_6  and  O_22
REMARK    3  A    between atoms: C_8  and  O_24
REMARK    4  A    between atoms: C_10  and  O_26
REMARK    5  A    between atoms: C_15  and  O_18
REMARK    6  A    between atoms: C_17  and  O_20
REMARK                            x       y       z     vdW  Elec       q    Type
REMARK                         _______ _______ _______ _____ _____    ______ ____
ROOT
ATOM      1  O   UNL     1      49.116 -40.588  48.604  0.00  0.00    +0.000 OA
ATOM      2  O   UNL     1      47.963 -38.350  51.795  0.00  0.00    +0.000 OA
ATOM      3  C   UNL     1      48.708 -38.409  49.587  0.00  0.00    +0.000 A 
ATOM      4  C   UNL     1      49.097 -39.222  48.528  0.00  0.00    +0.000 A 
ATOM      5  C   UNL     1      48.714 -41.200  49.782  0.00  0.00    +0.000 A 
ATOM      6  C   UNL     1      48.324 -40.537  50.893  0.00  0.00    +0.000 A 
ATOM      7  C   UNL     1      48.301 -39.048  50.843  0.00  0.00    +0.000 A 
ATOM      8  C   UNL     1      48.714 -37.016  49.439  0.00  0.00    +0.000 A 
ATOM      9  C   UNL     1      49.493 -38.653  47.319  0.00  0.00    +0.000 A 
ATOM     10  C   UNL     1      49.495 -37.269  47.182  0.00  0.00    +0.000 A 
ATOM     11  C   UNL     1      49.109 -36.444  48.234  0.00  0.00    +0.000 A 
ENDROOT
BRANCH   5  12
ATOM     12  C   UNL     1      48.770 -42.665  49.690  0.00  0.00    +0.000 A 
ATOM     13  C   UNL     1      49.988 -43.329  49.513  0.00  0.00    +0.000 A 
ATOM     14  C   UNL     1      47.596 -43.415  49.842  0.00  0.00    +0.000 A 
ATOM     15  C   UNL     1      50.017 -44.717  49.466  0.00  0.00    +0.000 A 
ATOM     16  C   UNL     1      47.631 -44.808  49.811  0.00  0.00    +0.000 A 
ATOM     17  C   UNL     1      48.849 -45.451  49.640  0.00  0.00    +0.000 A 
BRANCH  15  18
ATOM     18  O   UNL     1      51.203 -45.341  49.211  0.00  0.00    +0.000 OA
ATOM     19  H   UNL     1      51.426 -45.865  50.003  0.00  0.00    +0.000 HD
ENDBRANCH  15  18
BRANCH  17  20
ATOM     20  O   UNL     1      48.888 -46.815  49.667  0.00  0.00    +0.000 OA
ATOM     21  H   UNL     1      47.978 -47.116  49.847  0.00  0.00    +0.000 HD
ENDBRANCH  17  20
ENDBRANCH   5  12
BRANCH   6  22
ATOM     22  O   UNL     1      47.958 -41.127  52.089  0.00  0.00    +0.000 OA
ATOM     23  H   UNL     1      47.695 -40.449  52.730  0.00  0.00    +0.000 HD
ENDBRANCH   6  22
BRANCH   8  24
ATOM     24  O   UNL     1      48.347 -36.156  50.439  0.00  0.00    +0.000 OA
ATOM     25  H   UNL     1      48.981 -36.262  51.186  0.00  0.00    +0.000 HD
ENDBRANCH   8  24
BRANCH  10  26
ATOM     26  O   UNL     1      49.887 -36.736  45.989  0.00  0.00    +0.000 OA
ATOM     27  H   UNL     1      49.115 -36.303  45.582  0.00  0.00    +0.000 HD
ENDBRANCH  10  26
TORSDOF 6
ENDMDL
MODEL 8
REMARK VINA RESULT:      -6.5      3.138      3.916
REMARK  Name = Quercetin.pdbqt.pdb
REMARK  6 active torsions:
REMARK  status: ('A' for Active; 'I' for Inactive)
REMARK    1  A    between atoms: C_5  and  C_12
REMARK    2  A    between atoms: C_6  and  O_22
REMARK    3  A    between atoms: C_8  and  O_24
REMARK    4  A    between atoms: C_10  and  O_26
REMARK    5  A    between atoms: C_15  and  O_18
REMARK    6  A    between atoms: C_17  and  O_20
REMARK                            x       y       z     vdW  Elec       q    Type
REMARK                         _______ _______ _______ _____ _____    ______ ____
ROOT
ATOM      1  O   UNL     1      48.696 -39.381  48.920  0.00  0.00    +0.000 OA
ATOM      2  O   UNL     1      50.114 -42.690  47.034  0.00  0.00    +0.000 OA
ATOM      3  C   UNL     1      49.135 -41.765  48.937  0.00  0.00    +0.000 A 
ATOM      4  C   UNL     1      48.668 -40.601  49.537  0.00  0.00    +0.000 A 
ATOM      5  C   UNL     1      49.198 -39.293  47.630  0.00  0.00    +0.000 A 
ATOM      6  C   UNL     1      49.696 -40.335  46.931  0.00  0.00    +0.000 A 
ATOM      7  C   UNL     1      49.686 -41.677  47.581  0.00  0.00    +0.000 A 
ATOM      8  C   UNL     1      49.076 -42.982  49.629  0.00  0.00    +0.000 A 
ATOM      9  C   UNL     1      48.140 -40.643  50.826  0.00  0.00    +0.000 A 
ATOM     10  C   UNL     1      48.085 -41.856  51.504  0.00  0.00    +0.000 A 
ATOM     11  C   UNL     1      48.549 -43.028  50.916  0.00  0.00    +0.000 A 
ENDROOT
BRANCH   5  12
ATOM     12  C   UNL     1      49.135 -37.921  47.106  0.00  0.00    +0.000 A 
ATOM     13  C   UNL     1      48.568 -37.653  45.856  0.00  0.00    +0.000 A 
ATOM     14  C   UNL     1      49.594 -36.857  47.894  0.00  0.00    +0.000 A 
ATOM     15  C   UNL     1      48.488 -36.342  45.402  0.00  0.00    +0.000 A 
ATOM     16  C   UNL     1      49.497 -35.541  47.442  0.00  0.00    +0.000 A 
ATOM     17  C   UNL     1      48.927 -35.292  46.201  0.00  0.00    +0.000 A 
BRANCH  15  18
ATOM     18  O   UNL     1      48.007 -36.111  44.147  0.00  0.00    +0.000 OA
ATOM     19  H   UNL     1      47.356 -35.388  44.219  0.00  0.00    +0.000 HD
ENDBRANCH  15  18
BRANCH  17  20
ATOM     20  O   UNL     1      48.781 -34.001  45.786  0.00  0.00    +0.000 OA
ATOM     21  H   UNL     1      47.946 -33.963  45.283  0.00  0.00    +0.000 HD
ENDBRANCH  17  20
ENDBRANCH   5  12
BRANCH   6  22
ATOM     22  O   UNL     1      50.236 -40.261  45.661  0.00  0.00    +0.000 OA
ATOM     23  H   UNL     1      50.928 -39.582  45.630  0.00  0.00    +0.000 HD
ENDBRANCH   6  22
BRANCH   8  24
ATOM     24  O   UNL     1      49.520 -44.164  49.101  0.00  0.00    +0.000 OA
ATOM     25  H   UNL     1      48.735 -44.689  48.816  0.00  0.00    +0.000 HD
ENDBRANCH   8  24
BRANCH  10  26
ATOM     26  O   UNL     1      47.563 -41.871  52.765  0.00  0.00    +0.000 OA
ATOM     27  H   UNL     1      47.841 -42.698  53.198  0.00  0.00    +0.000 HD
ENDBRANCH  10  26
TORSDOF 6
ENDMDL
MODEL 9
REMARK VINA RESULT:      -6.4     22.022     23.770
REMARK  Name = Quercetin.pdbqt.pdb
REMARK  6 active torsions:
REMARK  status: ('A' for Active; 'I' for Inactive)
REMARK    1  A    between atoms: C_5  and  C_12
REMARK    2  A    between atoms: C_6  and  O_22
REMARK    3  A    between atoms: C_8  and  O_24
REMARK    4  A    between atoms: C_10  and  O_26
REMARK    5  A    between atoms: C_15  and  O_18
REMARK    6  A    between atoms: C_17  and  O_20
REMARK                            x       y       z     vdW  Elec       q    Type
REMARK                         _______ _______ _______ _____ _____    ______ ____
ROOT
ATOM      1  O   UNL     1      47.336 -55.089  67.757  0.00  0.00    +0.000 OA
ATOM      2  O   UNL     1      45.721 -53.636  71.193  0.00  0.00    +0.000 OA
ATOM      3  C   UNL     1      45.400 -54.288  68.978  0.00  0.00    +0.000 A 
ATOM      4  C   UNL     1      46.004 -54.784  67.828  0.00  0.00    +0.000 A 
ATOM      5  C   UNL     1      48.125 -54.915  68.885  0.00  0.00    +0.000 A 
ATOM      6  C   UNL     1      47.677 -54.431  70.064  0.00  0.00    +0.000 A 
ATOM      7  C   UNL     1      46.231 -54.082  70.168  0.00  0.00    +0.000 A 
ATOM      8  C   UNL     1      44.030 -53.996  68.978  0.00  0.00    +0.000 A 
ATOM      9  C   UNL     1      45.249 -54.991  66.675  0.00  0.00    +0.000 A 
ATOM     10  C   UNL     1      43.889 -54.698  66.686  0.00  0.00    +0.000 A 
ATOM     11  C   UNL     1      43.272 -54.201  67.829  0.00  0.00    +0.000 A 
ENDROOT
BRANCH   5  12
ATOM     12  C   UNL     1      49.520 -55.310  68.649  0.00  0.00    +0.000 A 
ATOM     13  C   UNL     1      50.347 -54.562  67.803  0.00  0.00    +0.000 A 
ATOM     14  C   UNL     1      50.052 -56.415  69.326  0.00  0.00    +0.000 A 
ATOM     15  C   UNL     1      51.672 -54.937  67.627  0.00  0.00    +0.000 A 
ATOM     16  C   UNL     1      51.388 -56.779  69.160  0.00  0.00    +0.000 A 
ATOM     17  C   UNL     1      52.195 -56.023  68.321  0.00  0.00    +0.000 A 
BRANCH  15  18
ATOM     18  O   UNL     1      52.438 -54.244  66.736  0.00  0.00    +0.000 OA
ATOM     19  H   UNL     1      53.348 -54.234  67.087  0.00  0.00    +0.000 HD
ENDBRANCH  15  18
BRANCH  17  20
ATOM     20  O   UNL     1      53.515 -56.347  68.203  0.00  0.00    +0.000 OA
ATOM     21  H   UNL     1      53.740 -56.883  68.986  0.00  0.00    +0.000 HD
ENDBRANCH  17  20
ENDBRANCH   5  12
BRANCH   6  22
ATOM     22  O   UNL     1      48.454 -54.213  71.186  0.00  0.00    +0.000 OA
ATOM     23  H   UNL     1      47.890 -54.086  71.965  0.00  0.00    +0.000 HD
ENDBRANCH   6  22
BRANCH   8  24
ATOM     24  O   UNL     1      43.370 -53.504  70.072  0.00  0.00    +0.000 OA
ATOM     25  H   UNL     1      43.441 -52.521  70.059  0.00  0.00    +0.000 HD
ENDBRANCH   8  24
BRANCH  10  26
ATOM     26  O   UNL     1      43.171 -54.910  65.545  0.00  0.00    +0.000 OA
ATOM     27  H   UNL     1      43.711 -54.616  64.789  0.00  0.00    +0.000 HD
ENDBRANCH  10  26
TORSDOF 6
ENDMDL
