MODEL 1
REMARK VINA RESULT:      -7.2      0.000      0.000
REMARK  Name = 
REMARK  14 active torsions:
REMARK  status: ('A' for Active; 'I' for Inactive)
REMARK    1  A    between atoms: O_1  and  C_24
REMARK    2  A    between atoms: O_1  and  C_36
REMARK    3  A    between atoms: O_4  and  C_30
REMARK    4  A    between atoms: O_4  and  C_37
REMARK    5  A    between atoms: O_7  and  C_33
REMARK    6  A    between atoms: O_7  and  C_38
REMARK    7  A    between atoms: N_10  and  C_23
REMARK    8  A    between atoms: C_15  and  C_26
REMARK    9  A    between atoms: C_16  and  C_24
REMARK   10  A    between atoms: C_31  and  C_34
REMARK   11  A    between atoms: C_32  and  C_35
REMARK   12  A    between atoms: C_36  and  C_39
REMARK   13  A    between atoms: C_39  and  C_40
REMARK   14  A    between atoms: C_41  and  C_42
REMARK                            x       y       z     vdW  Elec       q    Type
REMARK                         _______ _______ _______ _____ _____    ______ ____
ROOT
ATOM      1  O   UNL     1      46.363 -46.192  52.702  0.00  0.00    +0.000 OA
ATOM      2  O   UNL     1      45.935 -49.402  48.485  0.00  0.00    +0.000 OA
ATOM      3  O   UNL     1      47.141 -41.678  51.833  0.00  0.00    +0.000 OA
ATOM      4  O   UNL     1      49.819 -41.660  47.240  0.00  0.00    +0.000 OA
ATOM      5  N   UNL     1      49.142 -45.443  49.078  0.00  0.00    +0.000 NA
ATOM      6  N   UNL     1      49.879 -47.561  50.975  0.00  0.00    +0.000 NA
ATOM      7  C   UNL     1      49.055 -45.261  50.551  0.00  0.00    +0.000 C 
ATOM      8  C   UNL     1      48.758 -46.632  51.295  0.00  0.00    +0.000 C 
ATOM      9  C   UNL     1      49.858 -47.851  49.518  0.00  0.00    +0.000 C 
ATOM     10  C   UNL     1      50.112 -46.524  48.709  0.00  0.00    +0.000 C 
ATOM     11  C   UNL     1      49.296 -44.202  48.270  0.00  0.00    +0.000 C 
ATOM     12  C   UNL     1      48.007 -44.188  50.911  0.00  0.00    +0.000 C 
ATOM     13  C   UNL     1      48.530 -48.524  49.073  0.00  0.00    +0.000 C 
ATOM     14  C   UNL     1      47.416 -47.215  50.874  0.00  0.00    +0.000 C 
ATOM     15  C   UNL     1      47.315 -48.065  49.841  0.00  0.00    +0.000 C 
ATOM     16  C   UNL     1      48.836 -42.927  48.958  0.00  0.00    +0.000 C 
ATOM     17  C   UNL     1      48.226 -42.916  50.150  0.00  0.00    +0.000 C 
ATOM     18  C   UNL     1      49.912 -48.752  51.819  0.00  0.00    +0.000 C 
ATOM     19  C   UNL     1      46.227 -46.862  51.683  0.00  0.00    +0.000 C 
ATOM     20  C   UNL     1      46.010 -48.620  49.426  0.00  0.00    +0.000 C 
ATOM     21  C   UNL     1      47.745 -41.661  50.766  0.00  0.00    +0.000 C 
ATOM     22  C   UNL     1      49.143 -41.649  48.263  0.00  0.00    +0.000 C 
ATOM     23  C   UNL     1      44.887 -47.346  51.213  0.00  0.00    +0.000 C 
ATOM     24  C   UNL     1      44.799 -48.187  50.170  0.00  0.00    +0.000 C 
ATOM     25  C   UNL     1      47.982 -40.389  50.039  0.00  0.00    +0.000 C 
ATOM     26  C   UNL     1      48.618 -40.376  48.857  0.00  0.00    +0.000 C 
ATOM     27  C   UNL     1      43.508 -48.764  49.666  0.00  0.00    +0.000 C 
ATOM     28  C   UNL     1      47.459 -39.161  50.726  0.00  0.00    +0.000 C 
ENDROOT
BRANCH  23  29
ATOM     29  O   UNL     1      43.725 -46.985  51.885  0.00  0.00    +0.000 OA
ATOM     30  C   UNL     1      43.024 -45.868  51.343  0.00  0.00    +0.000 C 
ENDBRANCH  23  29
BRANCH  26  31
ATOM     31  O   UNL     1      48.838 -39.156  48.224  0.00  0.00    +0.000 OA
ATOM     32  C   UNL     1      50.090 -38.540  48.521  0.00  0.00    +0.000 C 
ENDBRANCH  26  31
BRANCH  10  34
ATOM     33  N   UNL     1      52.660 -45.853  49.014  0.00  0.00    +0.000 NA
ATOM     34  C   UNL     1      51.547 -46.144  48.860  0.00  0.00    +0.000 C 
ENDBRANCH  10  34
BRANCH  11  35
ATOM     35  C   UNL     1      48.503 -44.406  46.944  0.00  0.00    +0.000 C 
BRANCH  35  36
ATOM     36  O   UNL     1      47.185 -44.906  47.253  0.00  0.00    +0.000 OA
BRANCH  36  38
ATOM     37  O   UNL     1      46.255 -44.298  45.250  0.00  0.00    +0.000 OA
ATOM     38  C   UNL     1      46.376 -45.077  46.181  0.00  0.00    +0.000 C 
BRANCH  38  39
ATOM     39  C   UNL     1      45.738 -46.424  46.215  0.00  0.00    +0.000 C 
ATOM     40  C   UNL     1      46.613 -47.510  45.653  0.00  0.00    +0.000 C 
ATOM     41  C   UNL     1      44.499 -46.680  46.679  0.00  0.00    +0.000 C 
ATOM     42  C   UNL     1      43.473 -45.708  47.172  0.00  0.00    +0.000 C 
ENDBRANCH  38  39
ENDBRANCH  36  38
ENDBRANCH  35  36
ENDBRANCH  11  35
TORSDOF 7
ENDMDL
MODEL 2
REMARK VINA RESULT:      -6.9      1.545      2.177
REMARK  Name = 
REMARK  14 active torsions:
REMARK  status: ('A' for Active; 'I' for Inactive)
REMARK    1  A    between atoms: O_1  and  C_24
REMARK    2  A    between atoms: O_1  and  C_36
REMARK    3  A    between atoms: O_4  and  C_30
REMARK    4  A    between atoms: O_4  and  C_37
REMARK    5  A    between atoms: O_7  and  C_33
REMARK    6  A    between atoms: O_7  and  C_38
REMARK    7  A    between atoms: N_10  and  C_23
REMARK    8  A    between atoms: C_15  and  C_26
REMARK    9  A    between atoms: C_16  and  C_24
REMARK   10  A    between atoms: C_31  and  C_34
REMARK   11  A    between atoms: C_32  and  C_35
REMARK   12  A    between atoms: C_36  and  C_39
REMARK   13  A    between atoms: C_39  and  C_40
REMARK   14  A    between atoms: C_41  and  C_42
REMARK                            x       y       z     vdW  Elec       q    Type
REMARK                         _______ _______ _______ _____ _____    ______ ____
ROOT
ATOM      1  O   UNL     1      45.460 -45.413  52.057  0.00  0.00    +0.000 OA
ATOM      2  O   UNL     1      45.115 -48.562  47.787  0.00  0.00    +0.000 OA
ATOM      3  O   UNL     1      47.026 -41.078  51.348  0.00  0.00    +0.000 OA
ATOM      4  O   UNL     1      50.263 -41.514  47.152  0.00  0.00    +0.000 OA
ATOM      5  N   UNL     1      48.779 -45.132  48.844  0.00  0.00    +0.000 NA
ATOM      6  N   UNL     1      48.926 -47.319  50.800  0.00  0.00    +0.000 NA
ATOM      7  C   UNL     1      48.526 -44.924  50.294  0.00  0.00    +0.000 C 
ATOM      8  C   UNL     1      47.926 -46.226  50.978  0.00  0.00    +0.000 C 
ATOM      9  C   UNL     1      49.055 -47.616  49.350  0.00  0.00    +0.000 C 
ATOM     10  C   UNL     1      49.614 -46.351  48.597  0.00  0.00    +0.000 C 
ATOM     11  C   UNL     1      49.227 -43.937  48.077  0.00  0.00    +0.000 C 
ATOM     12  C   UNL     1      47.614 -43.700  50.522  0.00  0.00    +0.000 C 
ATOM     13  C   UNL     1      47.711 -48.083  48.725  0.00  0.00    +0.000 C 
ATOM     14  C   UNL     1      46.580 -46.602  50.375  0.00  0.00    +0.000 C 
ATOM     15  C   UNL     1      46.489 -47.437  49.329  0.00  0.00    +0.000 C 
ATOM     16  C   UNL     1      48.879 -42.599  48.711  0.00  0.00    +0.000 C 
ATOM     17  C   UNL     1      48.124 -42.484  49.811  0.00  0.00    +0.000 C 
ATOM     18  C   UNL     1      48.664 -48.492  51.628  0.00  0.00    +0.000 C 
ATOM     19  C   UNL     1      45.362 -46.064  51.022  0.00  0.00    +0.000 C 
ATOM     20  C   UNL     1      45.182 -47.791  48.738  0.00  0.00    +0.000 C 
ATOM     21  C   UNL     1      47.762 -41.164  50.371  0.00  0.00    +0.000 C 
ATOM     22  C   UNL     1      49.467 -41.390  48.077  0.00  0.00    +0.000 C 
ATOM     23  C   UNL     1      44.038 -46.343  50.373  0.00  0.00    +0.000 C 
ATOM     24  C   UNL     1      43.962 -47.171  49.319  0.00  0.00    +0.000 C 
ATOM     25  C   UNL     1      48.285 -39.951  49.696  0.00  0.00    +0.000 C 
ATOM     26  C   UNL     1      49.067 -40.046  48.609  0.00  0.00    +0.000 C 
ATOM     27  C   UNL     1      42.678 -47.550  48.640  0.00  0.00    +0.000 C 
ATOM     28  C   UNL     1      47.867 -38.650  50.319  0.00  0.00    +0.000 C 
ENDROOT
BRANCH  23  29
ATOM     29  O   UNL     1      42.865 -45.803  50.887  0.00  0.00    +0.000 OA
ATOM     30  C   UNL     1      42.260 -46.544  51.944  0.00  0.00    +0.000 C 
ENDBRANCH  23  29
BRANCH  26  31
ATOM     31  O   UNL     1      49.552 -38.881  48.024  0.00  0.00    +0.000 OA
ATOM     32  C   UNL     1      48.897 -38.493  46.818  0.00  0.00    +0.000 C 
ENDBRANCH  26  31
BRANCH  10  34
ATOM     33  N   UNL     1      52.182 -46.106  49.216  0.00  0.00    +0.000 NA
ATOM     34  C   UNL     1      51.057 -46.192  48.941  0.00  0.00    +0.000 C 
ENDBRANCH  10  34
BRANCH  11  35
ATOM     35  C   UNL     1      48.596 -44.031  46.655  0.00  0.00    +0.000 C 
BRANCH  35  36
ATOM     36  O   UNL     1      47.162 -43.915  46.765  0.00  0.00    +0.000 OA
BRANCH  36  38
ATOM     37  O   UNL     1      45.848 -43.999  44.891  0.00  0.00    +0.000 OA
ATOM     38  C   UNL     1      46.549 -43.387  45.680  0.00  0.00    +0.000 C 
BRANCH  38  39
ATOM     39  C   UNL     1      46.732 -41.908  45.641  0.00  0.00    +0.000 C 
ATOM     40  C   UNL     1      46.038 -41.194  46.767  0.00  0.00    +0.000 C 
ATOM     41  C   UNL     1      47.429 -41.241  44.700  0.00  0.00    +0.000 C 
ATOM     42  C   UNL     1      48.086 -41.785  43.471  0.00  0.00    +0.000 C 
ENDBRANCH  38  39
ENDBRANCH  36  38
ENDBRANCH  35  36
ENDBRANCH  11  35
TORSDOF 7
ENDMDL
MODEL 3
REMARK VINA RESULT:      -6.8      3.443      8.123
REMARK  Name = 
REMARK  14 active torsions:
REMARK  status: ('A' for Active; 'I' for Inactive)
REMARK    1  A    between atoms: O_1  and  C_24
REMARK    2  A    between atoms: O_1  and  C_36
REMARK    3  A    between atoms: O_4  and  C_30
REMARK    4  A    between atoms: O_4  and  C_37
REMARK    5  A    between atoms: O_7  and  C_33
REMARK    6  A    between atoms: O_7  and  C_38
REMARK    7  A    between atoms: N_10  and  C_23
REMARK    8  A    between atoms: C_15  and  C_26
REMARK    9  A    between atoms: C_16  and  C_24
REMARK   10  A    between atoms: C_31  and  C_34
REMARK   11  A    between atoms: C_32  and  C_35
REMARK   12  A    between atoms: C_36  and  C_39
REMARK   13  A    between atoms: C_39  and  C_40
REMARK   14  A    between atoms: C_41  and  C_42
REMARK                            x       y       z     vdW  Elec       q    Type
REMARK                         _______ _______ _______ _____ _____    ______ ____
ROOT
ATOM      1  O   UNL     1      45.674 -45.830  52.646  0.00  0.00    +0.000 OA
ATOM      2  O   UNL     1      47.936 -45.315  47.863  0.00  0.00    +0.000 OA
ATOM      3  O   UNL     1      46.448 -49.831  54.915  0.00  0.00    +0.000 OA
ATOM      4  O   UNL     1      47.138 -53.424  51.057  0.00  0.00    +0.000 OA
ATOM      5  N   UNL     1      45.841 -49.539  49.883  0.00  0.00    +0.000 NA
ATOM      6  N   UNL     1      43.726 -47.555  49.413  0.00  0.00    +0.000 NA
ATOM      7  C   UNL     1      45.056 -48.932  50.989  0.00  0.00    +0.000 C 
ATOM      8  C   UNL     1      44.579 -47.459  50.632  0.00  0.00    +0.000 C 
ATOM      9  C   UNL     1      44.565 -48.021  48.279  0.00  0.00    +0.000 C 
ATOM     10  C   UNL     1      45.106 -49.470  48.579  0.00  0.00    +0.000 C 
ATOM     11  C   UNL     1      46.443 -50.873  50.158  0.00  0.00    +0.000 C 
ATOM     12  C   UNL     1      45.856 -48.958  52.309  0.00  0.00    +0.000 C 
ATOM     13  C   UNL     1      45.735 -47.046  47.976  0.00  0.00    +0.000 C 
ATOM     14  C   UNL     1      45.764 -46.529  50.410  0.00  0.00    +0.000 C 
ATOM     15  C   UNL     1      46.303 -46.360  49.193  0.00  0.00    +0.000 C 
ATOM     16  C   UNL     1      46.627 -51.203  51.631  0.00  0.00    +0.000 C 
ATOM     17  C   UNL     1      46.385 -50.327  52.613  0.00  0.00    +0.000 C 
ATOM     18  C   UNL     1      42.968 -46.340  49.133  0.00  0.00    +0.000 C 
ATOM     19  C   UNL     1      46.266 -45.764  51.574  0.00  0.00    +0.000 C 
ATOM     20  C   UNL     1      47.460 -45.465  48.982  0.00  0.00    +0.000 C 
ATOM     21  C   UNL     1      46.625 -50.664  54.033  0.00  0.00    +0.000 C 
ATOM     22  C   UNL     1      47.048 -52.591  51.953  0.00  0.00    +0.000 C 
ATOM     23  C   UNL     1      47.496 -44.927  51.387  0.00  0.00    +0.000 C 
ATOM     24  C   UNL     1      48.034 -44.775  50.166  0.00  0.00    +0.000 C 
ATOM     25  C   UNL     1      47.119 -52.026  54.354  0.00  0.00    +0.000 C 
ATOM     26  C   UNL     1      47.340 -52.929  53.385  0.00  0.00    +0.000 C 
ATOM     27  C   UNL     1      49.229 -43.915  49.876  0.00  0.00    +0.000 C 
ATOM     28  C   UNL     1      47.344 -52.290  55.815  0.00  0.00    +0.000 C 
ENDROOT
BRANCH  23  29
ATOM     29  O   UNL     1      48.063 -44.245  52.459  0.00  0.00    +0.000 OA
ATOM     30  C   UNL     1      47.947 -42.825  52.413  0.00  0.00    +0.000 C 
ENDBRANCH  23  29
BRANCH  26  31
ATOM     31  O   UNL     1      47.781 -54.200  53.737  0.00  0.00    +0.000 OA
ATOM     32  C   UNL     1      49.183 -54.415  53.590  0.00  0.00    +0.000 C 
ENDBRANCH  26  31
BRANCH  10  34
ATOM     33  N   UNL     1      43.116 -51.212  48.374  0.00  0.00    +0.000 NA
ATOM     34  C   UNL     1      43.974 -50.434  48.456  0.00  0.00    +0.000 C 
ENDBRANCH  10  34
BRANCH  11  35
ATOM     35  C   UNL     1      47.817 -50.926  49.425  0.00  0.00    +0.000 C 
BRANCH  35  36
ATOM     36  O   UNL     1      48.773 -50.128  50.156  0.00  0.00    +0.000 OA
BRANCH  36  38
ATOM     37  O   UNL     1      48.848 -48.654  48.404  0.00  0.00    +0.000 OA
ATOM     38  C   UNL     1      49.138 -48.977  49.545  0.00  0.00    +0.000 C 
BRANCH  38  39
ATOM     39  C   UNL     1      49.840 -48.075  50.501  0.00  0.00    +0.000 C 
ATOM     40  C   UNL     1      49.350 -48.211  51.915  0.00  0.00    +0.000 C 
ATOM     41  C   UNL     1      50.811 -47.201  50.167  0.00  0.00    +0.000 C 
ATOM     42  C   UNL     1      51.337 -46.874  48.805  0.00  0.00    +0.000 C 
ENDBRANCH  38  39
ENDBRANCH  36  38
ENDBRANCH  35  36
ENDBRANCH  11  35
TORSDOF 7
ENDMDL
MODEL 4
REMARK VINA RESULT:      -6.7      8.321     12.952
REMARK  Name = 
REMARK  14 active torsions:
REMARK  status: ('A' for Active; 'I' for Inactive)
REMARK    1  A    between atoms: O_1  and  C_24
REMARK    2  A    between atoms: O_1  and  C_36
REMARK    3  A    between atoms: O_4  and  C_30
REMARK    4  A    between atoms: O_4  and  C_37
REMARK    5  A    between atoms: O_7  and  C_33
REMARK    6  A    between atoms: O_7  and  C_38
REMARK    7  A    between atoms: N_10  and  C_23
REMARK    8  A    between atoms: C_15  and  C_26
REMARK    9  A    between atoms: C_16  and  C_24
REMARK   10  A    between atoms: C_31  and  C_34
REMARK   11  A    between atoms: C_32  and  C_35
REMARK   12  A    between atoms: C_36  and  C_39
REMARK   13  A    between atoms: C_39  and  C_40
REMARK   14  A    between atoms: C_41  and  C_42
REMARK                            x       y       z     vdW  Elec       q    Type
REMARK                         _______ _______ _______ _____ _____    ______ ____
ROOT
ATOM      1  O   UNL     1      47.389 -52.498  57.211  0.00  0.00    +0.000 OA
ATOM      2  O   UNL     1      50.012 -53.855  52.790  0.00  0.00    +0.000 OA
ATOM      3  O   UNL     1      43.481 -54.865  58.143  0.00  0.00    +0.000 OA
ATOM      4  O   UNL     1      41.624 -56.281  53.366  0.00  0.00    +0.000 OA
ATOM      5  N   UNL     1      44.932 -53.597  53.446  0.00  0.00    +0.000 NA
ATOM      6  N   UNL     1      46.056 -50.889  53.625  0.00  0.00    +0.000 NA
ATOM      7  C   UNL     1      44.874 -52.790  54.693  0.00  0.00    +0.000 C 
ATOM      8  C   UNL     1      46.109 -51.797  54.807  0.00  0.00    +0.000 C 
ATOM      9  C   UNL     1      46.265 -51.695  52.395  0.00  0.00    +0.000 C 
ATOM     10  C   UNL     1      45.091 -52.732  52.233  0.00  0.00    +0.000 C 
ATOM     11  C   UNL     1      43.888 -54.649  53.295  0.00  0.00    +0.000 C 
ATOM     12  C   UNL     1      44.772 -53.702  55.934  0.00  0.00    +0.000 C 
ATOM     13  C   UNL     1      47.643 -52.413  52.391  0.00  0.00    +0.000 C 
ATOM     14  C   UNL     1      47.429 -52.554  54.867  0.00  0.00    +0.000 C 
ATOM     15  C   UNL     1      48.116 -52.852  53.754  0.00  0.00    +0.000 C 
ATOM     16  C   UNL     1      43.249 -55.110  54.595  0.00  0.00    +0.000 C 
ATOM     17  C   UNL     1      43.663 -54.701  55.801  0.00  0.00    +0.000 C 
ATOM     18  C   UNL     1      46.938 -49.731  53.736  0.00  0.00    +0.000 C 
ATOM     19  C   UNL     1      47.964 -52.898  56.204  0.00  0.00    +0.000 C 
ATOM     20  C   UNL     1      49.391 -53.597  53.815  0.00  0.00    +0.000 C 
ATOM     21  C   UNL     1      43.052 -55.211  57.048  0.00  0.00    +0.000 C 
ATOM     22  C   UNL     1      42.079 -56.019  54.475  0.00  0.00    +0.000 C 
ATOM     23  C   UNL     1      49.208 -53.734  56.269  0.00  0.00    +0.000 C 
ATOM     24  C   UNL     1      49.881 -54.036  55.147  0.00  0.00    +0.000 C 
ATOM     25  C   UNL     1      41.932 -56.178  56.933  0.00  0.00    +0.000 C 
ATOM     26  C   UNL     1      41.483 -56.578  55.732  0.00  0.00    +0.000 C 
ATOM     27  C   UNL     1      51.161 -54.819  55.122  0.00  0.00    +0.000 C 
ATOM     28  C   UNL     1      41.370 -56.654  58.242  0.00  0.00    +0.000 C 
ENDROOT
BRANCH  23  29
ATOM     29  O   UNL     1      49.719 -54.155  57.492  0.00  0.00    +0.000 OA
ATOM     30  C   UNL     1      49.048 -55.261  58.089  0.00  0.00    +0.000 C 
ENDBRANCH  23  29
BRANCH  26  31
ATOM     31  O   UNL     1      40.415 -57.468  55.675  0.00  0.00    +0.000 OA
ATOM     32  C   UNL     1      40.780 -58.839  55.532  0.00  0.00    +0.000 C 
ENDBRANCH  26  31
BRANCH  10  34
ATOM     33  N   UNL     1      42.900 -51.436  51.486  0.00  0.00    +0.000 NA
ATOM     34  C   UNL     1      43.857 -51.995  51.833  0.00  0.00    +0.000 C 
ENDBRANCH  10  34
BRANCH  11  35
ATOM     35  C   UNL     1      44.547 -55.859  52.568  0.00  0.00    +0.000 C 
BRANCH  35  36
ATOM     36  O   UNL     1      45.922 -55.975  52.992  0.00  0.00    +0.000 OA
BRANCH  36  38
ATOM     37  O   UNL     1      46.861 -58.035  52.642  0.00  0.00    +0.000 OA
ATOM     38  C   UNL     1      46.301 -57.222  53.359  0.00  0.00    +0.000 C 
BRANCH  38  39
ATOM     39  C   UNL     1      46.065 -57.435  54.815  0.00  0.00    +0.000 C 
ATOM     40  C   UNL     1      46.999 -56.646  55.690  0.00  0.00    +0.000 C 
ATOM     41  C   UNL     1      45.130 -58.256  55.333  0.00  0.00    +0.000 C 
ATOM     42  C   UNL     1      44.200 -59.178  54.609  0.00  0.00    +0.000 C 
ENDBRANCH  38  39
ENDBRANCH  36  38
ENDBRANCH  35  36
ENDBRANCH  11  35
TORSDOF 7
ENDMDL
MODEL 5
REMARK VINA RESULT:      -6.4      2.440      4.877
REMARK  Name = 
REMARK  14 active torsions:
REMARK  status: ('A' for Active; 'I' for Inactive)
REMARK    1  A    between atoms: O_1  and  C_24
REMARK    2  A    between atoms: O_1  and  C_36
REMARK    3  A    between atoms: O_4  and  C_30
REMARK    4  A    between atoms: O_4  and  C_37
REMARK    5  A    between atoms: O_7  and  C_33
REMARK    6  A    between atoms: O_7  and  C_38
REMARK    7  A    between atoms: N_10  and  C_23
REMARK    8  A    between atoms: C_15  and  C_26
REMARK    9  A    between atoms: C_16  and  C_24
REMARK   10  A    between atoms: C_31  and  C_34
REMARK   11  A    between atoms: C_32  and  C_35
REMARK   12  A    between atoms: C_36  and  C_39
REMARK   13  A    between atoms: C_39  and  C_40
REMARK   14  A    between atoms: C_41  and  C_42
REMARK                            x       y       z     vdW  Elec       q    Type
REMARK                         _______ _______ _______ _____ _____    ______ ____
ROOT
ATOM      1  O   UNL     1      45.290 -47.323  47.856  0.00  0.00    +0.000 OA
ATOM      2  O   UNL     1      49.239 -49.303  50.814  0.00  0.00    +0.000 OA
ATOM      3  O   UNL     1      46.308 -43.632  45.194  0.00  0.00    +0.000 OA
ATOM      4  O   UNL     1      50.186 -41.129  47.835  0.00  0.00    +0.000 OA
ATOM      5  N   UNL     1      48.258 -44.367  49.824  0.00  0.00    +0.000 NA
ATOM      6  N   UNL     1      46.089 -45.458  51.477  0.00  0.00    +0.000 NA
ATOM      7  C   UNL     1      46.859 -44.477  49.334  0.00  0.00    +0.000 C 
ATOM      8  C   UNL     1      46.096 -45.697  50.005  0.00  0.00    +0.000 C 
ATOM      9  C   UNL     1      47.488 -45.501  51.973  0.00  0.00    +0.000 C 
ATOM     10  C   UNL     1      48.320 -44.335  51.320  0.00  0.00    +0.000 C 
ATOM     11  C   UNL     1      49.105 -43.331  49.169  0.00  0.00    +0.000 C 
ATOM     12  C   UNL     1      46.822 -44.570  47.794  0.00  0.00    +0.000 C 
ATOM     13  C   UNL     1      48.162 -46.876  51.710  0.00  0.00    +0.000 C 
ATOM     14  C   UNL     1      46.757 -47.025  49.661  0.00  0.00    +0.000 C 
ATOM     15  C   UNL     1      47.719 -47.549  50.435  0.00  0.00    +0.000 C 
ATOM     16  C   UNL     1      48.635 -42.895  47.791  0.00  0.00    +0.000 C 
ATOM     17  C   UNL     1      47.611 -43.471  47.149  0.00  0.00    +0.000 C 
ATOM     18  C   UNL     1      45.171 -46.327  52.206  0.00  0.00    +0.000 C 
ATOM     19  C   UNL     1      46.259 -47.754  48.472  0.00  0.00    +0.000 C 
ATOM     20  C   UNL     1      48.367 -48.832  50.092  0.00  0.00    +0.000 C 
ATOM     21  C   UNL     1      47.213 -43.056  45.786  0.00  0.00    +0.000 C 
ATOM     22  C   UNL     1      49.340 -41.735  47.184  0.00  0.00    +0.000 C 
ATOM     23  C   UNL     1      46.974 -49.008  48.066  0.00  0.00    +0.000 C 
ATOM     24  C   UNL     1      47.944 -49.517  48.843  0.00  0.00    +0.000 C 
ATOM     25  C   UNL     1      47.965 -41.948  45.146  0.00  0.00    +0.000 C 
ATOM     26  C   UNL     1      48.976 -41.337  45.785  0.00  0.00    +0.000 C 
ATOM     27  C   UNL     1      48.675 -50.794  48.545  0.00  0.00    +0.000 C 
ATOM     28  C   UNL     1      47.507 -41.589  43.762  0.00  0.00    +0.000 C 
ENDROOT
BRANCH  23  29
ATOM     29  O   UNL     1      46.605 -49.698  46.916  0.00  0.00    +0.000 OA
ATOM     30  C   UNL     1      47.281 -49.308  45.723  0.00  0.00    +0.000 C 
ENDBRANCH  23  29
BRANCH  26  31
ATOM     31  O   UNL     1      49.636 -40.288  45.153  0.00  0.00    +0.000 OA
ATOM     32  C   UNL     1      49.202 -38.984  45.537  0.00  0.00    +0.000 C 
ENDBRANCH  26  31
BRANCH  10  34
ATOM     33  N   UNL     1      47.561 -42.020  52.371  0.00  0.00    +0.000 NA
ATOM     34  C   UNL     1      47.887 -43.043  51.929  0.00  0.00    +0.000 C 
ENDBRANCH  10  34
BRANCH  11  35
ATOM     35  C   UNL     1      50.553 -43.899  49.081  0.00  0.00    +0.000 C 
BRANCH  35  36
ATOM     36  O   UNL     1      50.532 -45.139  48.344  0.00  0.00    +0.000 OA
BRANCH  36  38
ATOM     37  O   UNL     1      51.263 -46.437  50.084  0.00  0.00    +0.000 OA
ATOM     38  C   UNL     1      51.248 -46.144  48.899  0.00  0.00    +0.000 C 
BRANCH  38  39
ATOM     39  C   UNL     1      51.927 -46.950  47.845  0.00  0.00    +0.000 C 
ATOM     40  C   UNL     1      50.998 -47.882  47.119  0.00  0.00    +0.000 C 
ATOM     41  C   UNL     1      53.242 -46.889  47.553  0.00  0.00    +0.000 C 
ATOM     42  C   UNL     1      54.309 -46.098  48.241  0.00  0.00    +0.000 C 
ENDBRANCH  38  39
ENDBRANCH  36  38
ENDBRANCH  35  36
ENDBRANCH  11  35
TORSDOF 7
ENDMDL
MODEL 6
REMARK VINA RESULT:      -6.3      2.788      6.089
REMARK  Name = 
REMARK  14 active torsions:
REMARK  status: ('A' for Active; 'I' for Inactive)
REMARK    1  A    between atoms: O_1  and  C_24
REMARK    2  A    between atoms: O_1  and  C_36
REMARK    3  A    between atoms: O_4  and  C_30
REMARK    4  A    between atoms: O_4  and  C_37
REMARK    5  A    between atoms: O_7  and  C_33
REMARK    6  A    between atoms: O_7  and  C_38
REMARK    7  A    between atoms: N_10  and  C_23
REMARK    8  A    between atoms: C_15  and  C_26
REMARK    9  A    between atoms: C_16  and  C_24
REMARK   10  A    between atoms: C_31  and  C_34
REMARK   11  A    between atoms: C_32  and  C_35
REMARK   12  A    between atoms: C_36  and  C_39
REMARK   13  A    between atoms: C_39  and  C_40
REMARK   14  A    between atoms: C_41  and  C_42
REMARK                            x       y       z     vdW  Elec       q    Type
REMARK                         _______ _______ _______ _____ _____    ______ ____
ROOT
ATOM      1  O   UNL     1      45.822 -49.824  46.801  0.00  0.00    +0.000 OA
ATOM      2  O   UNL     1      45.299 -52.396  51.425  0.00  0.00    +0.000 OA
ATOM      3  O   UNL     1      47.959 -45.682  46.932  0.00  0.00    +0.000 OA
ATOM      4  O   UNL     1      46.889 -43.798  51.787  0.00  0.00    +0.000 OA
ATOM      5  N   UNL     1      44.866 -47.353  50.594  0.00  0.00    +0.000 NA
ATOM      6  N   UNL     1      42.652 -48.735  49.248  0.00  0.00    +0.000 NA
ATOM      7  C   UNL     1      44.703 -47.349  49.117  0.00  0.00    +0.000 C 
ATOM      8  C   UNL     1      43.994 -48.673  48.601  0.00  0.00    +0.000 C 
ATOM      9  C   UNL     1      42.835 -48.890  50.713  0.00  0.00    +0.000 C 
ATOM     10  C   UNL     1      43.569 -47.623  51.294  0.00  0.00    +0.000 C 
ATOM     11  C   UNL     1      45.630 -46.214  51.175  0.00  0.00    +0.000 C 
ATOM     12  C   UNL     1      46.061 -47.130  48.416  0.00  0.00    +0.000 C 
ATOM     13  C   UNL     1      43.607 -50.190  51.074  0.00  0.00    +0.000 C 
ATOM     14  C   UNL     1      44.822 -49.909  48.920  0.00  0.00    +0.000 C 
ATOM     15  C   UNL     1      44.655 -50.588  50.065  0.00  0.00    +0.000 C 
ATOM     16  C   UNL     1      46.561 -45.504  50.205  0.00  0.00    +0.000 C 
ATOM     17  C   UNL     1      46.780 -45.931  48.955  0.00  0.00    +0.000 C 
ATOM     18  C   UNL     1      41.760 -49.725  48.651  0.00  0.00    +0.000 C 
ATOM     19  C   UNL     1      45.781 -50.379  47.894  0.00  0.00    +0.000 C 
ATOM     20  C   UNL     1      45.469 -51.781  50.378  0.00  0.00    +0.000 C 
ATOM     21  C   UNL     1      47.732 -45.245  48.054  0.00  0.00    +0.000 C 
ATOM     22  C   UNL     1      47.199 -44.253  50.691  0.00  0.00    +0.000 C 
ATOM     23  C   UNL     1      46.675 -51.532  48.242  0.00  0.00    +0.000 C 
ATOM     24  C   UNL     1      46.505 -52.196  49.397  0.00  0.00    +0.000 C 
ATOM     25  C   UNL     1      48.429 -44.038  48.563  0.00  0.00    +0.000 C 
ATOM     26  C   UNL     1      48.201 -43.577  49.803  0.00  0.00    +0.000 C 
ATOM     27  C   UNL     1      47.315 -53.393  49.803  0.00  0.00    +0.000 C 
ATOM     28  C   UNL     1      49.384 -43.403  47.593  0.00  0.00    +0.000 C 
ENDROOT
BRANCH  23  29
ATOM     29  O   UNL     1      47.648 -51.973  47.352  0.00  0.00    +0.000 OA
ATOM     30  C   UNL     1      48.833 -51.182  47.298  0.00  0.00    +0.000 C 
ENDBRANCH  23  29
BRANCH  26  31
ATOM     31  O   UNL     1      48.861 -42.428  50.227  0.00  0.00    +0.000 OA
ATOM     32  C   UNL     1      48.110 -41.222  50.104  0.00  0.00    +0.000 C 
ENDBRANCH  26  31
BRANCH  10  34
ATOM     33  N   UNL     1      41.878 -45.579  51.249  0.00  0.00    +0.000 NA
ATOM     34  C   UNL     1      42.613 -46.477  51.289  0.00  0.00    +0.000 C 
ENDBRANCH  10  34
BRANCH  11  35
ATOM     35  C   UNL     1      46.443 -46.765  52.385  0.00  0.00    +0.000 C 
BRANCH  35  36
ATOM     36  O   UNL     1      47.127 -47.971  51.985  0.00  0.00    +0.000 OA
BRANCH  36  38
ATOM     37  O   UNL     1      49.178 -46.982  52.233  0.00  0.00    +0.000 OA
ATOM     38  C   UNL     1      48.447 -47.818  51.727  0.00  0.00    +0.000 C 
BRANCH  38  39
ATOM     39  C   UNL     1      48.938 -48.905  50.833  0.00  0.00    +0.000 C 
ATOM     40  C   UNL     1      49.416 -48.405  49.498  0.00  0.00    +0.000 C 
ATOM     41  C   UNL     1      48.952 -50.216  51.147  0.00  0.00    +0.000 C 
ATOM     42  C   UNL     1      48.424 -50.881  52.378  0.00  0.00    +0.000 C 
ENDBRANCH  38  39
ENDBRANCH  36  38
ENDBRANCH  35  36
ENDBRANCH  11  35
TORSDOF 7
ENDMDL
MODEL 7
REMARK VINA RESULT:      -6.0     16.345     19.544
REMARK  Name = 
REMARK  14 active torsions:
REMARK  status: ('A' for Active; 'I' for Inactive)
REMARK    1  A    between atoms: O_1  and  C_24
REMARK    2  A    between atoms: O_1  and  C_36
REMARK    3  A    between atoms: O_4  and  C_30
REMARK    4  A    between atoms: O_4  and  C_37
REMARK    5  A    between atoms: O_7  and  C_33
REMARK    6  A    between atoms: O_7  and  C_38
REMARK    7  A    between atoms: N_10  and  C_23
REMARK    8  A    between atoms: C_15  and  C_26
REMARK    9  A    between atoms: C_16  and  C_24
REMARK   10  A    between atoms: C_31  and  C_34
REMARK   11  A    between atoms: C_32  and  C_35
REMARK   12  A    between atoms: C_36  and  C_39
REMARK   13  A    between atoms: C_39  and  C_40
REMARK   14  A    between atoms: C_41  and  C_42
REMARK                            x       y       z     vdW  Elec       q    Type
REMARK                         _______ _______ _______ _____ _____    ______ ____
ROOT
ATOM      1  O   UNL     1      63.231 -46.469  61.419  0.00  0.00    +0.000 OA
ATOM      2  O   UNL     1      58.609 -48.590  62.971  0.00  0.00    +0.000 OA
ATOM      3  O   UNL     1      65.218 -48.312  57.624  0.00  0.00    +0.000 OA
ATOM      4  O   UNL     1      63.614 -53.381  57.624  0.00  0.00    +0.000 OA
ATOM      5  N   UNL     1      62.688 -51.051  61.069  0.00  0.00    +0.000 NA
ATOM      6  N   UNL     1      63.385 -49.935  63.695  0.00  0.00    +0.000 NA
ATOM      7  C   UNL     1      63.725 -50.000  61.239  0.00  0.00    +0.000 C 
ATOM      8  C   UNL     1      63.413 -49.065  62.485  0.00  0.00    +0.000 C 
ATOM      9  C   UNL     1      62.248 -50.883  63.575  0.00  0.00    +0.000 C 
ATOM     10  C   UNL     1      62.471 -51.826  62.333  0.00  0.00    +0.000 C 
ATOM     11  C   UNL     1      62.814 -51.910  59.858  0.00  0.00    +0.000 C 
ATOM     12  C   UNL     1      63.889 -49.175  59.945  0.00  0.00    +0.000 C 
ATOM     13  C   UNL     1      60.882 -50.150  63.475  0.00  0.00    +0.000 C 
ATOM     14  C   UNL     1      62.097 -48.320  62.306  0.00  0.00    +0.000 C 
ATOM     15  C   UNL     1      60.938 -48.833  62.743  0.00  0.00    +0.000 C 
ATOM     16  C   UNL     1      63.627 -51.305  58.725  0.00  0.00    +0.000 C 
ATOM     17  C   UNL     1      64.098 -50.052  58.748  0.00  0.00    +0.000 C 
ATOM     18  C   UNL     1      63.412 -49.192  64.951  0.00  0.00    +0.000 C 
ATOM     19  C   UNL     1      62.146 -46.976  61.688  0.00  0.00    +0.000 C 
ATOM     20  C   UNL     1      59.660 -48.113  62.558  0.00  0.00    +0.000 C 
ATOM     21  C   UNL     1      64.841 -49.478  57.605  0.00  0.00    +0.000 C 
ATOM     22  C   UNL     1      63.934 -52.198  57.577  0.00  0.00    +0.000 C 
ATOM     23  C   UNL     1      60.846 -46.280  61.412  0.00  0.00    +0.000 C 
ATOM     24  C   UNL     1      59.690 -46.810  61.844  0.00  0.00    +0.000 C 
ATOM     25  C   UNL     1      65.084 -50.344  56.424  0.00  0.00    +0.000 C 
ATOM     26  C   UNL     1      64.645 -51.612  56.393  0.00  0.00    +0.000 C 
ATOM     27  C   UNL     1      58.349 -46.159  61.663  0.00  0.00    +0.000 C 
ATOM     28  C   UNL     1      65.837 -49.688  55.303  0.00  0.00    +0.000 C 
ENDROOT
BRANCH  23  29
ATOM     29  O   UNL     1      60.819 -45.050  60.764  0.00  0.00    +0.000 OA
ATOM     30  C   UNL     1      60.784 -45.108  59.340  0.00  0.00    +0.000 C 
ENDBRANCH  23  29
BRANCH  26  31
ATOM     31  O   UNL     1      64.917 -52.392  55.274  0.00  0.00    +0.000 OA
ATOM     32  C   UNL     1      66.077 -53.215  55.380  0.00  0.00    +0.000 C 
ENDBRANCH  26  31
BRANCH  10  34
ATOM     33  N   UNL     1      64.394 -53.546  62.951  0.00  0.00    +0.000 NA
ATOM     34  C   UNL     1      63.559 -52.793  62.660  0.00  0.00    +0.000 C 
ENDBRANCH  10  34
BRANCH  11  35
ATOM     35  C   UNL     1      61.373 -52.236  59.364  0.00  0.00    +0.000 C 
BRANCH  35  36
ATOM     36  O   UNL     1      60.919 -51.176  58.497  0.00  0.00    +0.000 OA
BRANCH  36  38
ATOM     37  O   UNL     1      58.941 -51.954  57.645  0.00  0.00    +0.000 OA
ATOM     38  C   UNL     1      59.582 -51.142  58.292  0.00  0.00    +0.000 C 
BRANCH  38  39
ATOM     39  C   UNL     1      58.957 -50.043  59.082  0.00  0.00    +0.000 C 
ATOM     40  C   UNL     1      59.533 -48.689  58.774  0.00  0.00    +0.000 C 
ATOM     41  C   UNL     1      57.983 -50.209  59.998  0.00  0.00    +0.000 C 
ATOM     42  C   UNL     1      57.378 -51.486  60.490  0.00  0.00    +0.000 C 
ENDBRANCH  38  39
ENDBRANCH  36  38
ENDBRANCH  35  36
ENDBRANCH  11  35
TORSDOF 7
ENDMDL
MODEL 8
REMARK VINA RESULT:      -6.0      2.382      6.752
REMARK  Name = 
REMARK  14 active torsions:
REMARK  status: ('A' for Active; 'I' for Inactive)
REMARK    1  A    between atoms: O_1  and  C_24
REMARK    2  A    between atoms: O_1  and  C_36
REMARK    3  A    between atoms: O_4  and  C_30
REMARK    4  A    between atoms: O_4  and  C_37
REMARK    5  A    between atoms: O_7  and  C_33
REMARK    6  A    between atoms: O_7  and  C_38
REMARK    7  A    between atoms: N_10  and  C_23
REMARK    8  A    between atoms: C_15  and  C_26
REMARK    9  A    between atoms: C_16  and  C_24
REMARK   10  A    between atoms: C_31  and  C_34
REMARK   11  A    between atoms: C_32  and  C_35
REMARK   12  A    between atoms: C_36  and  C_39
REMARK   13  A    between atoms: C_39  and  C_40
REMARK   14  A    between atoms: C_41  and  C_42
REMARK                            x       y       z     vdW  Elec       q    Type
REMARK                         _______ _______ _______ _____ _____    ______ ____
ROOT
ATOM      1  O   UNL     1      46.993 -46.802  45.108  0.00  0.00    +0.000 OA
ATOM      2  O   UNL     1      47.592 -41.822  46.872  0.00  0.00    +0.000 OA
ATOM      3  O   UNL     1      46.748 -50.158  48.337  0.00  0.00    +0.000 OA
ATOM      4  O   UNL     1      49.631 -48.295  52.398  0.00  0.00    +0.000 OA
ATOM      5  N   UNL     1      49.742 -46.079  48.760  0.00  0.00    +0.000 NA
ATOM      6  N   UNL     1      50.833 -45.566  46.082  0.00  0.00    +0.000 NA
ATOM      7  C   UNL     1      49.523 -47.006  47.619  0.00  0.00    +0.000 C 
ATOM      8  C   UNL     1      49.508 -46.233  46.231  0.00  0.00    +0.000 C 
ATOM      9  C   UNL     1      50.971 -44.538  47.144  0.00  0.00    +0.000 C 
ATOM     10  C   UNL     1      50.959 -45.229  48.559  0.00  0.00    +0.000 C 
ATOM     11  C   UNL     1      49.653 -46.679  50.121  0.00  0.00    +0.000 C 
ATOM     12  C   UNL     1      48.232 -47.827  47.818  0.00  0.00    +0.000 C 
ATOM     13  C   UNL     1      49.868 -43.447  47.052  0.00  0.00    +0.000 C 
ATOM     14  C   UNL     1      48.369 -45.225  46.167  0.00  0.00    +0.000 C 
ATOM     15  C   UNL     1      48.534 -43.955  46.565  0.00  0.00    +0.000 C 
ATOM     16  C   UNL     1      48.865 -47.978  50.199  0.00  0.00    +0.000 C 
ATOM     17  C   UNL     1      48.196 -48.492  49.160  0.00  0.00    +0.000 C 
ATOM     18  C   UNL     1      51.090 -45.070  44.733  0.00  0.00    +0.000 C 
ATOM     19  C   UNL     1      47.082 -45.677  45.590  0.00  0.00    +0.000 C 
ATOM     20  C   UNL     1      47.423 -42.982  46.512  0.00  0.00    +0.000 C 
ATOM     21  C   UNL     1      47.397 -49.731  49.286  0.00  0.00    +0.000 C 
ATOM     22  C   UNL     1      48.908 -48.704  51.495  0.00  0.00    +0.000 C 
ATOM     23  C   UNL     1      45.924 -44.724  45.619  0.00  0.00    +0.000 C 
ATOM     24  C   UNL     1      46.100 -43.458  46.031  0.00  0.00    +0.000 C 
ATOM     25  C   UNL     1      47.376 -50.419  50.601  0.00  0.00    +0.000 C 
ATOM     26  C   UNL     1      48.064 -49.934  51.647  0.00  0.00    +0.000 C 
ATOM     27  C   UNL     1      45.015 -42.421  46.044  0.00  0.00    +0.000 C 
ATOM     28  C   UNL     1      46.538 -51.663  50.650  0.00  0.00    +0.000 C 
ENDROOT
BRANCH  23  29
ATOM     29  O   UNL     1      44.670 -45.112  45.164  0.00  0.00    +0.000 OA
ATOM     30  C   UNL     1      43.835 -45.746  46.130  0.00  0.00    +0.000 C 
ENDBRANCH  23  29
BRANCH  26  31
ATOM     31  O   UNL     1      48.032 -50.627  52.853  0.00  0.00    +0.000 OA
ATOM     32  C   UNL     1      47.117 -50.114  53.819  0.00  0.00    +0.000 C 
ENDBRANCH  26  31
BRANCH  10  34
ATOM     33  N   UNL     1      53.277 -46.473  48.902  0.00  0.00    +0.000 NA
ATOM     34  C   UNL     1      52.253 -45.948  48.748  0.00  0.00    +0.000 C 
ENDBRANCH  10  34
BRANCH  11  35
ATOM     35  C   UNL     1      49.014 -45.613  51.060  0.00  0.00    +0.000 C 
BRANCH  35  36
ATOM     36  O   UNL     1      48.019 -44.870  50.326  0.00  0.00    +0.000 OA
BRANCH  36  38
ATOM     37  O   UNL     1      46.517 -43.691  51.592  0.00  0.00    +0.000 OA
ATOM     38  C   UNL     1      46.846 -44.693  50.977  0.00  0.00    +0.000 C 
BRANCH  38  39
ATOM     39  C   UNL     1      45.931 -45.845  50.734  0.00  0.00    +0.000 C 
ATOM     40  C   UNL     1      45.445 -45.928  49.314  0.00  0.00    +0.000 C 
ATOM     41  C   UNL     1      45.544 -46.734  51.670  0.00  0.00    +0.000 C 
ATOM     42  C   UNL     1      45.852 -46.734  53.134  0.00  0.00    +0.000 C 
ENDBRANCH  38  39
ENDBRANCH  36  38
ENDBRANCH  35  36
ENDBRANCH  11  35
TORSDOF 7
ENDMDL
MODEL 9
REMARK VINA RESULT:      -5.9      2.216      7.128
REMARK  Name = 
REMARK  14 active torsions:
REMARK  status: ('A' for Active; 'I' for Inactive)
REMARK    1  A    between atoms: O_1  and  C_24
REMARK    2  A    between atoms: O_1  and  C_36
REMARK    3  A    between atoms: O_4  and  C_30
REMARK    4  A    between atoms: O_4  and  C_37
REMARK    5  A    between atoms: O_7  and  C_33
REMARK    6  A    between atoms: O_7  and  C_38
REMARK    7  A    between atoms: N_10  and  C_23
REMARK    8  A    between atoms: C_15  and  C_26
REMARK    9  A    between atoms: C_16  and  C_24
REMARK   10  A    between atoms: C_31  and  C_34
REMARK   11  A    between atoms: C_32  and  C_35
REMARK   12  A    between atoms: C_36  and  C_39
REMARK   13  A    between atoms: C_39  and  C_40
REMARK   14  A    between atoms: C_41  and  C_42
REMARK                            x       y       z     vdW  Elec       q    Type
REMARK                         _______ _______ _______ _____ _____    ______ ____
ROOT
ATOM      1  O   UNL     1      48.631 -44.745  47.770  0.00  0.00    +0.000 OA
ATOM      2  O   UNL     1      47.936 -43.855  52.965  0.00  0.00    +0.000 OA
ATOM      3  O   UNL     1      45.120 -46.818  45.506  0.00  0.00    +0.000 OA
ATOM      4  O   UNL     1      42.758 -49.824  49.202  0.00  0.00    +0.000 OA
ATOM      5  N   UNL     1      46.435 -47.957  50.275  0.00  0.00    +0.000 NA
ATOM      6  N   UNL     1      49.370 -47.897  50.367  0.00  0.00    +0.000 NA
ATOM      7  C   UNL     1      47.268 -47.784  49.057  0.00  0.00    +0.000 C 
ATOM      8  C   UNL     1      48.638 -47.050  49.382  0.00  0.00    +0.000 C 
ATOM      9  C   UNL     1      48.594 -47.936  51.632  0.00  0.00    +0.000 C 
ATOM     10  C   UNL     1      47.199 -48.623  51.379  0.00  0.00    +0.000 C 
ATOM     11  C   UNL     1      45.074 -48.525  50.067  0.00  0.00    +0.000 C 
ATOM     12  C   UNL     1      46.481 -47.042  47.955  0.00  0.00    +0.000 C 
ATOM     13  C   UNL     1      48.410 -46.523  52.252  0.00  0.00    +0.000 C 
ATOM     14  C   UNL     1      48.404 -45.646  49.923  0.00  0.00    +0.000 C 
ATOM     15  C   UNL     1      48.279 -45.414  51.238  0.00  0.00    +0.000 C 
ATOM     16  C   UNL     1      44.523 -48.370  48.658  0.00  0.00    +0.000 C 
ATOM     17  C   UNL     1      45.148 -47.676  47.699  0.00  0.00    +0.000 C 
ATOM     18  C   UNL     1      50.770 -47.519  50.537  0.00  0.00    +0.000 C 
ATOM     19  C   UNL     1      48.380 -44.529  48.951  0.00  0.00    +0.000 C 
ATOM     20  C   UNL     1      48.039 -44.053  51.759  0.00  0.00    +0.000 C 
ATOM     21  C   UNL     1      44.558 -47.502  46.354  0.00  0.00    +0.000 C 
ATOM     22  C   UNL     1      43.253 -49.083  48.359  0.00  0.00    +0.000 C 
ATOM     23  C   UNL     1      48.045 -43.159  49.462  0.00  0.00    +0.000 C 
ATOM     24  C   UNL     1      47.911 -42.942  50.780  0.00  0.00    +0.000 C 
ATOM     25  C   UNL     1      43.252 -48.149  46.075  0.00  0.00    +0.000 C 
ATOM     26  C   UNL     1      42.623 -48.874  47.014  0.00  0.00    +0.000 C 
ATOM     27  C   UNL     1      47.631 -41.597  51.385  0.00  0.00    +0.000 C 
ATOM     28  C   UNL     1      42.716 -47.921  44.691  0.00  0.00    +0.000 C 
ENDROOT
BRANCH  23  29
ATOM     29  O   UNL     1      47.932 -42.082  48.590  0.00  0.00    +0.000 OA
ATOM     30  C   UNL     1      49.161 -41.468  48.210  0.00  0.00    +0.000 C 
ENDBRANCH  23  29
BRANCH  26  31
ATOM     31  O   UNL     1      41.412 -49.481  46.698  0.00  0.00    +0.000 OA
ATOM     32  C   UNL     1      41.511 -50.842  46.281  0.00  0.00    +0.000 C 
ENDBRANCH  26  31
BRANCH  10  34
ATOM     33  N   UNL     1      47.623 -51.216  51.015  0.00  0.00    +0.000 NA
ATOM     34  C   UNL     1      47.419 -50.086  51.184  0.00  0.00    +0.000 C 
ENDBRANCH  10  34
BRANCH  11  35
ATOM     35  C   UNL     1      44.120 -47.837  51.089  0.00  0.00    +0.000 C 
BRANCH  35  36
ATOM     36  O   UNL     1      43.644 -46.594  50.531  0.00  0.00    +0.000 OA
BRANCH  36  38
ATOM     37  O   UNL     1      42.311 -45.359  51.925  0.00  0.00    +0.000 OA
ATOM     38  C   UNL     1      42.458 -46.167  51.022  0.00  0.00    +0.000 C 
BRANCH  38  39
ATOM     39  C   UNL     1      41.328 -46.715  50.218  0.00  0.00    +0.000 C 
ATOM     40  C   UNL     1      41.221 -46.102  48.850  0.00  0.00    +0.000 C 
ATOM     41  C   UNL     1      40.461 -47.654  50.646  0.00  0.00    +0.000 C 
ATOM     42  C   UNL     1      40.368 -48.284  52.000  0.00  0.00    +0.000 C 
ENDBRANCH  38  39
ENDBRANCH  36  38
ENDBRANCH  35  36
ENDBRANCH  11  35
TORSDOF 7
ENDMDL
