MODEL 1
REMARK VINA RESULT:      -6.1      0.000      0.000
REMARK  Name = Resveratrol.pdbqt.pdb
REMARK  5 active torsions:
REMARK  status: ('A' for Active; 'I' for Inactive)
REMARK    1  A    between atoms: C_1  and  C_11
REMARK    2  A    between atoms: C_4  and  O_7
REMARK    3  A    between atoms: C_5  and  O_9
REMARK    4  A    between atoms: C_12  and  C_13
REMARK    5  A    between atoms: C_18  and  O_19
REMARK                            x       y       z     vdW  Elec       q    Type
REMARK                         _______ _______ _______ _____ _____    ______ ____
ROOT
ATOM      1  C   UNL     1      48.714 -39.355  50.148  0.00  0.00    +0.000 A 
ATOM      2  C   UNL     1      47.844 -38.426  50.718  0.00  0.00    +0.000 A 
ATOM      3  C   UNL     1      49.691 -38.938  49.245  0.00  0.00    +0.000 A 
ATOM      4  C   UNL     1      49.792 -37.588  48.918  0.00  0.00    +0.000 A 
ATOM      5  C   UNL     1      47.960 -37.082  50.377  0.00  0.00    +0.000 A 
ATOM      6  C   UNL     1      48.931 -36.651  49.479  0.00  0.00    +0.000 A 
ENDROOT
BRANCH   4   7
ATOM      7  O   UNL     1      50.739 -37.153  48.038  0.00  0.00    +0.000 OA
ATOM      8  H   UNL     1      50.915 -36.213  48.222  0.00  0.00    +0.000 HD
ENDBRANCH   4   7
BRANCH   5   9
ATOM      9  O   UNL     1      47.098 -36.191  50.948  0.00  0.00    +0.000 OA
ATOM     10  H   UNL     1      46.449 -36.694  51.473  0.00  0.00    +0.000 HD
ENDBRANCH   5   9
BRANCH   1  11
ATOM     11  C   UNL     1      48.604 -40.735  50.487  0.00  0.00    +0.000 C 
ATOM     12  C   UNL     1      48.511 -41.898  50.774  0.00  0.00    +0.000 C 
BRANCH  12  13
ATOM     13  C   UNL     1      48.401 -43.279  51.113  0.00  0.00    +0.000 A 
ATOM     14  C   UNL     1      48.826 -44.253  50.210  0.00  0.00    +0.000 A 
ATOM     15  C   UNL     1      47.867 -43.652  52.347  0.00  0.00    +0.000 A 
ATOM     16  C   UNL     1      48.720 -45.601  50.539  0.00  0.00    +0.000 A 
ATOM     17  C   UNL     1      47.758 -44.999  52.679  0.00  0.00    +0.000 A 
ATOM     18  C   UNL     1      48.185 -45.964  51.772  0.00  0.00    +0.000 A 
BRANCH  18  19
ATOM     19  O   UNL     1      48.069 -47.278  52.121  0.00  0.00    +0.000 OA
ATOM     20  H   UNL     1      48.660 -47.447  52.875  0.00  0.00    +0.000 HD
ENDBRANCH  18  19
ENDBRANCH  12  13
ENDBRANCH   1  11
TORSDOF 5
ENDMDL
MODEL 2
REMARK VINA RESULT:      -6.0      0.189      2.331
REMARK  Name = Resveratrol.pdbqt.pdb
REMARK  5 active torsions:
REMARK  status: ('A' for Active; 'I' for Inactive)
REMARK    1  A    between atoms: C_1  and  C_11
REMARK    2  A    between atoms: C_4  and  O_7
REMARK    3  A    between atoms: C_5  and  O_9
REMARK    4  A    between atoms: C_12  and  C_13
REMARK    5  A    between atoms: C_18  and  O_19
REMARK                            x       y       z     vdW  Elec       q    Type
REMARK                         _______ _______ _______ _____ _____    ______ ____
ROOT
ATOM      1  C   UNL     1      48.615 -39.216  50.148  0.00  0.00    +0.000 A 
ATOM      2  C   UNL     1      49.520 -38.779  49.182  0.00  0.00    +0.000 A 
ATOM      3  C   UNL     1      47.780 -38.303  50.791  0.00  0.00    +0.000 A 
ATOM      4  C   UNL     1      47.856 -36.953  50.459  0.00  0.00    +0.000 A 
ATOM      5  C   UNL     1      49.582 -37.426  48.865  0.00  0.00    +0.000 A 
ATOM      6  C   UNL     1      48.754 -36.503  49.496  0.00  0.00    +0.000 A 
ENDROOT
BRANCH   4   7
ATOM      7  O   UNL     1      47.050 -36.038  51.071  0.00  0.00    +0.000 OA
ATOM      8  H   UNL     1      46.278 -35.883  50.498  0.00  0.00    +0.000 HD
ENDBRANCH   4   7
BRANCH   5   9
ATOM      9  O   UNL     1      50.475 -37.021  47.915  0.00  0.00    +0.000 OA
ATOM     10  H   UNL     1      50.046 -36.337  47.371  0.00  0.00    +0.000 HD
ENDBRANCH   5   9
BRANCH   1  11
ATOM     11  C   UNL     1      48.543 -40.600  50.483  0.00  0.00    +0.000 C 
ATOM     12  C   UNL     1      48.482 -41.767  50.765  0.00  0.00    +0.000 C 
BRANCH  12  13
ATOM     13  C   UNL     1      48.410 -43.151  51.098  0.00  0.00    +0.000 A 
ATOM     14  C   UNL     1      47.907 -43.542  52.339  0.00  0.00    +0.000 A 
ATOM     15  C   UNL     1      48.844 -44.111  50.184  0.00  0.00    +0.000 A 
ATOM     16  C   UNL     1      47.835 -44.893  52.667  0.00  0.00    +0.000 A 
ATOM     17  C   UNL     1      48.775 -45.463  50.509  0.00  0.00    +0.000 A 
ATOM     18  C   UNL     1      48.271 -45.843  51.748  0.00  0.00    +0.000 A 
BRANCH  18  19
ATOM     19  O   UNL     1      48.213 -47.174  52.043  0.00  0.00    +0.000 OA
ATOM     20  H   UNL     1      49.038 -47.423  52.496  0.00  0.00    +0.000 HD
ENDBRANCH  18  19
ENDBRANCH  12  13
ENDBRANCH   1  11
TORSDOF 5
ENDMDL
MODEL 3
REMARK VINA RESULT:      -5.9      5.674      7.221
REMARK  Name = Resveratrol.pdbqt.pdb
REMARK  5 active torsions:
REMARK  status: ('A' for Active; 'I' for Inactive)
REMARK    1  A    between atoms: C_1  and  C_11
REMARK    2  A    between atoms: C_4  and  O_7
REMARK    3  A    between atoms: C_5  and  O_9
REMARK    4  A    between atoms: C_12  and  C_13
REMARK    5  A    between atoms: C_18  and  O_19
REMARK                            x       y       z     vdW  Elec       q    Type
REMARK                         _______ _______ _______ _____ _____    ______ ____
ROOT
ATOM      1  C   UNL     1      49.386 -37.685  46.828  0.00  0.00    +0.000 A 
ATOM      2  C   UNL     1      49.288 -36.792  45.762  0.00  0.00    +0.000 A 
ATOM      3  C   UNL     1      49.792 -39.001  46.607  0.00  0.00    +0.000 A 
ATOM      4  C   UNL     1      50.098 -39.414  45.313  0.00  0.00    +0.000 A 
ATOM      5  C   UNL     1      49.599 -37.225  44.477  0.00  0.00    +0.000 A 
ATOM      6  C   UNL     1      50.006 -38.534  44.240  0.00  0.00    +0.000 A 
ENDROOT
BRANCH   4   7
ATOM      7  O   UNL     1      50.499 -40.696  45.067  0.00  0.00    +0.000 OA
ATOM      8  H   UNL     1      51.342 -40.845  45.531  0.00  0.00    +0.000 HD
ENDBRANCH   4   7
BRANCH   5   9
ATOM      9  O   UNL     1      49.496 -36.333  43.448  0.00  0.00    +0.000 OA
ATOM     10  H   UNL     1      48.769 -35.720  43.654  0.00  0.00    +0.000 HD
ENDBRANCH   5   9
BRANCH   1  11
ATOM     11  C   UNL     1      49.070 -37.253  48.150  0.00  0.00    +0.000 C 
ATOM     12  C   UNL     1      48.804 -36.890  49.264  0.00  0.00    +0.000 C 
BRANCH  12  13
ATOM     13  C   UNL     1      48.487 -36.457  50.585  0.00  0.00    +0.000 A 
ATOM     14  C   UNL     1      47.189 -36.048  50.891  0.00  0.00    +0.000 A 
ATOM     15  C   UNL     1      49.476 -36.444  51.568  0.00  0.00    +0.000 A 
ATOM     16  C   UNL     1      46.878 -35.626  52.180  0.00  0.00    +0.000 A 
ATOM     17  C   UNL     1      49.169 -36.022  52.859  0.00  0.00    +0.000 A 
ATOM     18  C   UNL     1      47.872 -35.616  53.154  0.00  0.00    +0.000 A 
BRANCH  18  19
ATOM     19  O   UNL     1      47.595 -35.207  54.426  0.00  0.00    +0.000 OA
ATOM     20  H   UNL     1      47.547 -34.235  54.431  0.00  0.00    +0.000 HD
ENDBRANCH  18  19
ENDBRANCH  12  13
ENDBRANCH   1  11
TORSDOF 5
ENDMDL
MODEL 4
REMARK VINA RESULT:      -5.7      4.322      9.947
REMARK  Name = Resveratrol.pdbqt.pdb
REMARK  5 active torsions:
REMARK  status: ('A' for Active; 'I' for Inactive)
REMARK    1  A    between atoms: C_1  and  C_11
REMARK    2  A    between atoms: C_4  and  O_7
REMARK    3  A    between atoms: C_5  and  O_9
REMARK    4  A    between atoms: C_12  and  C_13
REMARK    5  A    between atoms: C_18  and  O_19
REMARK                            x       y       z     vdW  Elec       q    Type
REMARK                         _______ _______ _______ _____ _____    ______ ____
ROOT
ATOM      1  C   UNL     1      49.760 -37.497  48.056  0.00  0.00    +0.000 A 
ATOM      2  C   UNL     1      49.824 -38.653  47.280  0.00  0.00    +0.000 A 
ATOM      3  C   UNL     1      49.741 -37.587  49.448  0.00  0.00    +0.000 A 
ATOM      4  C   UNL     1      49.787 -38.839  50.054  0.00  0.00    +0.000 A 
ATOM      5  C   UNL     1      49.869 -39.895  47.905  0.00  0.00    +0.000 A 
ATOM      6  C   UNL     1      49.851 -40.001  49.292  0.00  0.00    +0.000 A 
ENDROOT
BRANCH   4   7
ATOM      7  O   UNL     1      49.770 -38.957  51.414  0.00  0.00    +0.000 OA
ATOM      8  H   UNL     1      49.939 -39.889  51.640  0.00  0.00    +0.000 HD
ENDBRANCH   4   7
BRANCH   5   9
ATOM      9  O   UNL     1      49.932 -41.014  47.124  0.00  0.00    +0.000 OA
ATOM     10  H   UNL     1      49.448 -41.726  47.580  0.00  0.00    +0.000 HD
ENDBRANCH   5   9
BRANCH   1  11
ATOM     11  C   UNL     1      49.713 -36.218  47.427  0.00  0.00    +0.000 C 
ATOM     12  C   UNL     1      49.673 -35.140  46.898  0.00  0.00    +0.000 C 
BRANCH  12  13
ATOM     13  C   UNL     1      49.627 -33.861  46.270  0.00  0.00    +0.000 A 
ATOM     14  C   UNL     1      50.530 -32.868  46.648  0.00  0.00    +0.000 A 
ATOM     15  C   UNL     1      48.678 -33.606  45.280  0.00  0.00    +0.000 A 
ATOM     16  C   UNL     1      50.487 -31.619  46.036  0.00  0.00    +0.000 A 
ATOM     17  C   UNL     1      48.632 -32.358  44.665  0.00  0.00    +0.000 A 
ATOM     18  C   UNL     1      49.537 -31.373  45.049  0.00  0.00    +0.000 A 
BRANCH  18  19
ATOM     19  O   UNL     1      49.471 -30.158  44.432  0.00  0.00    +0.000 OA
ATOM     20  H   UNL     1      50.345 -29.962  44.051  0.00  0.00    +0.000 HD
ENDBRANCH  18  19
ENDBRANCH  12  13
ENDBRANCH   1  11
TORSDOF 5
ENDMDL
MODEL 5
REMARK VINA RESULT:      -5.7      4.312      9.795
REMARK  Name = Resveratrol.pdbqt.pdb
REMARK  5 active torsions:
REMARK  status: ('A' for Active; 'I' for Inactive)
REMARK    1  A    between atoms: C_1  and  C_11
REMARK    2  A    between atoms: C_4  and  O_7
REMARK    3  A    between atoms: C_5  and  O_9
REMARK    4  A    between atoms: C_12  and  C_13
REMARK    5  A    between atoms: C_18  and  O_19
REMARK                            x       y       z     vdW  Elec       q    Type
REMARK                         _______ _______ _______ _____ _____    ______ ____
ROOT
ATOM      1  C   UNL     1      49.759 -37.530  48.052  0.00  0.00    +0.000 A 
ATOM      2  C   UNL     1      49.748 -37.625  49.442  0.00  0.00    +0.000 A 
ATOM      3  C   UNL     1      49.820 -38.683  47.270  0.00  0.00    +0.000 A 
ATOM      4  C   UNL     1      49.870 -39.929  47.890  0.00  0.00    +0.000 A 
ATOM      5  C   UNL     1      49.799 -38.879  50.042  0.00  0.00    +0.000 A 
ATOM      6  C   UNL     1      49.859 -40.039  49.276  0.00  0.00    +0.000 A 
ENDROOT
BRANCH   4   7
ATOM      7  O   UNL     1      49.929 -41.074  47.150  0.00  0.00    +0.000 OA
ATOM      8  H   UNL     1      49.102 -41.151  46.642  0.00  0.00    +0.000 HD
ENDBRANCH   4   7
BRANCH   5   9
ATOM      9  O   UNL     1      49.787 -38.948  51.406  0.00  0.00    +0.000 OA
ATOM     10  H   UNL     1      48.891 -39.205  51.686  0.00  0.00    +0.000 HD
ENDBRANCH   5   9
BRANCH   1  11
ATOM     11  C   UNL     1      49.708 -36.250  47.425  0.00  0.00    +0.000 C 
ATOM     12  C   UNL     1      49.665 -35.171  46.897  0.00  0.00    +0.000 C 
BRANCH  12  13
ATOM     13  C   UNL     1      49.615 -33.891  46.271  0.00  0.00    +0.000 A 
ATOM     14  C   UNL     1      50.520 -32.898  46.646  0.00  0.00    +0.000 A 
ATOM     15  C   UNL     1      48.662 -33.635  45.285  0.00  0.00    +0.000 A 
ATOM     16  C   UNL     1      50.474 -31.648  46.036  0.00  0.00    +0.000 A 
ATOM     17  C   UNL     1      48.612 -32.386  44.673  0.00  0.00    +0.000 A 
ATOM     18  C   UNL     1      49.519 -31.402  45.054  0.00  0.00    +0.000 A 
BRANCH  18  19
ATOM     19  O   UNL     1      49.450 -30.185  44.439  0.00  0.00    +0.000 OA
ATOM     20  H   UNL     1      49.563 -29.495  45.116  0.00  0.00    +0.000 HD
ENDBRANCH  18  19
ENDBRANCH  12  13
ENDBRANCH   1  11
TORSDOF 5
ENDMDL
MODEL 6
REMARK VINA RESULT:      -5.6     15.402     17.762
REMARK  Name = Resveratrol.pdbqt.pdb
REMARK  5 active torsions:
REMARK  status: ('A' for Active; 'I' for Inactive)
REMARK    1  A    between atoms: C_1  and  C_11
REMARK    2  A    between atoms: C_4  and  O_7
REMARK    3  A    between atoms: C_5  and  O_9
REMARK    4  A    between atoms: C_12  and  C_13
REMARK    5  A    between atoms: C_18  and  O_19
REMARK                            x       y       z     vdW  Elec       q    Type
REMARK                         _______ _______ _______ _____ _____    ______ ____
ROOT
ATOM      1  C   UNL     1      57.970 -51.778  59.188  0.00  0.00    +0.000 A 
ATOM      2  C   UNL     1      58.034 -52.470  57.979  0.00  0.00    +0.000 A 
ATOM      3  C   UNL     1      57.367 -52.364  60.300  0.00  0.00    +0.000 A 
ATOM      4  C   UNL     1      56.831 -53.645  60.193  0.00  0.00    +0.000 A 
ATOM      5  C   UNL     1      57.492 -53.748  57.893  0.00  0.00    +0.000 A 
ATOM      6  C   UNL     1      56.889 -54.347  58.994  0.00  0.00    +0.000 A 
ENDROOT
BRANCH   4   7
ATOM      7  O   UNL     1      56.236 -54.244  61.265  0.00  0.00    +0.000 OA
ATOM      8  H   UNL     1      56.537 -55.169  61.302  0.00  0.00    +0.000 HD
ENDBRANCH   4   7
BRANCH   5   9
ATOM      9  O   UNL     1      57.567 -54.406  56.698  0.00  0.00    +0.000 OA
ATOM     10  H   UNL     1      56.790 -54.155  56.168  0.00  0.00    +0.000 HD
ENDBRANCH   5   9
BRANCH   1  11
ATOM     11  C   UNL     1      58.520 -50.467  59.289  0.00  0.00    +0.000 C 
ATOM     12  C   UNL     1      58.984 -49.361  59.373  0.00  0.00    +0.000 C 
BRANCH  12  13
ATOM     13  C   UNL     1      59.534 -48.050  59.474  0.00  0.00    +0.000 A 
ATOM     14  C   UNL     1      59.864 -47.344  58.318  0.00  0.00    +0.000 A 
ATOM     15  C   UNL     1      59.740 -47.476  60.729  0.00  0.00    +0.000 A 
ATOM     16  C   UNL     1      60.401 -46.063  58.414  0.00  0.00    +0.000 A 
ATOM     17  C   UNL     1      60.276 -46.196  60.829  0.00  0.00    +0.000 A 
ATOM     18  C   UNL     1      60.603 -45.499  59.670  0.00  0.00    +0.000 A 
BRANCH  18  19
ATOM     19  O   UNL     1      61.128 -44.245  59.793  0.00  0.00    +0.000 OA
ATOM     20  H   UNL     1      61.668 -44.219  60.602  0.00  0.00    +0.000 HD
ENDBRANCH  18  19
ENDBRANCH  12  13
ENDBRANCH   1  11
TORSDOF 5
ENDMDL
MODEL 7
REMARK VINA RESULT:      -5.6      2.734      7.239
REMARK  Name = Resveratrol.pdbqt.pdb
REMARK  5 active torsions:
REMARK  status: ('A' for Active; 'I' for Inactive)
REMARK    1  A    between atoms: C_1  and  C_11
REMARK    2  A    between atoms: C_4  and  O_7
REMARK    3  A    between atoms: C_5  and  O_9
REMARK    4  A    between atoms: C_12  and  C_13
REMARK    5  A    between atoms: C_18  and  O_19
REMARK                            x       y       z     vdW  Elec       q    Type
REMARK                         _______ _______ _______ _____ _____    ______ ____
ROOT
ATOM      1  C   UNL     1      49.226 -41.452  49.015  0.00  0.00    +0.000 A 
ATOM      2  C   UNL     1      49.493 -41.383  47.648  0.00  0.00    +0.000 A 
ATOM      3  C   UNL     1      49.122 -42.691  49.647  0.00  0.00    +0.000 A 
ATOM      4  C   UNL     1      49.288 -43.856  48.903  0.00  0.00    +0.000 A 
ATOM      5  C   UNL     1      49.655 -42.558  46.922  0.00  0.00    +0.000 A 
ATOM      6  C   UNL     1      49.555 -43.801  47.539  0.00  0.00    +0.000 A 
ENDROOT
BRANCH   4   7
ATOM      7  O   UNL     1      49.192 -45.081  49.496  0.00  0.00    +0.000 OA
ATOM      8  H   UNL     1      49.854 -45.126  50.209  0.00  0.00    +0.000 HD
ENDBRANCH   4   7
BRANCH   5   9
ATOM      9  O   UNL     1      49.916 -42.466  45.585  0.00  0.00    +0.000 OA
ATOM     10  H   UNL     1      49.191 -41.964  45.172  0.00  0.00    +0.000 HD
ENDBRANCH   5   9
BRANCH   1  11
ATOM     11  C   UNL     1      49.057 -40.254  49.770  0.00  0.00    +0.000 C 
ATOM     12  C   UNL     1      48.915 -39.244  50.405  0.00  0.00    +0.000 C 
BRANCH  12  13
ATOM     13  C   UNL     1      48.746 -38.046  51.159  0.00  0.00    +0.000 A 
ATOM     14  C   UNL     1      47.488 -37.449  51.243  0.00  0.00    +0.000 A 
ATOM     15  C   UNL     1      49.838 -37.473  51.810  0.00  0.00    +0.000 A 
ATOM     16  C   UNL     1      47.320 -36.280  51.979  0.00  0.00    +0.000 A 
ATOM     17  C   UNL     1      49.675 -36.304  52.547  0.00  0.00    +0.000 A 
ATOM     18  C   UNL     1      48.417 -35.715  52.625  0.00  0.00    +0.000 A 
BRANCH  18  19
ATOM     19  O   UNL     1      48.281 -34.569  53.352  0.00  0.00    +0.000 OA
ATOM     20  H   UNL     1      47.525 -34.678  53.955  0.00  0.00    +0.000 HD
ENDBRANCH  18  19
ENDBRANCH  12  13
ENDBRANCH   1  11
TORSDOF 5
ENDMDL
MODEL 8
REMARK VINA RESULT:      -5.6      4.373      9.040
REMARK  Name = Resveratrol.pdbqt.pdb
REMARK  5 active torsions:
REMARK  status: ('A' for Active; 'I' for Inactive)
REMARK    1  A    between atoms: C_1  and  C_11
REMARK    2  A    between atoms: C_4  and  O_7
REMARK    3  A    between atoms: C_5  and  O_9
REMARK    4  A    between atoms: C_12  and  C_13
REMARK    5  A    between atoms: C_18  and  O_19
REMARK                            x       y       z     vdW  Elec       q    Type
REMARK                         _______ _______ _______ _____ _____    ______ ____
ROOT
ATOM      1  C   UNL     1      48.797 -36.813  49.304  0.00  0.00    +0.000 A 
ATOM      2  C   UNL     1      47.831 -36.185  50.089  0.00  0.00    +0.000 A 
ATOM      3  C   UNL     1      49.292 -38.065  49.667  0.00  0.00    +0.000 A 
ATOM      4  C   UNL     1      48.812 -38.683  50.820  0.00  0.00    +0.000 A 
ATOM      5  C   UNL     1      47.365 -36.819  51.237  0.00  0.00    +0.000 A 
ATOM      6  C   UNL     1      47.848 -38.068  51.612  0.00  0.00    +0.000 A 
ENDROOT
BRANCH   4   7
ATOM      7  O   UNL     1      49.277 -39.908  51.199  0.00  0.00    +0.000 OA
ATOM      8  H   UNL     1      50.090 -39.777  51.718  0.00  0.00    +0.000 HD
ENDBRANCH   4   7
BRANCH   5   9
ATOM      9  O   UNL     1      46.419 -36.185  51.990  0.00  0.00    +0.000 OA
ATOM     10  H   UNL     1      45.671 -36.796  52.109  0.00  0.00    +0.000 HD
ENDBRANCH   5   9
BRANCH   1  11
ATOM     11  C   UNL     1      49.284 -36.174  48.126  0.00  0.00    +0.000 C 
ATOM     12  C   UNL     1      49.693 -35.634  47.133  0.00  0.00    +0.000 C 
BRANCH  12  13
ATOM     13  C   UNL     1      50.180 -34.994  45.955  0.00  0.00    +0.000 A 
ATOM     14  C   UNL     1      49.713 -35.394  44.704  0.00  0.00    +0.000 A 
ATOM     15  C   UNL     1      51.121 -33.970  46.058  0.00  0.00    +0.000 A 
ATOM     16  C   UNL     1      50.186 -34.771  43.553  0.00  0.00    +0.000 A 
ATOM     17  C   UNL     1      51.597 -33.345  44.910  0.00  0.00    +0.000 A 
ATOM     18  C   UNL     1      51.126 -33.750  43.665  0.00  0.00    +0.000 A 
BRANCH  18  19
ATOM     19  O   UNL     1      51.607 -33.122  42.554  0.00  0.00    +0.000 OA
ATOM     20  H   UNL     1      51.357 -32.183  42.601  0.00  0.00    +0.000 HD
ENDBRANCH  18  19
ENDBRANCH  12  13
ENDBRANCH   1  11
TORSDOF 5
ENDMDL
MODEL 9
REMARK VINA RESULT:      -5.5      8.982     14.289
REMARK  Name = Resveratrol.pdbqt.pdb
REMARK  5 active torsions:
REMARK  status: ('A' for Active; 'I' for Inactive)
REMARK    1  A    between atoms: C_1  and  C_11
REMARK    2  A    between atoms: C_4  and  O_7
REMARK    3  A    between atoms: C_5  and  O_9
REMARK    4  A    between atoms: C_12  and  C_13
REMARK    5  A    between atoms: C_18  and  O_19
REMARK                            x       y       z     vdW  Elec       q    Type
REMARK                         _______ _______ _______ _____ _____    ______ ____
ROOT
ATOM      1  C   UNL     1      47.406 -53.356  56.959  0.00  0.00    +0.000 A 
ATOM      2  C   UNL     1      48.744 -53.681  57.178  0.00  0.00    +0.000 A 
ATOM      3  C   UNL     1      46.411 -53.892  57.776  0.00  0.00    +0.000 A 
ATOM      4  C   UNL     1      46.765 -54.751  58.813  0.00  0.00    +0.000 A 
ATOM      5  C   UNL     1      49.077 -54.541  58.219  0.00  0.00    +0.000 A 
ATOM      6  C   UNL     1      48.096 -55.083  59.044  0.00  0.00    +0.000 A 
ENDROOT
BRANCH   4   7
ATOM      7  O   UNL     1      45.812 -55.289  59.629  0.00  0.00    +0.000 OA
ATOM      8  H   UNL     1      46.116 -55.200  60.550  0.00  0.00    +0.000 HD
ENDBRANCH   4   7
BRANCH   5   9
ATOM      9  O   UNL     1      50.393 -54.844  58.415  0.00  0.00    +0.000 OA
ATOM     10  H   UNL     1      50.438 -55.649  58.962  0.00  0.00    +0.000 HD
ENDBRANCH   5   9
BRANCH   1  11
ATOM     11  C   UNL     1      47.051 -52.476  55.894  0.00  0.00    +0.000 C 
ATOM     12  C   UNL     1      46.752 -51.734  54.998  0.00  0.00    +0.000 C 
BRANCH  12  13
ATOM     13  C   UNL     1      46.398 -50.853  53.934  0.00  0.00    +0.000 A 
ATOM     14  C   UNL     1      45.552 -51.296  52.917  0.00  0.00    +0.000 A 
ATOM     15  C   UNL     1      46.898 -49.551  53.913  0.00  0.00    +0.000 A 
ATOM     16  C   UNL     1      45.204 -50.438  51.878  0.00  0.00    +0.000 A 
ATOM     17  C   UNL     1      46.553 -48.690  52.875  0.00  0.00    +0.000 A 
ATOM     18  C   UNL     1      45.709 -49.140  51.865  0.00  0.00    +0.000 A 
BRANCH  18  19
ATOM     19  O   UNL     1      45.385 -48.278  50.859  0.00  0.00    +0.000 OA
ATOM     20  H   UNL     1      46.124 -48.256  50.226  0.00  0.00    +0.000 HD
ENDBRANCH  18  19
ENDBRANCH  12  13
ENDBRANCH   1  11
TORSDOF 5
ENDMDL
