MODEL 1
REMARK VINA RESULT:      -6.6      0.000      0.000
REMARK  Name = RetinoicAcid.pdbqt.pdb
REMARK  6 active torsions:
REMARK  status: ('A' for Active; 'I' for Inactive)
REMARK    1  A    between atoms: C_1  and  C_3
REMARK    2  A    between atoms: C_1  and  C_5
REMARK    3  A    between atoms: C_3  and  C_15
REMARK    4  A    between atoms: C_4  and  C_9
REMARK    5  A    between atoms: C_16  and  C_17
REMARK    6  A    between atoms: C_21  and  O_22
REMARK                            x       y       z     vdW  Elec       q    Type
REMARK                         _______ _______ _______ _____ _____    ______ ____
ROOT
ATOM      1  C   UNL     1      49.527 -42.911  47.329  0.00  0.00    +0.000 C 
ATOM      2  C   UNL     1      49.590 -43.194  45.860  0.00  0.00    +0.000 C 
ENDROOT
BRANCH   1   4
ATOM      3  C   UNL     1      49.514 -44.896  49.039  0.00  0.00    +0.000 C 
ATOM      4  C   UNL     1      49.521 -43.980  48.258  0.00  0.00    +0.000 C 
BRANCH   3   8
ATOM      5  C   UNL     1      48.267 -46.219  50.899  0.00  0.00    +0.000 C 
ATOM      6  C   UNL     1      48.523 -47.413  51.739  0.00  0.00    +0.000 C 
ATOM      7  C   UNL     1      49.568 -48.480  52.001  0.00  0.00    +0.000 C 
ATOM      8  C   UNL     1      49.507 -45.999  49.970  0.00  0.00    +0.000 C 
ATOM      9  C   UNL     1      50.518 -47.921  50.964  0.00  0.00    +0.000 C 
ATOM     10  C   UNL     1      50.566 -46.843  50.035  0.00  0.00    +0.000 C 
ATOM     11  C   UNL     1      48.082 -44.969  51.802  0.00  0.00    +0.000 C 
ATOM     12  C   UNL     1      47.014 -46.459  50.009  0.00  0.00    +0.000 C 
ATOM     13  C   UNL     1      51.799 -46.729  49.181  0.00  0.00    +0.000 C 
ENDBRANCH   3   8
ENDBRANCH   1   4
BRANCH   1  14
ATOM     14  C   UNL     1      49.429 -41.689  47.748  0.00  0.00    +0.000 C 
BRANCH  14  15
ATOM     15  C   UNL     1      49.312 -40.243  48.247  0.00  0.00    +0.000 C 
ATOM     16  C   UNL     1      49.221 -39.112  48.639  0.00  0.00    +0.000 C 
BRANCH  16  17
ATOM     17  C   UNL     1      49.116 -37.779  49.105  0.00  0.00    +0.000 C 
ATOM     18  C   UNL     1      49.783 -36.672  48.349  0.00  0.00    +0.000 C 
ATOM     19  C   UNL     1      48.475 -37.524  50.196  0.00  0.00    +0.000 C 
ATOM     20  O   UNL     1      46.546 -37.140  51.431  0.00  0.00    +0.000 OA
ATOM     21  C   UNL     1      47.757 -37.254  51.391  0.00  0.00    +0.000 C 
BRANCH  21  22
ATOM     22  O   UNL     1      48.531 -37.157  52.484  0.00  0.00    +0.000 OA
ATOM     23  H   UNL     1      48.195 -37.861  53.078  0.00  0.00    +0.000 HD
ENDBRANCH  21  22
ENDBRANCH  16  17
ENDBRANCH  14  15
ENDBRANCH   1  14
TORSDOF 6
ENDMDL
MODEL 2
REMARK VINA RESULT:      -6.4      5.564     12.204
REMARK  Name = RetinoicAcid.pdbqt.pdb
REMARK  6 active torsions:
REMARK  status: ('A' for Active; 'I' for Inactive)
REMARK    1  A    between atoms: C_1  and  C_3
REMARK    2  A    between atoms: C_1  and  C_5
REMARK    3  A    between atoms: C_3  and  C_15
REMARK    4  A    between atoms: C_4  and  C_9
REMARK    5  A    between atoms: C_16  and  C_17
REMARK    6  A    between atoms: C_21  and  O_22
REMARK                            x       y       z     vdW  Elec       q    Type
REMARK                         _______ _______ _______ _____ _____    ______ ____
ROOT
ATOM      1  C   UNL     1      49.935 -35.116  45.901  0.00  0.00    +0.000 C 
ATOM      2  C   UNL     1      49.822 -35.943  44.657  0.00  0.00    +0.000 C 
ENDROOT
BRANCH   1   4
ATOM      3  C   UNL     1      51.040 -32.744  45.795  0.00  0.00    +0.000 C 
ATOM      4  C   UNL     1      50.535 -33.834  45.849  0.00  0.00    +0.000 C 
BRANCH   3   8
ATOM      5  C   UNL     1      50.788 -30.215  45.238  0.00  0.00    +0.000 C 
ATOM      6  C   UNL     1      51.646 -29.007  45.270  0.00  0.00    +0.000 C 
ATOM      7  C   UNL     1      53.054 -28.556  45.607  0.00  0.00    +0.000 C 
ATOM      8  C   UNL     1      51.642 -31.434  45.724  0.00  0.00    +0.000 C 
ATOM      9  C   UNL     1      53.493 -29.950  46.001  0.00  0.00    +0.000 C 
ATOM     10  C   UNL     1      52.938 -31.259  46.081  0.00  0.00    +0.000 C 
ATOM     11  C   UNL     1      50.305 -30.481  43.787  0.00  0.00    +0.000 C 
ATOM     12  C   UNL     1      49.585 -30.033  46.206  0.00  0.00    +0.000 C 
ATOM     13  C   UNL     1      53.841 -32.357  46.572  0.00  0.00    +0.000 C 
ENDBRANCH   3   8
ENDBRANCH   1   4
BRANCH   1  14
ATOM     14  C   UNL     1      49.529 -35.595  47.035  0.00  0.00    +0.000 C 
BRANCH  14  15
ATOM     15  C   UNL     1      49.048 -36.161  48.377  0.00  0.00    +0.000 C 
ATOM     16  C   UNL     1      48.671 -36.602  49.428  0.00  0.00    +0.000 C 
BRANCH  16  17
ATOM     17  C   UNL     1      48.221 -37.126  50.664  0.00  0.00    +0.000 C 
ATOM     18  C   UNL     1      48.011 -36.207  51.828  0.00  0.00    +0.000 C 
ATOM     19  C   UNL     1      48.025 -38.394  50.796  0.00  0.00    +0.000 C 
ATOM     20  O   UNL     1      46.776 -40.339  50.562  0.00  0.00    +0.000 OA
ATOM     21  C   UNL     1      47.799 -39.790  50.926  0.00  0.00    +0.000 C 
BRANCH  21  22
ATOM     22  O   UNL     1      48.829 -40.462  51.467  0.00  0.00    +0.000 OA
ATOM     23  H   UNL     1      49.126 -39.891  52.206  0.00  0.00    +0.000 HD
ENDBRANCH  21  22
ENDBRANCH  16  17
ENDBRANCH  14  15
ENDBRANCH   1  14
TORSDOF 6
ENDMDL
MODEL 3
REMARK VINA RESULT:      -6.3      0.586      2.087
REMARK  Name = RetinoicAcid.pdbqt.pdb
REMARK  6 active torsions:
REMARK  status: ('A' for Active; 'I' for Inactive)
REMARK    1  A    between atoms: C_1  and  C_3
REMARK    2  A    between atoms: C_1  and  C_5
REMARK    3  A    between atoms: C_3  and  C_15
REMARK    4  A    between atoms: C_4  and  C_9
REMARK    5  A    between atoms: C_16  and  C_17
REMARK    6  A    between atoms: C_21  and  O_22
REMARK                            x       y       z     vdW  Elec       q    Type
REMARK                         _______ _______ _______ _____ _____    ______ ____
ROOT
ATOM      1  C   UNL     1      49.205 -42.962  47.203  0.00  0.00    +0.000 C 
ATOM      2  C   UNL     1      49.108 -43.230  45.733  0.00  0.00    +0.000 C 
ENDROOT
BRANCH   1   4
ATOM      3  C   UNL     1      49.294 -44.958  48.896  0.00  0.00    +0.000 C 
ATOM      4  C   UNL     1      49.259 -44.040  48.119  0.00  0.00    +0.000 C 
BRANCH   3   8
ATOM      5  C   UNL     1      50.287 -47.271  49.554  0.00  0.00    +0.000 C 
ATOM      6  C   UNL     1      50.126 -48.246  50.659  0.00  0.00    +0.000 C 
ATOM      7  C   UNL     1      49.358 -48.467  51.947  0.00  0.00    +0.000 C 
ATOM      8  C   UNL     1      49.330 -46.062  49.826  0.00  0.00    +0.000 C 
ATOM      9  C   UNL     1      48.615 -47.155  51.825  0.00  0.00    +0.000 C 
ATOM     10  C   UNL     1      48.546 -46.049  50.931  0.00  0.00    +0.000 C 
ATOM     11  C   UNL     1      49.894 -47.933  48.205  0.00  0.00    +0.000 C 
ATOM     12  C   UNL     1      51.751 -46.750  49.518  0.00  0.00    +0.000 C 
ATOM     13  C   UNL     1      47.604 -44.933  51.292  0.00  0.00    +0.000 C 
ENDBRANCH   3   8
ENDBRANCH   1   4
BRANCH   1  14
ATOM     14  C   UNL     1      49.190 -41.741  47.640  0.00  0.00    +0.000 C 
BRANCH  14  15
ATOM     15  C   UNL     1      49.171 -40.297  48.155  0.00  0.00    +0.000 C 
ATOM     16  C   UNL     1      49.155 -39.166  48.557  0.00  0.00    +0.000 C 
BRANCH  16  17
ATOM     17  C   UNL     1      49.130 -37.832  49.032  0.00  0.00    +0.000 C 
ATOM     18  C   UNL     1      49.792 -36.747  48.239  0.00  0.00    +0.000 C 
ATOM     19  C   UNL     1      48.568 -37.558  50.161  0.00  0.00    +0.000 C 
ATOM     20  O   UNL     1      46.734 -37.106  51.513  0.00  0.00    +0.000 OA
ATOM     21  C   UNL     1      47.935 -37.266  51.398  0.00  0.00    +0.000 C 
BRANCH  21  22
ATOM     22  O   UNL     1      48.778 -37.204  52.442  0.00  0.00    +0.000 OA
ATOM     23  H   UNL     1      49.661 -37.359  52.047  0.00  0.00    +0.000 HD
ENDBRANCH  21  22
ENDBRANCH  16  17
ENDBRANCH  14  15
ENDBRANCH   1  14
TORSDOF 6
ENDMDL
MODEL 4
REMARK VINA RESULT:      -6.2      3.637      8.333
REMARK  Name = RetinoicAcid.pdbqt.pdb
REMARK  6 active torsions:
REMARK  status: ('A' for Active; 'I' for Inactive)
REMARK    1  A    between atoms: C_1  and  C_3
REMARK    2  A    between atoms: C_1  and  C_5
REMARK    3  A    between atoms: C_3  and  C_15
REMARK    4  A    between atoms: C_4  and  C_9
REMARK    5  A    between atoms: C_16  and  C_17
REMARK    6  A    between atoms: C_21  and  O_22
REMARK                            x       y       z     vdW  Elec       q    Type
REMARK                         _______ _______ _______ _____ _____    ______ ____
ROOT
ATOM      1  C   UNL     1      49.569 -43.507  49.387  0.00  0.00    +0.000 C 
ATOM      2  C   UNL     1      50.786 -44.242  48.916  0.00  0.00    +0.000 C 
ENDROOT
BRANCH   1   4
ATOM      3  C   UNL     1      49.353 -40.930  48.968  0.00  0.00    +0.000 C 
ATOM      4  C   UNL     1      49.448 -42.115  49.156  0.00  0.00    +0.000 C 
BRANCH   3   8
ATOM      5  C   UNL     1      48.915 -38.560  49.948  0.00  0.00    +0.000 C 
ATOM      6  C   UNL     1      48.872 -37.168  49.441  0.00  0.00    +0.000 C 
ATOM      7  C   UNL     1      49.036 -36.360  48.168  0.00  0.00    +0.000 C 
ATOM      8  C   UNL     1      49.245 -39.508  48.746  0.00  0.00    +0.000 C 
ATOM      9  C   UNL     1      49.324 -37.586  47.330  0.00  0.00    +0.000 C 
ATOM     10  C   UNL     1      49.435 -38.995  47.505  0.00  0.00    +0.000 C 
ATOM     11  C   UNL     1      47.532 -38.951  50.535  0.00  0.00    +0.000 C 
ATOM     12  C   UNL     1      50.038 -38.699  51.015  0.00  0.00    +0.000 C 
ATOM     13  C   UNL     1      49.768 -39.814  46.289  0.00  0.00    +0.000 C 
ENDBRANCH   3   8
ENDBRANCH   1   4
BRANCH   1  14
ATOM     14  C   UNL     1      48.648 -44.136  50.048  0.00  0.00    +0.000 C 
BRANCH  14  15
ATOM     15  C   UNL     1      47.557 -44.879  50.829  0.00  0.00    +0.000 C 
ATOM     16  C   UNL     1      46.702 -45.458  51.441  0.00  0.00    +0.000 C 
BRANCH  16  17
ATOM     17  C   UNL     1      45.690 -46.141  52.158  0.00  0.00    +0.000 C 
ATOM     18  C   UNL     1      46.015 -46.787  53.470  0.00  0.00    +0.000 C 
ATOM     19  C   UNL     1      44.500 -46.234  51.667  0.00  0.00    +0.000 C 
ATOM     20  O   UNL     1      42.367 -45.428  51.223  0.00  0.00    +0.000 OA
ATOM     21  C   UNL     1      43.191 -46.318  51.124  0.00  0.00    +0.000 C 
BRANCH  21  22
ATOM     22  O   UNL     1      42.945 -47.463  50.465  0.00  0.00    +0.000 OA
ATOM     23  H   UNL     1      43.836 -47.814  50.256  0.00  0.00    +0.000 HD
ENDBRANCH  21  22
ENDBRANCH  16  17
ENDBRANCH  14  15
ENDBRANCH   1  14
TORSDOF 6
ENDMDL
MODEL 5
REMARK VINA RESULT:      -6.2      7.074     11.170
REMARK  Name = RetinoicAcid.pdbqt.pdb
REMARK  6 active torsions:
REMARK  status: ('A' for Active; 'I' for Inactive)
REMARK    1  A    between atoms: C_1  and  C_3
REMARK    2  A    between atoms: C_1  and  C_5
REMARK    3  A    between atoms: C_3  and  C_15
REMARK    4  A    between atoms: C_4  and  C_9
REMARK    5  A    between atoms: C_16  and  C_17
REMARK    6  A    between atoms: C_21  and  O_22
REMARK                            x       y       z     vdW  Elec       q    Type
REMARK                         _______ _______ _______ _____ _____    ______ ____
ROOT
ATOM      1  C   UNL     1      45.867 -52.167  54.399  0.00  0.00    +0.000 C 
ATOM      2  C   UNL     1      44.449 -52.400  53.974  0.00  0.00    +0.000 C 
ENDROOT
BRANCH   1   4
ATOM      3  C   UNL     1      46.913 -53.604  56.323  0.00  0.00    +0.000 C 
ATOM      4  C   UNL     1      46.430 -52.941  55.443  0.00  0.00    +0.000 C 
BRANCH   3   8
ATOM      5  C   UNL     1      49.024 -54.747  57.327  0.00  0.00    +0.000 C 
ATOM      6  C   UNL     1      49.352 -55.563  58.519  0.00  0.00    +0.000 C 
ATOM      7  C   UNL     1      48.718 -56.172  59.754  0.00  0.00    +0.000 C 
ATOM      8  C   UNL     1      47.498 -54.403  57.374  0.00  0.00    +0.000 C 
ATOM      9  C   UNL     1      47.346 -55.629  59.418  0.00  0.00    +0.000 C 
ATOM     10  C   UNL     1      46.730 -54.848  58.399  0.00  0.00    +0.000 C 
ATOM     11  C   UNL     1      49.320 -55.556  56.035  0.00  0.00    +0.000 C 
ATOM     12  C   UNL     1      49.835 -53.420  57.356  0.00  0.00    +0.000 C 
ATOM     13  C   UNL     1      45.261 -54.564  58.547  0.00  0.00    +0.000 C 
ENDBRANCH   3   8
ENDBRANCH   1   4
BRANCH   1  14
ATOM     14  C   UNL     1      46.562 -51.226  53.843  0.00  0.00    +0.000 C 
BRANCH  14  15
ATOM     15  C   UNL     1      47.383 -50.110  53.184  0.00  0.00    +0.000 C 
ATOM     16  C   UNL     1      48.025 -49.236  52.670  0.00  0.00    +0.000 C 
BRANCH  16  17
ATOM     17  C   UNL     1      48.784 -48.203  52.068  0.00  0.00    +0.000 C 
ATOM     18  C   UNL     1      50.138 -48.506  51.505  0.00  0.00    +0.000 C 
ATOM     19  C   UNL     1      48.323 -46.998  52.035  0.00  0.00    +0.000 C 
ATOM     20  O   UNL     1      47.009 -45.299  51.149  0.00  0.00    +0.000 OA
ATOM     21  C   UNL     1      47.801 -45.678  51.992  0.00  0.00    +0.000 C 
BRANCH  21  22
ATOM     22  O   UNL     1      48.240 -44.884  52.982  0.00  0.00    +0.000 OA
ATOM     23  H   UNL     1      48.676 -44.140  52.517  0.00  0.00    +0.000 HD
ENDBRANCH  21  22
ENDBRANCH  16  17
ENDBRANCH  14  15
ENDBRANCH   1  14
TORSDOF 6
ENDMDL
MODEL 6
REMARK VINA RESULT:      -6.1      6.784     10.516
REMARK  Name = RetinoicAcid.pdbqt.pdb
REMARK  6 active torsions:
REMARK  status: ('A' for Active; 'I' for Inactive)
REMARK    1  A    between atoms: C_1  and  C_3
REMARK    2  A    between atoms: C_1  and  C_5
REMARK    3  A    between atoms: C_3  and  C_15
REMARK    4  A    between atoms: C_4  and  C_9
REMARK    5  A    between atoms: C_16  and  C_17
REMARK    6  A    between atoms: C_21  and  O_22
REMARK                            x       y       z     vdW  Elec       q    Type
REMARK                         _______ _______ _______ _____ _____    ______ ____
ROOT
ATOM      1  C   UNL     1      47.441 -52.976  52.200  0.00  0.00    +0.000 C 
ATOM      2  C   UNL     1      47.494 -53.940  51.055  0.00  0.00    +0.000 C 
ENDROOT
BRANCH   1   4
ATOM      3  C   UNL     1      46.215 -53.634  54.419  0.00  0.00    +0.000 C 
ATOM      4  C   UNL     1      46.773 -53.332  53.397  0.00  0.00    +0.000 C 
BRANCH   3   8
ATOM      5  C   UNL     1      44.074 -54.512  55.608  0.00  0.00    +0.000 C 
ATOM      6  C   UNL     1      43.651 -54.813  56.996  0.00  0.00    +0.000 C 
ATOM      7  C   UNL     1      44.157 -54.791  58.425  0.00  0.00    +0.000 C 
ATOM      8  C   UNL     1      45.552 -53.996  55.649  0.00  0.00    +0.000 C 
ATOM      9  C   UNL     1      45.518 -54.268  58.021  0.00  0.00    +0.000 C 
ATOM     10  C   UNL     1      46.207 -53.897  56.832  0.00  0.00    +0.000 C 
ATOM     11  C   UNL     1      43.168 -53.402  55.009  0.00  0.00    +0.000 C 
ATOM     12  C   UNL     1      44.021 -55.806  54.747  0.00  0.00    +0.000 C 
ATOM     13  C   UNL     1      47.628 -53.427  56.980  0.00  0.00    +0.000 C 
ENDBRANCH   3   8
ENDBRANCH   1   4
BRANCH   1  14
ATOM     14  C   UNL     1      47.966 -51.797  52.078  0.00  0.00    +0.000 C 
BRANCH  14  15
ATOM     15  C   UNL     1      48.586 -50.401  51.934  0.00  0.00    +0.000 C 
ATOM     16  C   UNL     1      49.072 -49.309  51.823  0.00  0.00    +0.000 C 
BRANCH  16  17
ATOM     17  C   UNL     1      49.650 -48.024  51.690  0.00  0.00    +0.000 C 
ATOM     18  C   UNL     1      51.126 -47.891  51.468  0.00  0.00    +0.000 C 
ATOM     19  C   UNL     1      48.914 -46.969  51.793  0.00  0.00    +0.000 C 
ATOM     20  O   UNL     1      47.429 -45.383  50.971  0.00  0.00    +0.000 OA
ATOM     21  C   UNL     1      48.090 -45.817  51.896  0.00  0.00    +0.000 C 
BRANCH  21  22
ATOM     22  O   UNL     1      48.086 -45.255  53.116  0.00  0.00    +0.000 OA
ATOM     23  H   UNL     1      47.761 -45.967  53.706  0.00  0.00    +0.000 HD
ENDBRANCH  21  22
ENDBRANCH  16  17
ENDBRANCH  14  15
ENDBRANCH   1  14
TORSDOF 6
ENDMDL
MODEL 7
REMARK VINA RESULT:      -6.1      6.104     12.338
REMARK  Name = RetinoicAcid.pdbqt.pdb
REMARK  6 active torsions:
REMARK  status: ('A' for Active; 'I' for Inactive)
REMARK    1  A    between atoms: C_1  and  C_3
REMARK    2  A    between atoms: C_1  and  C_5
REMARK    3  A    between atoms: C_3  and  C_15
REMARK    4  A    between atoms: C_4  and  C_9
REMARK    5  A    between atoms: C_16  and  C_17
REMARK    6  A    between atoms: C_21  and  O_22
REMARK                            x       y       z     vdW  Elec       q    Type
REMARK                         _______ _______ _______ _____ _____    ______ ____
ROOT
ATOM      1  C   UNL     1      50.177 -35.025  45.497  0.00  0.00    +0.000 C 
ATOM      2  C   UNL     1      50.155 -35.821  44.229  0.00  0.00    +0.000 C 
ENDROOT
BRANCH   1   4
ATOM      3  C   UNL     1      51.168 -32.600  45.512  0.00  0.00    +0.000 C 
ATOM      4  C   UNL     1      50.718 -33.716  45.505  0.00  0.00    +0.000 C 
BRANCH   3   8
ATOM      5  C   UNL     1      50.806 -30.065  45.051  0.00  0.00    +0.000 C 
ATOM      6  C   UNL     1      51.595 -28.817  45.173  0.00  0.00    +0.000 C 
ATOM      7  C   UNL     1      52.960 -28.310  45.595  0.00  0.00    +0.000 C 
ATOM      8  C   UNL     1      51.702 -31.259  45.524  0.00  0.00    +0.000 C 
ATOM      9  C   UNL     1      53.456 -29.695  45.950  0.00  0.00    +0.000 C 
ATOM     10  C   UNL     1      52.969 -31.033  45.949  0.00  0.00    +0.000 C 
ATOM     11  C   UNL     1      50.404 -30.292  43.568  0.00  0.00    +0.000 C 
ATOM     12  C   UNL     1      49.552 -29.989  45.967  0.00  0.00    +0.000 C 
ATOM     13  C   UNL     1      53.906 -32.103  46.436  0.00  0.00    +0.000 C 
ENDBRANCH   3   8
ENDBRANCH   1   4
BRANCH   1  14
ATOM     14  C   UNL     1      49.744 -35.552  46.599  0.00  0.00    +0.000 C 
BRANCH  14  15
ATOM     15  C   UNL     1      49.233 -36.175  47.904  0.00  0.00    +0.000 C 
ATOM     16  C   UNL     1      48.835 -36.662  48.927  0.00  0.00    +0.000 C 
BRANCH  16  17
ATOM     17  C   UNL     1      48.366 -37.232  50.135  0.00  0.00    +0.000 C 
ATOM     18  C   UNL     1      48.693 -38.658  50.461  0.00  0.00    +0.000 C 
ATOM     19  C   UNL     1      47.633 -36.536  50.937  0.00  0.00    +0.000 C 
ATOM     20  O   UNL     1      47.304 -34.967  52.618  0.00  0.00    +0.000 OA
ATOM     21  C   UNL     1      46.837 -35.756  51.818  0.00  0.00    +0.000 C 
BRANCH  21  22
ATOM     22  O   UNL     1      45.516 -35.949  51.676  0.00  0.00    +0.000 OA
ATOM     23  H   UNL     1      45.148 -35.043  51.603  0.00  0.00    +0.000 HD
ENDBRANCH  21  22
ENDBRANCH  16  17
ENDBRANCH  14  15
ENDBRANCH   1  14
TORSDOF 6
ENDMDL
MODEL 8
REMARK VINA RESULT:      -6.0      6.953     10.886
REMARK  Name = RetinoicAcid.pdbqt.pdb
REMARK  6 active torsions:
REMARK  status: ('A' for Active; 'I' for Inactive)
REMARK    1  A    between atoms: C_1  and  C_3
REMARK    2  A    between atoms: C_1  and  C_5
REMARK    3  A    between atoms: C_3  and  C_15
REMARK    4  A    between atoms: C_4  and  C_9
REMARK    5  A    between atoms: C_16  and  C_17
REMARK    6  A    between atoms: C_21  and  O_22
REMARK                            x       y       z     vdW  Elec       q    Type
REMARK                         _______ _______ _______ _____ _____    ______ ____
ROOT
ATOM      1  C   UNL     1      46.083 -52.173  54.624  0.00  0.00    +0.000 C 
ATOM      2  C   UNL     1      44.612 -52.443  54.541  0.00  0.00    +0.000 C 
ENDROOT
BRANCH   1   4
ATOM      3  C   UNL     1      47.600 -53.668  56.149  0.00  0.00    +0.000 C 
ATOM      4  C   UNL     1      46.906 -52.977  55.451  0.00  0.00    +0.000 C 
BRANCH   3   8
ATOM      5  C   UNL     1      47.773 -55.365  58.114  0.00  0.00    +0.000 C 
ATOM      6  C   UNL     1      48.845 -56.122  58.802  0.00  0.00    +0.000 C 
ATOM      7  C   UNL     1      50.345 -56.343  58.783  0.00  0.00    +0.000 C 
ATOM      8  C   UNL     1      48.430 -54.504  56.984  0.00  0.00    +0.000 C 
ATOM      9  C   UNL     1      50.553 -55.389  57.627  0.00  0.00    +0.000 C 
ATOM     10  C   UNL     1      49.771 -54.549  56.785  0.00  0.00    +0.000 C 
ATOM     11  C   UNL     1      47.064 -54.420  59.122  0.00  0.00    +0.000 C 
ATOM     12  C   UNL     1      46.762 -56.352  57.465  0.00  0.00    +0.000 C 
ATOM     13  C   UNL     1      50.499 -53.774  55.722  0.00  0.00    +0.000 C 
ENDBRANCH   3   8
ENDBRANCH   1   4
BRANCH   1  14
ATOM     14  C   UNL     1      46.595 -51.174  53.977  0.00  0.00    +0.000 C 
BRANCH  14  15
ATOM     15  C   UNL     1      47.200 -49.989  53.213  0.00  0.00    +0.000 C 
ATOM     16  C   UNL     1      47.676 -49.064  52.614  0.00  0.00    +0.000 C 
BRANCH  16  17
ATOM     17  C   UNL     1      48.237 -47.975  51.904  0.00  0.00    +0.000 C 
ATOM     18  C   UNL     1      49.344 -48.218  50.924  0.00  0.00    +0.000 C 
ATOM     19  C   UNL     1      47.819 -46.775  52.124  0.00  0.00    +0.000 C 
ATOM     20  O   UNL     1      46.338 -45.006  51.848  0.00  0.00    +0.000 OA
ATOM     21  C   UNL     1      47.342 -45.459  52.366  0.00  0.00    +0.000 C 
BRANCH  21  22
ATOM     22  O   UNL     1      48.084 -44.760  53.240  0.00  0.00    +0.000 OA
ATOM     23  H   UNL     1      47.778 -45.071  54.118  0.00  0.00    +0.000 HD
ENDBRANCH  21  22
ENDBRANCH  16  17
ENDBRANCH  14  15
ENDBRANCH   1  14
TORSDOF 6
ENDMDL
MODEL 9
REMARK VINA RESULT:      -5.8     24.208     26.864
REMARK  Name = RetinoicAcid.pdbqt.pdb
REMARK  6 active torsions:
REMARK  status: ('A' for Active; 'I' for Inactive)
REMARK    1  A    between atoms: C_1  and  C_3
REMARK    2  A    between atoms: C_1  and  C_5
REMARK    3  A    between atoms: C_3  and  C_15
REMARK    4  A    between atoms: C_4  and  C_9
REMARK    5  A    between atoms: C_16  and  C_17
REMARK    6  A    between atoms: C_21  and  O_22
REMARK                            x       y       z     vdW  Elec       q    Type
REMARK                         _______ _______ _______ _____ _____    ______ ____
ROOT
ATOM      1  C   UNL     1      52.452 -38.297  76.218  0.00  0.00    +0.000 C 
ATOM      2  C   UNL     1      52.551 -39.152  77.443  0.00  0.00    +0.000 C 
ENDROOT
BRANCH   1   4
ATOM      3  C   UNL     1      54.447 -36.749  75.521  0.00  0.00    +0.000 C 
ATOM      4  C   UNL     1      53.534 -37.462  75.846  0.00  0.00    +0.000 C 
BRANCH   3   8
ATOM      5  C   UNL     1      55.233 -34.503  74.469  0.00  0.00    +0.000 C 
ATOM      6  C   UNL     1      56.523 -33.836  74.175  0.00  0.00    +0.000 C 
ATOM      7  C   UNL     1      58.021 -34.039  74.293  0.00  0.00    +0.000 C 
ATOM      8  C   UNL     1      55.538 -35.890  75.127  0.00  0.00    +0.000 C 
ATOM      9  C   UNL     1      57.868 -35.401  74.933  0.00  0.00    +0.000 C 
ATOM     10  C   UNL     1      56.821 -36.280  75.332  0.00  0.00    +0.000 C 
ATOM     11  C   UNL     1      54.444 -34.732  73.151  0.00  0.00    +0.000 C 
ATOM     12  C   UNL     1      54.411 -33.646  75.472  0.00  0.00    +0.000 C 
ATOM     13  C   UNL     1      57.223 -37.583  75.966  0.00  0.00    +0.000 C 
ENDBRANCH   3   8
ENDBRANCH   1   4
BRANCH   1  14
ATOM     14  C   UNL     1      51.357 -38.285  75.525  0.00  0.00    +0.000 C 
BRANCH  14  15
ATOM     15  C   UNL     1      50.060 -38.273  74.705  0.00  0.00    +0.000 C 
ATOM     16  C   UNL     1      49.046 -38.265  74.063  0.00  0.00    +0.000 C 
BRANCH  16  17
ATOM     17  C   UNL     1      47.850 -38.261  73.306  0.00  0.00    +0.000 C 
ATOM     18  C   UNL     1      47.915 -38.188  71.811  0.00  0.00    +0.000 C 
ATOM     19  C   UNL     1      46.706 -38.288  73.903  0.00  0.00    +0.000 C 
ATOM     20  O   UNL     1      44.947 -39.362  74.975  0.00  0.00    +0.000 OA
ATOM     21  C   UNL     1      45.454 -38.331  74.572  0.00  0.00    +0.000 C 
BRANCH  21  22
ATOM     22  O   UNL     1      44.884 -37.127  74.743  0.00  0.00    +0.000 OA
ATOM     23  H   UNL     1      44.051 -37.322  75.220  0.00  0.00    +0.000 HD
ENDBRANCH  21  22
ENDBRANCH  16  17
ENDBRANCH  14  15
ENDBRANCH   1  14
TORSDOF 6
ENDMDL
