MODEL 1
REMARK VINA RESULT:      -8.6      0.000      0.000
REMARK  Name = SB_202190.pdbqt.pdb
REMARK  4 active torsions:
REMARK  status: ('A' for Active; 'I' for Inactive)
REMARK    1  A    between atoms: C_4  and  C_7
REMARK    2  A    between atoms: C_5  and  C_19
REMARK    3  A    between atoms: C_6  and  C_8
REMARK    4  A    between atoms: C_15  and  O_26
REMARK                            x       y       z     vdW  Elec       q    Type
REMARK                         _______ _______ _______ _____ _____    ______ ____
ROOT
ATOM      1  N   UNL     1      48.449 -40.068  51.322  0.00  0.00    +0.000 N 
ATOM      2  N   UNL     1      48.809 -40.584  49.216  0.00  0.00    +0.000 NA
ATOM      3  C   UNL     1      48.543 -38.854  50.671  0.00  0.00    +0.000 A 
ATOM      4  C   UNL     1      48.800 -39.214  49.355  0.00  0.00    +0.000 A 
ATOM      5  C   UNL     1      48.598 -41.088  50.413  0.00  0.00    +0.000 A 
ATOM      6  H   UNL     1      48.260 -40.195  52.306  0.00  0.00    +0.000 HD
ENDROOT
BRANCH   4   7
ATOM      7  C   UNL     1      49.051 -38.344  48.225  0.00  0.00    +0.000 A 
ATOM      8  C   UNL     1      48.806 -38.764  46.916  0.00  0.00    +0.000 A 
ATOM      9  C   UNL     1      49.010 -37.899  45.844  0.00  0.00    +0.000 A 
ATOM     10  C   UNL     1      49.445 -36.602  46.092  0.00  0.00    +0.000 A 
ATOM     11  F   UNL     1      49.646 -35.768  45.063  0.00  0.00    +0.000 F 
ATOM     12  C   UNL     1      49.677 -36.158  47.388  0.00  0.00    +0.000 A 
ATOM     13  C   UNL     1      49.471 -37.031  48.454  0.00  0.00    +0.000 A 
ENDBRANCH   4   7
BRANCH   3  15
ATOM     14  N   UNL     1      47.956 -35.170  52.740  0.00  0.00    +0.000 NA
ATOM     15  C   UNL     1      48.345 -37.584  51.362  0.00  0.00    +0.000 A 
ATOM     16  C   UNL     1      47.103 -36.952  51.351  0.00  0.00    +0.000 A 
ATOM     17  C   UNL     1      49.388 -37.000  52.081  0.00  0.00    +0.000 A 
ATOM     18  C   UNL     1      46.961 -35.761  52.043  0.00  0.00    +0.000 A 
ATOM     19  C   UNL     1      49.146 -35.804  52.739  0.00  0.00    +0.000 A 
ENDBRANCH   3  15
BRANCH   5  20
ATOM     20  C   UNL     1      48.529 -42.505  50.755  0.00  0.00    +0.000 A 
ATOM     21  C   UNL     1      48.034 -42.894  52.002  0.00  0.00    +0.000 A 
ATOM     22  C   UNL     1      48.947 -43.490  49.856  0.00  0.00    +0.000 A 
ATOM     23  C   UNL     1      47.957 -44.241  52.350  0.00  0.00    +0.000 A 
ATOM     24  C   UNL     1      48.876 -44.839  50.194  0.00  0.00    +0.000 A 
ATOM     25  C   UNL     1      48.380 -45.204  51.440  0.00  0.00    +0.000 A 
BRANCH  25  26
ATOM     26  O   UNL     1      48.318 -46.531  51.751  0.00  0.00    +0.000 OA
ATOM     27  H   UNL     1      49.055 -46.983  51.304  0.00  0.00    +0.000 HD
ENDBRANCH  25  26
ENDBRANCH   5  20
TORSDOF 4
ENDMDL
MODEL 2
REMARK VINA RESULT:      -8.6      2.109      4.271
REMARK  Name = SB_202190.pdbqt.pdb
REMARK  4 active torsions:
REMARK  status: ('A' for Active; 'I' for Inactive)
REMARK    1  A    between atoms: C_4  and  C_7
REMARK    2  A    between atoms: C_5  and  C_19
REMARK    3  A    between atoms: C_6  and  C_8
REMARK    4  A    between atoms: C_15  and  O_26
REMARK                            x       y       z     vdW  Elec       q    Type
REMARK                         _______ _______ _______ _____ _____    ______ ____
ROOT
ATOM      1  N   UNL     1      48.727 -40.417  48.931  0.00  0.00    +0.000 N 
ATOM      2  N   UNL     1      48.497 -40.131  51.099  0.00  0.00    +0.000 NA
ATOM      3  C   UNL     1      48.780 -39.050  49.115  0.00  0.00    +0.000 A 
ATOM      4  C   UNL     1      48.602 -38.903  50.484  0.00  0.00    +0.000 A 
ATOM      5  C   UNL     1      48.572 -41.038  50.147  0.00  0.00    +0.000 A 
ATOM      6  H   UNL     1      48.825 -40.896  48.047  0.00  0.00    +0.000 HD
ENDROOT
BRANCH   4   7
ATOM      7  C   UNL     1      48.511 -37.674  51.245  0.00  0.00    +0.000 A 
ATOM      8  C   UNL     1      47.296 -37.002  51.396  0.00  0.00    +0.000 A 
ATOM      9  C   UNL     1      47.218 -35.846  52.170  0.00  0.00    +0.000 A 
ATOM     10  C   UNL     1      48.361 -35.377  52.807  0.00  0.00    +0.000 A 
ATOM     11  F   UNL     1      48.290 -34.263  53.548  0.00  0.00    +0.000 F 
ATOM     12  C   UNL     1      49.575 -36.041  52.685  0.00  0.00    +0.000 A 
ATOM     13  C   UNL     1      49.644 -37.195  51.908  0.00  0.00    +0.000 A 
ENDBRANCH   4   7
BRANCH   3  15
ATOM     14  N   UNL     1      49.536 -36.363  45.889  0.00  0.00    +0.000 NA
ATOM     15  C   UNL     1      49.020 -38.125  48.012  0.00  0.00    +0.000 A 
ATOM     16  C   UNL     1      49.266 -36.775  48.253  0.00  0.00    +0.000 A 
ATOM     17  C   UNL     1      49.046 -38.587  46.696  0.00  0.00    +0.000 A 
ATOM     18  C   UNL     1      49.512 -35.945  47.172  0.00  0.00    +0.000 A 
ATOM     19  C   UNL     1      49.299 -37.675  45.683  0.00  0.00    +0.000 A 
ENDBRANCH   3  15
BRANCH   5  20
ATOM     20  C   UNL     1      48.503 -42.484  50.325  0.00  0.00    +0.000 A 
ATOM     21  C   UNL     1      47.758 -43.019  51.380  0.00  0.00    +0.000 A 
ATOM     22  C   UNL     1      49.169 -43.355  49.458  0.00  0.00    +0.000 A 
ATOM     23  C   UNL     1      47.678 -44.396  51.569  0.00  0.00    +0.000 A 
ATOM     24  C   UNL     1      49.096 -44.734  49.639  0.00  0.00    +0.000 A 
ATOM     25  C   UNL     1      48.350 -45.244  50.694  0.00  0.00    +0.000 A 
BRANCH  25  26
ATOM     26  O   UNL     1      48.290 -46.598  50.853  0.00  0.00    +0.000 OA
ATOM     27  H   UNL     1      48.766 -47.012  50.112  0.00  0.00    +0.000 HD
ENDBRANCH  25  26
ENDBRANCH   5  20
TORSDOF 4
ENDMDL
MODEL 3
REMARK VINA RESULT:      -8.2      4.129      7.717
REMARK  Name = SB_202190.pdbqt.pdb
REMARK  4 active torsions:
REMARK  status: ('A' for Active; 'I' for Inactive)
REMARK    1  A    between atoms: C_4  and  C_7
REMARK    2  A    between atoms: C_5  and  C_19
REMARK    3  A    between atoms: C_6  and  C_8
REMARK    4  A    between atoms: C_15  and  O_26
REMARK                            x       y       z     vdW  Elec       q    Type
REMARK                         _______ _______ _______ _____ _____    ______ ____
ROOT
ATOM      1  N   UNL     1      49.217 -38.046  47.362  0.00  0.00    +0.000 N 
ATOM      2  N   UNL     1      48.856 -36.026  48.150  0.00  0.00    +0.000 NA
ATOM      3  C   UNL     1      48.900 -38.236  48.691  0.00  0.00    +0.000 A 
ATOM      4  C   UNL     1      48.708 -36.946  49.165  0.00  0.00    +0.000 A 
ATOM      5  C   UNL     1      49.166 -36.704  47.066  0.00  0.00    +0.000 A 
ATOM      6  H   UNL     1      49.418 -38.776  46.694  0.00  0.00    +0.000 HD
ENDROOT
BRANCH   4   7
ATOM      7  C   UNL     1      48.409 -36.527  50.518  0.00  0.00    +0.000 A 
ATOM      8  C   UNL     1      49.405 -36.459  51.495  0.00  0.00    +0.000 A 
ATOM      9  C   UNL     1      49.108 -36.010  52.780  0.00  0.00    +0.000 A 
ATOM     10  C   UNL     1      47.810 -35.612  53.077  0.00  0.00    +0.000 A 
ATOM     11  F   UNL     1      47.519 -35.184  54.312  0.00  0.00    +0.000 F 
ATOM     12  C   UNL     1      46.808 -35.654  52.114  0.00  0.00    +0.000 A 
ATOM     13  C   UNL     1      47.114 -36.106  50.833  0.00  0.00    +0.000 A 
ENDBRANCH   4   7
BRANCH   3  15
ATOM     14  N   UNL     1      48.546 -42.138  50.379  0.00  0.00    +0.000 NA
ATOM     15  C   UNL     1      48.792 -39.567  49.282  0.00  0.00    +0.000 A 
ATOM     16  C   UNL     1      47.987 -39.789  50.398  0.00  0.00    +0.000 A 
ATOM     17  C   UNL     1      49.464 -40.649  48.714  0.00  0.00    +0.000 A 
ATOM     18  C   UNL     1      47.901 -41.075  50.904  0.00  0.00    +0.000 A 
ATOM     19  C   UNL     1      49.314 -41.897  49.297  0.00  0.00    +0.000 A 
ENDBRANCH   3  15
BRANCH   5  20
ATOM     20  C   UNL     1      49.422 -36.148  45.742  0.00  0.00    +0.000 A 
ATOM     21  C   UNL     1      48.978 -36.829  44.606  0.00  0.00    +0.000 A 
ATOM     22  C   UNL     1      50.105 -34.939  45.582  0.00  0.00    +0.000 A 
ATOM     23  C   UNL     1      49.210 -36.317  43.331  0.00  0.00    +0.000 A 
ATOM     24  C   UNL     1      50.343 -34.419  44.312  0.00  0.00    +0.000 A 
ATOM     25  C   UNL     1      49.893 -35.113  43.196  0.00  0.00    +0.000 A 
BRANCH  25  26
ATOM     26  O   UNL     1      50.136 -34.585  41.961  0.00  0.00    +0.000 OA
ATOM     27  H   UNL     1      50.708 -33.805  42.071  0.00  0.00    +0.000 HD
ENDBRANCH  25  26
ENDBRANCH   5  20
TORSDOF 4
ENDMDL
MODEL 4
REMARK VINA RESULT:      -7.7      4.031      7.117
REMARK  Name = SB_202190.pdbqt.pdb
REMARK  4 active torsions:
REMARK  status: ('A' for Active; 'I' for Inactive)
REMARK    1  A    between atoms: C_4  and  C_7
REMARK    2  A    between atoms: C_5  and  C_19
REMARK    3  A    between atoms: C_6  and  C_8
REMARK    4  A    between atoms: C_15  and  O_26
REMARK                            x       y       z     vdW  Elec       q    Type
REMARK                         _______ _______ _______ _____ _____    ______ ____
ROOT
ATOM      1  N   UNL     1      48.928 -36.249  48.314  0.00  0.00    +0.000 N 
ATOM      2  N   UNL     1      49.258 -38.246  47.455  0.00  0.00    +0.000 NA
ATOM      3  C   UNL     1      48.733 -37.123  49.364  0.00  0.00    +0.000 A 
ATOM      4  C   UNL     1      48.918 -38.370  48.784  0.00  0.00    +0.000 A 
ATOM      5  C   UNL     1      49.257 -36.958  47.183  0.00  0.00    +0.000 A 
ATOM      6  H   UNL     1      48.876 -35.242  48.369  0.00  0.00    +0.000 HD
ENDROOT
BRANCH   4   7
ATOM      7  C   UNL     1      48.780 -39.672  49.403  0.00  0.00    +0.000 A 
ATOM      8  C   UNL     1      47.908 -39.879  50.474  0.00  0.00    +0.000 A 
ATOM      9  C   UNL     1      47.753 -41.147  51.027  0.00  0.00    +0.000 A 
ATOM     10  C   UNL     1      48.466 -42.213  50.490  0.00  0.00    +0.000 A 
ATOM     11  F   UNL     1      48.323 -43.435  51.023  0.00  0.00    +0.000 F 
ATOM     12  C   UNL     1      49.325 -42.033  49.413  0.00  0.00    +0.000 A 
ATOM     13  C   UNL     1      49.474 -40.760  48.867  0.00  0.00    +0.000 A 
ENDBRANCH   4   7
BRANCH   3  15
ATOM     14  N   UNL     1      47.915 -35.715  53.307  0.00  0.00    +0.000 NA
ATOM     15  C   UNL     1      48.449 -36.659  50.719  0.00  0.00    +0.000 A 
ATOM     16  C   UNL     1      49.414 -36.747  51.720  0.00  0.00    +0.000 A 
ATOM     17  C   UNL     1      47.217 -36.082  51.025  0.00  0.00    +0.000 A 
ATOM     18  C   UNL     1      49.102 -36.270  52.983  0.00  0.00    +0.000 A 
ATOM     19  C   UNL     1      47.001 -35.637  52.319  0.00  0.00    +0.000 A 
ENDBRANCH   3  15
BRANCH   5  20
ATOM     20  C   UNL     1      49.556 -36.347  45.892  0.00  0.00    +0.000 A 
ATOM     21  C   UNL     1      49.839 -34.980  45.821  0.00  0.00    +0.000 A 
ATOM     22  C   UNL     1      49.567 -37.102  44.716  0.00  0.00    +0.000 A 
ATOM     23  C   UNL     1      50.127 -34.375  44.600  0.00  0.00    +0.000 A 
ATOM     24  C   UNL     1      49.854 -36.507  43.490  0.00  0.00    +0.000 A 
ATOM     25  C   UNL     1      50.132 -35.146  43.443  0.00  0.00    +0.000 A 
BRANCH  25  26
ATOM     26  O   UNL     1      50.411 -34.583  42.231  0.00  0.00    +0.000 OA
ATOM     27  H   UNL     1      49.731 -34.871  41.598  0.00  0.00    +0.000 HD
ENDBRANCH  25  26
ENDBRANCH   5  20
TORSDOF 4
ENDMDL
MODEL 5
REMARK VINA RESULT:      -7.6      5.118      9.251
REMARK  Name = SB_202190.pdbqt.pdb
REMARK  4 active torsions:
REMARK  status: ('A' for Active; 'I' for Inactive)
REMARK    1  A    between atoms: C_4  and  C_7
REMARK    2  A    between atoms: C_5  and  C_19
REMARK    3  A    between atoms: C_6  and  C_8
REMARK    4  A    between atoms: C_15  and  O_26
REMARK                            x       y       z     vdW  Elec       q    Type
REMARK                         _______ _______ _______ _____ _____    ______ ____
ROOT
ATOM      1  N   UNL     1      48.915 -45.331  50.063  0.00  0.00    +0.000 N 
ATOM      2  N   UNL     1      50.618 -44.379  49.050  0.00  0.00    +0.000 NA
ATOM      3  C   UNL     1      49.728 -46.378  49.677  0.00  0.00    +0.000 A 
ATOM      4  C   UNL     1      50.773 -45.747  49.018  0.00  0.00    +0.000 A 
ATOM      5  C   UNL     1      49.488 -44.141  49.683  0.00  0.00    +0.000 A 
ATOM      6  H   UNL     1      48.051 -45.416  50.579  0.00  0.00    +0.000 HD
ENDROOT
BRANCH   4   7
ATOM      7  C   UNL     1      51.902 -46.357  48.346  0.00  0.00    +0.000 A 
ATOM      8  C   UNL     1      51.722 -47.272  47.306  0.00  0.00    +0.000 A 
ATOM      9  C   UNL     1      52.819 -47.813  46.641  0.00  0.00    +0.000 A 
ATOM     10  C   UNL     1      54.100 -47.421  47.012  0.00  0.00    +0.000 A 
ATOM     11  F   UNL     1      55.157 -47.943  46.377  0.00  0.00    +0.000 F 
ATOM     12  C   UNL     1      54.301 -46.498  48.031  0.00  0.00    +0.000 A 
ATOM     13  C   UNL     1      53.197 -45.962  48.691  0.00  0.00    +0.000 A 
ENDBRANCH   4   7
BRANCH   3  15
ATOM     14  N   UNL     1      48.780 -50.416  50.676  0.00  0.00    +0.000 NA
ATOM     15  C   UNL     1      49.421 -47.765  50.014  0.00  0.00    +0.000 A 
ATOM     16  C   UNL     1      49.786 -48.296  51.250  0.00  0.00    +0.000 A 
ATOM     17  C   UNL     1      48.722 -48.572  49.117  0.00  0.00    +0.000 A 
ATOM     18  C   UNL     1      49.450 -49.611  51.528  0.00  0.00    +0.000 A 
ATOM     19  C   UNL     1      48.435 -49.876  49.489  0.00  0.00    +0.000 A 
ENDBRANCH   3  15
BRANCH   5  20
ATOM     20  C   UNL     1      48.909 -42.830  49.954  0.00  0.00    +0.000 A 
ATOM     21  C   UNL     1      49.081 -41.792  49.034  0.00  0.00    +0.000 A 
ATOM     22  C   UNL     1      48.180 -42.585  51.121  0.00  0.00    +0.000 A 
ATOM     23  C   UNL     1      48.538 -40.532  49.271  0.00  0.00    +0.000 A 
ATOM     24  C   UNL     1      47.632 -41.329  51.368  0.00  0.00    +0.000 A 
ATOM     25  C   UNL     1      47.815 -40.312  50.439  0.00  0.00    +0.000 A 
BRANCH  25  26
ATOM     26  O   UNL     1      47.270 -39.088  50.701  0.00  0.00    +0.000 OA
ATOM     27  H   UNL     1      47.239 -38.585  49.868  0.00  0.00    +0.000 HD
ENDBRANCH  25  26
ENDBRANCH   5  20
TORSDOF 4
ENDMDL
MODEL 6
REMARK VINA RESULT:      -7.3      5.830      8.727
REMARK  Name = SB_202190.pdbqt.pdb
REMARK  4 active torsions:
REMARK  status: ('A' for Active; 'I' for Inactive)
REMARK    1  A    between atoms: C_4  and  C_7
REMARK    2  A    between atoms: C_5  and  C_19
REMARK    3  A    between atoms: C_6  and  C_8
REMARK    4  A    between atoms: C_15  and  O_26
REMARK                            x       y       z     vdW  Elec       q    Type
REMARK                         _______ _______ _______ _____ _____    ______ ____
ROOT
ATOM      1  N   UNL     1      47.844 -47.693  52.247  0.00  0.00    +0.000 N 
ATOM      2  N   UNL     1      49.099 -49.107  51.125  0.00  0.00    +0.000 NA
ATOM      3  C   UNL     1      48.467 -46.926  51.283  0.00  0.00    +0.000 A 
ATOM      4  C   UNL     1      49.271 -47.839  50.615  0.00  0.00    +0.000 A 
ATOM      5  C   UNL     1      48.235 -49.004  52.113  0.00  0.00    +0.000 A 
ATOM      6  H   UNL     1      47.173 -47.357  52.924  0.00  0.00    +0.000 HD
ENDROOT
BRANCH   4   7
ATOM      7  C   UNL     1      50.202 -47.586  49.536  0.00  0.00    +0.000 A 
ATOM      8  C   UNL     1      49.957 -48.047  48.241  0.00  0.00    +0.000 A 
ATOM      9  C   UNL     1      50.841 -47.755  47.205  0.00  0.00    +0.000 A 
ATOM     10  C   UNL     1      51.965 -46.982  47.469  0.00  0.00    +0.000 A 
ATOM     11  F   UNL     1      52.820 -46.703  46.476  0.00  0.00    +0.000 F 
ATOM     12  C   UNL     1      52.219 -46.497  48.747  0.00  0.00    +0.000 A 
ATOM     13  C   UNL     1      51.329 -46.795  49.777  0.00  0.00    +0.000 A 
ENDBRANCH   4   7
BRANCH   3  15
ATOM     14  N   UNL     1      47.707 -42.755  50.803  0.00  0.00    +0.000 NA
ATOM     15  C   UNL     1      48.188 -45.501  51.123  0.00  0.00    +0.000 A 
ATOM     16  C   UNL     1      48.133 -44.657  52.230  0.00  0.00    +0.000 A 
ATOM     17  C   UNL     1      48.012 -44.954  49.852  0.00  0.00    +0.000 A 
ATOM     18  C   UNL     1      47.889 -43.309  52.021  0.00  0.00    +0.000 A 
ATOM     19  C   UNL     1      47.771 -43.594  49.749  0.00  0.00    +0.000 A 
ENDBRANCH   3  15
BRANCH   5  20
ATOM     20  C   UNL     1      47.749 -50.093  52.953  0.00  0.00    +0.000 A 
ATOM     21  C   UNL     1      46.813 -49.829  53.957  0.00  0.00    +0.000 A 
ATOM     22  C   UNL     1      48.199 -51.404  52.775  0.00  0.00    +0.000 A 
ATOM     23  C   UNL     1      46.334 -50.853  54.771  0.00  0.00    +0.000 A 
ATOM     24  C   UNL     1      47.727 -52.435  53.584  0.00  0.00    +0.000 A 
ATOM     25  C   UNL     1      46.797 -52.150  54.576  0.00  0.00    +0.000 A 
BRANCH  25  26
ATOM     26  O   UNL     1      46.347 -53.175  55.357  0.00  0.00    +0.000 OA
ATOM     27  H   UNL     1      47.049 -53.405  55.991  0.00  0.00    +0.000 HD
ENDBRANCH  25  26
ENDBRANCH   5  20
TORSDOF 4
ENDMDL
MODEL 7
REMARK VINA RESULT:      -7.2      4.196      7.157
REMARK  Name = SB_202190.pdbqt.pdb
REMARK  4 active torsions:
REMARK  status: ('A' for Active; 'I' for Inactive)
REMARK    1  A    between atoms: C_4  and  C_7
REMARK    2  A    between atoms: C_5  and  C_19
REMARK    3  A    between atoms: C_6  and  C_8
REMARK    4  A    between atoms: C_15  and  O_26
REMARK                            x       y       z     vdW  Elec       q    Type
REMARK                         _______ _______ _______ _____ _____    ______ ____
ROOT
ATOM      1  N   UNL     1      49.757 -46.073  49.618  0.00  0.00    +0.000 N 
ATOM      2  N   UNL     1      50.556 -44.119  49.005  0.00  0.00    +0.000 NA
ATOM      3  C   UNL     1      48.838 -45.153  50.081  0.00  0.00    +0.000 A 
ATOM      4  C   UNL     1      49.385 -43.934  49.706  0.00  0.00    +0.000 A 
ATOM      5  C   UNL     1      50.770 -45.417  48.961  0.00  0.00    +0.000 A 
ATOM      6  H   UNL     1      49.682 -47.076  49.708  0.00  0.00    +0.000 HD
ENDROOT
BRANCH   4   7
ATOM      7  C   UNL     1      48.879 -42.605  49.982  0.00  0.00    +0.000 A 
ATOM      8  C   UNL     1      48.305 -42.288  51.214  0.00  0.00    +0.000 A 
ATOM      9  C   UNL     1      47.865 -40.993  51.478  0.00  0.00    +0.000 A 
ATOM     10  C   UNL     1      48.019 -40.012  50.506  0.00  0.00    +0.000 A 
ATOM     11  F   UNL     1      47.593 -38.766  50.754  0.00  0.00    +0.000 F 
ATOM     12  C   UNL     1      48.605 -40.302  49.279  0.00  0.00    +0.000 A 
ATOM     13  C   UNL     1      49.041 -41.600  49.024  0.00  0.00    +0.000 A 
ENDBRANCH   4   7
BRANCH   3  15
ATOM     14  N   UNL     1      45.253 -46.383  52.039  0.00  0.00    +0.000 NA
ATOM     15  C   UNL     1      47.605 -45.555  50.752  0.00  0.00    +0.000 A 
ATOM     16  C   UNL     1      46.426 -45.732  50.031  0.00  0.00    +0.000 A 
ATOM     17  C   UNL     1      47.597 -45.809  52.124  0.00  0.00    +0.000 A 
ATOM     18  C   UNL     1      45.290 -46.138  50.712  0.00  0.00    +0.000 A 
ATOM     19  C   UNL     1      46.409 -46.210  52.713  0.00  0.00    +0.000 A 
ENDBRANCH   3  15
BRANCH   5  20
ATOM     20  C   UNL     1      51.899 -46.085  48.322  0.00  0.00    +0.000 A 
ATOM     21  C   UNL     1      53.203 -45.685  48.624  0.00  0.00    +0.000 A 
ATOM     22  C   UNL     1      51.705 -47.125  47.408  0.00  0.00    +0.000 A 
ATOM     23  C   UNL     1      54.296 -46.309  48.027  0.00  0.00    +0.000 A 
ATOM     24  C   UNL     1      52.791 -47.755  46.805  0.00  0.00    +0.000 A 
ATOM     25  C   UNL     1      54.079 -47.342  47.121  0.00  0.00    +0.000 A 
BRANCH  25  26
ATOM     26  O   UNL     1      55.129 -47.973  46.519  0.00  0.00    +0.000 OA
ATOM     27  H   UNL     1      54.989 -47.945  45.557  0.00  0.00    +0.000 HD
ENDBRANCH  25  26
ENDBRANCH   5  20
TORSDOF 4
ENDMDL
MODEL 8
REMARK VINA RESULT:      -7.2      4.147      6.741
REMARK  Name = SB_202190.pdbqt.pdb
REMARK  4 active torsions:
REMARK  status: ('A' for Active; 'I' for Inactive)
REMARK    1  A    between atoms: C_4  and  C_7
REMARK    2  A    between atoms: C_5  and  C_19
REMARK    3  A    between atoms: C_6  and  C_8
REMARK    4  A    between atoms: C_15  and  O_26
REMARK                            x       y       z     vdW  Elec       q    Type
REMARK                         _______ _______ _______ _____ _____    ______ ____
ROOT
ATOM      1  N   UNL     1      48.416 -36.277  46.646  0.00  0.00    +0.000 N 
ATOM      2  N   UNL     1      50.220 -35.629  47.722  0.00  0.00    +0.000 NA
ATOM      3  C   UNL     1      48.954 -35.276  45.863  0.00  0.00    +0.000 A 
ATOM      4  C   UNL     1      50.069 -34.869  46.582  0.00  0.00    +0.000 A 
ATOM      5  C   UNL     1      49.212 -36.474  47.749  0.00  0.00    +0.000 A 
ATOM      6  H   UNL     1      47.588 -36.814  46.429  0.00  0.00    +0.000 HD
ENDROOT
BRANCH   4   7
ATOM      7  C   UNL     1      50.993 -33.800  46.268  0.00  0.00    +0.000 A 
ATOM      8  C   UNL     1      50.957 -32.584  46.953  0.00  0.00    +0.000 A 
ATOM      9  C   UNL     1      51.883 -31.582  46.669  0.00  0.00    +0.000 A 
ATOM     10  C   UNL     1      52.857 -31.812  45.705  0.00  0.00    +0.000 A 
ATOM     11  F   UNL     1      53.746 -30.850  45.426  0.00  0.00    +0.000 F 
ATOM     12  C   UNL     1      52.922 -33.022  45.024  0.00  0.00    +0.000 A 
ATOM     13  C   UNL     1      51.991 -34.017  45.314  0.00  0.00    +0.000 A 
ENDBRANCH   4   7
BRANCH   3  15
ATOM     14  N   UNL     1      47.306 -34.150  42.093  0.00  0.00    +0.000 NA
ATOM     15  C   UNL     1      48.372 -34.895  44.579  0.00  0.00    +0.000 A 
ATOM     16  C   UNL     1      47.833 -33.625  44.390  0.00  0.00    +0.000 A 
ATOM     17  C   UNL     1      48.384 -35.786  43.506  0.00  0.00    +0.000 A 
ATOM     18  C   UNL     1      47.315 -33.306  43.145  0.00  0.00    +0.000 A 
ATOM     19  C   UNL     1      47.839 -35.372  42.301  0.00  0.00    +0.000 A 
ENDBRANCH   3  15
BRANCH   5  20
ATOM     20  C   UNL     1      48.952 -37.477  48.777  0.00  0.00    +0.000 A 
ATOM     21  C   UNL     1      48.515 -37.075  50.042  0.00  0.00    +0.000 A 
ATOM     22  C   UNL     1      49.132 -38.840  48.525  0.00  0.00    +0.000 A 
ATOM     23  C   UNL     1      48.260 -38.014  51.039  0.00  0.00    +0.000 A 
ATOM     24  C   UNL     1      48.880 -39.786  49.515  0.00  0.00    +0.000 A 
ATOM     25  C   UNL     1      48.446 -39.365  50.765  0.00  0.00    +0.000 A 
BRANCH  25  26
ATOM     26  O   UNL     1      48.205 -40.309  51.721  0.00  0.00    +0.000 OA
ATOM     27  H   UNL     1      47.612 -40.981  51.342  0.00  0.00    +0.000 HD
ENDBRANCH  25  26
ENDBRANCH   5  20
TORSDOF 4
ENDMDL
MODEL 9
REMARK VINA RESULT:      -7.1      6.505      9.336
REMARK  Name = SB_202190.pdbqt.pdb
REMARK  4 active torsions:
REMARK  status: ('A' for Active; 'I' for Inactive)
REMARK    1  A    between atoms: C_4  and  C_7
REMARK    2  A    between atoms: C_5  and  C_19
REMARK    3  A    between atoms: C_6  and  C_8
REMARK    4  A    between atoms: C_15  and  O_26
REMARK                            x       y       z     vdW  Elec       q    Type
REMARK                         _______ _______ _______ _____ _____    ______ ____
ROOT
ATOM      1  N   UNL     1      45.790 -48.984  52.221  0.00  0.00    +0.000 N 
ATOM      2  N   UNL     1      47.878 -48.308  52.340  0.00  0.00    +0.000 NA
ATOM      3  C   UNL     1      45.786 -47.722  51.662  0.00  0.00    +0.000 A 
ATOM      4  C   UNL     1      47.107 -47.313  51.780  0.00  0.00    +0.000 A 
ATOM      5  C   UNL     1      47.069 -49.311  52.604  0.00  0.00    +0.000 A 
ATOM      6  H   UNL     1      44.989 -49.595  52.303  0.00  0.00    +0.000 HD
ENDROOT
BRANCH   4   7
ATOM      7  C   UNL     1      47.682 -46.037  51.410  0.00  0.00    +0.000 A 
ATOM      8  C   UNL     1      48.295 -45.849  50.169  0.00  0.00    +0.000 A 
ATOM      9  C   UNL     1      48.803 -44.602  49.812  0.00  0.00    +0.000 A 
ATOM     10  C   UNL     1      48.678 -43.539  50.699  0.00  0.00    +0.000 A 
ATOM     11  F   UNL     1      49.169 -42.339  50.360  0.00  0.00    +0.000 F 
ATOM     12  C   UNL     1      48.056 -43.700  51.931  0.00  0.00    +0.000 A 
ATOM     13  C   UNL     1      47.552 -44.951  52.280  0.00  0.00    +0.000 A 
ENDBRANCH   4   7
BRANCH   3  15
ATOM     14  N   UNL     1      42.237 -46.042  49.993  0.00  0.00    +0.000 NA
ATOM     15  C   UNL     1      44.581 -47.131  51.087  0.00  0.00    +0.000 A 
ATOM     16  C   UNL     1      44.354 -47.170  49.713  0.00  0.00    +0.000 A 
ATOM     17  C   UNL     1      43.616 -46.551  51.910  0.00  0.00    +0.000 A 
ATOM     18  C   UNL     1      43.184 -46.615  49.221  0.00  0.00    +0.000 A 
ATOM     19  C   UNL     1      42.479 -46.022  51.320  0.00  0.00    +0.000 A 
ENDBRANCH   3  15
BRANCH   5  20
ATOM     20  C   UNL     1      47.441 -50.585  53.209  0.00  0.00    +0.000 A 
ATOM     21  C   UNL     1      46.930 -50.934  54.463  0.00  0.00    +0.000 A 
ATOM     22  C   UNL     1      48.303 -51.474  52.560  0.00  0.00    +0.000 A 
ATOM     23  C   UNL     1      47.272 -52.145  55.060  0.00  0.00    +0.000 A 
ATOM     24  C   UNL     1      48.651 -52.687  53.149  0.00  0.00    +0.000 A 
ATOM     25  C   UNL     1      48.131 -53.013  54.395  0.00  0.00    +0.000 A 
BRANCH  25  26
ATOM     26  O   UNL     1      48.484 -54.207  54.954  0.00  0.00    +0.000 OA
ATOM     27  H   UNL     1      48.001 -54.914  54.492  0.00  0.00    +0.000 HD
ENDBRANCH  25  26
ENDBRANCH   5  20
TORSDOF 4
ENDMDL
