MODEL 1
REMARK VINA RESULT:      -7.3      0.000      0.000
REMARK  Name = Simvastatin.pdbqt.pdb
REMARK  7 active torsions:
REMARK  status: ('A' for Active; 'I' for Inactive)
REMARK    1  A    between atoms: C_2  and  C_13
REMARK    2  A    between atoms: C_3  and  O_24
REMARK    3  A    between atoms: C_14  and  C_15
REMARK    4  A    between atoms: C_20  and  O_22
REMARK    5  A    between atoms: O_24  and  C_25
REMARK    6  A    between atoms: C_25  and  C_27
REMARK    7  A    between atoms: C_27  and  C_30
REMARK                            x       y       z     vdW  Elec       q    Type
REMARK                         _______ _______ _______ _____ _____    ______ ____
ROOT
ATOM      1  C   UNL     1      49.901 -37.708  44.522  0.00  0.00    +0.000 A 
ATOM      2  C   UNL     1      49.146 -36.602  45.228  0.00  0.00    +0.000 A 
ATOM      3  C   UNL     1      49.993 -39.137  44.989  0.00  0.00    +0.000 A 
ATOM      4  C   UNL     1      48.885 -35.318  44.523  0.00  0.00    +0.000 A 
ATOM      5  C   UNL     1      50.560 -37.348  43.173  0.00  0.00    +0.000 A 
ATOM      6  C   UNL     1      50.694 -39.961  44.042  0.00  0.00    +0.000 A 
ATOM      7  C   UNL     1      51.275 -39.722  42.757  0.00  0.00    +0.000 A 
ATOM      8  C   UNL     1      51.089 -38.329  42.504  0.00  0.00    +0.000 A 
ATOM      9  C   UNL     1      49.500 -35.272  43.239  0.00  0.00    +0.000 A 
ATOM     10  C   UNL     1      50.181 -36.082  42.675  0.00  0.00    +0.000 A 
ATOM     11  C   UNL     1      48.132 -34.141  45.062  0.00  0.00    +0.000 C 
ATOM     12  C   UNL     1      51.091 -40.720  41.659  0.00  0.00    +0.000 C 
ENDROOT
BRANCH   2  13
ATOM     13  C   UNL     1      48.886 -36.721  46.624  0.00  0.00    +0.000 C 
ATOM     14  C   UNL     1      48.675 -36.831  48.140  0.00  0.00    +0.000 C 
BRANCH  14  15
ATOM     15  C   UNL     1      48.534 -36.897  49.546  0.00  0.00    +0.000 C 
ATOM     16  O   UNL     1      47.391 -36.246  50.139  0.00  0.00    +0.000 OA
ATOM     17  C   UNL     1      47.226 -36.231  51.528  0.00  0.00    +0.000 C 
ATOM     18  O   UNL     1      46.285 -35.701  52.099  0.00  0.00    +0.000 OA
ATOM     19  C   UNL     1      48.279 -36.899  52.252  0.00  0.00    +0.000 C 
ATOM     20  C   UNL     1      49.456 -37.568  51.855  0.00  0.00    +0.000 C 
ATOM     21  C   UNL     1      49.460 -37.491  50.444  0.00  0.00    +0.000 C 
BRANCH  20  22
ATOM     22  O   UNL     1      50.594 -37.512  52.605  0.00  0.00    +0.000 OA
ATOM     23  H   UNL     1      50.580 -38.139  53.353  0.00  0.00    +0.000 HD
ENDBRANCH  20  22
ENDBRANCH  14  15
ENDBRANCH   2  13
BRANCH   3  24
ATOM     24  O   UNL     1      48.830 -39.645  45.574  0.00  0.00    +0.000 OA
BRANCH  24  25
ATOM     25  C   UNL     1      49.064 -40.205  46.817  0.00  0.00    +0.000 C 
ATOM     26  O   UNL     1      50.091 -40.007  47.470  0.00  0.00    +0.000 OA
BRANCH  25  27
ATOM     27  C   UNL     1      47.870 -41.125  47.251  0.00  0.00    +0.000 C 
ATOM     28  C   UNL     1      48.289 -42.635  47.089  0.00  0.00    +0.000 C 
ATOM     29  C   UNL     1      46.593 -40.856  46.358  0.00  0.00    +0.000 C 
BRANCH  27  30
ATOM     30  C   UNL     1      47.559 -40.803  48.672  0.00  0.00    +0.000 C 
ATOM     31  C   UNL     1      47.187 -40.460  50.145  0.00  0.00    +0.000 C 
ENDBRANCH  27  30
ENDBRANCH  25  27
ENDBRANCH  24  25
ENDBRANCH   3  24
TORSDOF 7
ENDMDL
MODEL 2
REMARK VINA RESULT:      -7.2      2.633      5.895
REMARK  Name = Simvastatin.pdbqt.pdb
REMARK  7 active torsions:
REMARK  status: ('A' for Active; 'I' for Inactive)
REMARK    1  A    between atoms: C_2  and  C_13
REMARK    2  A    between atoms: C_3  and  O_24
REMARK    3  A    between atoms: C_14  and  C_15
REMARK    4  A    between atoms: C_20  and  O_22
REMARK    5  A    between atoms: O_24  and  C_25
REMARK    6  A    between atoms: C_25  and  C_27
REMARK    7  A    between atoms: C_27  and  C_30
REMARK                            x       y       z     vdW  Elec       q    Type
REMARK                         _______ _______ _______ _____ _____    ______ ____
ROOT
ATOM      1  C   UNL     1      48.339 -35.061  44.642  0.00  0.00    +0.000 A 
ATOM      2  C   UNL     1      48.913 -36.288  45.317  0.00  0.00    +0.000 A 
ATOM      3  C   UNL     1      48.104 -33.730  45.306  0.00  0.00    +0.000 A 
ATOM      4  C   UNL     1      49.368 -37.440  44.493  0.00  0.00    +0.000 A 
ATOM      5  C   UNL     1      48.048 -35.172  43.130  0.00  0.00    +0.000 A 
ATOM      6  C   UNL     1      47.649 -32.741  44.367  0.00  0.00    +0.000 A 
ATOM      7  C   UNL     1      47.414 -32.745  42.955  0.00  0.00    +0.000 A 
ATOM      8  C   UNL     1      47.685 -34.079  42.526  0.00  0.00    +0.000 A 
ATOM      9  C   UNL     1      49.097 -37.254  43.107  0.00  0.00    +0.000 A 
ATOM     10  C   UNL     1      48.565 -36.344  42.535  0.00  0.00    +0.000 A 
ATOM     11  C   UNL     1      49.985 -38.710  44.997  0.00  0.00    +0.000 C 
ATOM     12  C   UNL     1      47.850 -31.581  42.125  0.00  0.00    +0.000 C 
ENDROOT
BRANCH   2  13
ATOM     13  C   UNL     1      48.811 -36.413  46.733  0.00  0.00    +0.000 C 
ATOM     14  C   UNL     1      48.635 -36.516  48.253  0.00  0.00    +0.000 C 
BRANCH  14  15
ATOM     15  C   UNL     1      48.408 -36.605  49.648  0.00  0.00    +0.000 C 
ATOM     16  O   UNL     1      47.164 -36.086  50.162  0.00  0.00    +0.000 OA
ATOM     17  C   UNL     1      46.906 -36.097  51.537  0.00  0.00    +0.000 C 
ATOM     18  O   UNL     1      45.877 -35.676  52.043  0.00  0.00    +0.000 OA
ATOM     19  C   UNL     1      47.975 -36.650  52.331  0.00  0.00    +0.000 C 
ATOM     20  C   UNL     1      49.242 -37.185  52.013  0.00  0.00    +0.000 C 
ATOM     21  C   UNL     1      49.332 -37.100  50.606  0.00  0.00    +0.000 C 
BRANCH  20  22
ATOM     22  O   UNL     1      50.315 -37.009  52.837  0.00  0.00    +0.000 OA
ATOM     23  H   UNL     1      50.972 -36.388  52.468  0.00  0.00    +0.000 HD
ENDBRANCH  20  22
ENDBRANCH  14  15
ENDBRANCH   2  13
BRANCH   3  24
ATOM     24  O   UNL     1      49.072 -33.356  46.242  0.00  0.00    +0.000 OA
BRANCH  24  25
ATOM     25  C   UNL     1      49.837 -32.286  45.813  0.00  0.00    +0.000 C 
ATOM     26  O   UNL     1      49.417 -31.129  45.754  0.00  0.00    +0.000 OA
BRANCH  25  27
ATOM     27  C   UNL     1      51.276 -32.756  45.401  0.00  0.00    +0.000 C 
ATOM     28  C   UNL     1      51.632 -34.084  46.168  0.00  0.00    +0.000 C 
ATOM     29  C   UNL     1      52.356 -31.657  45.763  0.00  0.00    +0.000 C 
BRANCH  27  30
ATOM     30  C   UNL     1      51.264 -32.974  43.927  0.00  0.00    +0.000 C 
ATOM     31  C   UNL     1      51.234 -33.156  42.381  0.00  0.00    +0.000 C 
ENDBRANCH  27  30
ENDBRANCH  25  27
ENDBRANCH  24  25
ENDBRANCH   3  24
TORSDOF 7
ENDMDL
MODEL 3
REMARK VINA RESULT:      -7.0     14.652     18.134
REMARK  Name = Simvastatin.pdbqt.pdb
REMARK  7 active torsions:
REMARK  status: ('A' for Active; 'I' for Inactive)
REMARK    1  A    between atoms: C_2  and  C_13
REMARK    2  A    between atoms: C_3  and  O_24
REMARK    3  A    between atoms: C_14  and  C_15
REMARK    4  A    between atoms: C_20  and  O_22
REMARK    5  A    between atoms: O_24  and  C_25
REMARK    6  A    between atoms: C_25  and  C_27
REMARK    7  A    between atoms: C_27  and  C_30
REMARK                            x       y       z     vdW  Elec       q    Type
REMARK                         _______ _______ _______ _____ _____    ______ ____
ROOT
ATOM      1  C   UNL     1      45.397 -51.657  53.307  0.00  0.00    +0.000 A 
ATOM      2  C   UNL     1      44.407 -52.799  53.245  0.00  0.00    +0.000 A 
ATOM      3  C   UNL     1      46.557 -51.559  54.263  0.00  0.00    +0.000 A 
ATOM      4  C   UNL     1      43.493 -52.923  52.077  0.00  0.00    +0.000 A 
ATOM      5  C   UNL     1      45.245 -50.545  52.247  0.00  0.00    +0.000 A 
ATOM      6  C   UNL     1      47.371 -50.404  53.996  0.00  0.00    +0.000 A 
ATOM      7  C   UNL     1      47.333 -49.371  53.007  0.00  0.00    +0.000 A 
ATOM      8  C   UNL     1      46.176 -49.639  52.215  0.00  0.00    +0.000 A 
ATOM      9  C   UNL     1      43.624 -51.831  51.171  0.00  0.00    +0.000 A 
ATOM     10  C   UNL     1      44.326 -50.860  51.221  0.00  0.00    +0.000 A 
ATOM     11  C   UNL     1      42.481 -54.003  51.845  0.00  0.00    +0.000 C 
ATOM     12  C   UNL     1      48.601 -48.913  52.360  0.00  0.00    +0.000 C 
ENDROOT
BRANCH   2  13
ATOM     13  C   UNL     1      44.211 -53.612  54.400  0.00  0.00    +0.000 C 
ATOM     14  C   UNL     1      43.948 -54.441  55.663  0.00  0.00    +0.000 C 
BRANCH  14  15
ATOM     15  C   UNL     1      43.648 -55.177  56.833  0.00  0.00    +0.000 C 
ATOM     16  O   UNL     1      42.272 -55.552  57.058  0.00  0.00    +0.000 OA
ATOM     17  C   UNL     1      41.905 -56.234  58.223  0.00  0.00    +0.000 C 
ATOM     18  O   UNL     1      40.763 -56.583  58.480  0.00  0.00    +0.000 OA
ATOM     19  C   UNL     1      43.002 -56.495  59.122  0.00  0.00    +0.000 C 
ATOM     20  C   UNL     1      44.382 -56.201  59.078  0.00  0.00    +0.000 C 
ATOM     21  C   UNL     1      44.573 -55.526  57.853  0.00  0.00    +0.000 C 
BRANCH  20  22
ATOM     22  O   UNL     1      45.080 -55.897  60.210  0.00  0.00    +0.000 OA
ATOM     23  H   UNL     1      45.600 -56.654  60.543  0.00  0.00    +0.000 HD
ENDBRANCH  20  22
ENDBRANCH  14  15
ENDBRANCH   2  13
BRANCH   3  24
ATOM     24  O   UNL     1      47.198 -52.769  54.542  0.00  0.00    +0.000 OA
BRANCH  24  25
ATOM     25  C   UNL     1      47.473 -52.924  55.889  0.00  0.00    +0.000 C 
ATOM     26  O   UNL     1      46.865 -52.328  56.781  0.00  0.00    +0.000 OA
BRANCH  25  27
ATOM     27  C   UNL     1      48.659 -53.927  56.108  0.00  0.00    +0.000 C 
ATOM     28  C   UNL     1      48.088 -55.388  56.246  0.00  0.00    +0.000 C 
ATOM     29  C   UNL     1      49.466 -53.573  57.421  0.00  0.00    +0.000 C 
BRANCH  27  30
ATOM     30  C   UNL     1      49.558 -53.812  54.925  0.00  0.00    +0.000 C 
ATOM     31  C   UNL     1      50.501 -53.740  53.688  0.00  0.00    +0.000 C 
ENDBRANCH  27  30
ENDBRANCH  25  27
ENDBRANCH  24  25
ENDBRANCH   3  24
TORSDOF 7
ENDMDL
MODEL 4
REMARK VINA RESULT:      -6.9     13.600     17.006
REMARK  Name = Simvastatin.pdbqt.pdb
REMARK  7 active torsions:
REMARK  status: ('A' for Active; 'I' for Inactive)
REMARK    1  A    between atoms: C_2  and  C_13
REMARK    2  A    between atoms: C_3  and  O_24
REMARK    3  A    between atoms: C_14  and  C_15
REMARK    4  A    between atoms: C_20  and  O_22
REMARK    5  A    between atoms: O_24  and  C_25
REMARK    6  A    between atoms: C_25  and  C_27
REMARK    7  A    between atoms: C_27  and  C_30
REMARK                            x       y       z     vdW  Elec       q    Type
REMARK                         _______ _______ _______ _____ _____    ______ ____
ROOT
ATOM      1  C   UNL     1      45.632 -50.628  52.533  0.00  0.00    +0.000 A 
ATOM      2  C   UNL     1      44.511 -51.642  52.469  0.00  0.00    +0.000 A 
ATOM      3  C   UNL     1      46.885 -50.764  53.359  0.00  0.00    +0.000 A 
ATOM      4  C   UNL     1      43.477 -51.536  51.405  0.00  0.00    +0.000 A 
ATOM      5  C   UNL     1      45.509 -49.396  51.611  0.00  0.00    +0.000 A 
ATOM      6  C   UNL     1      47.800 -49.682  53.118  0.00  0.00    +0.000 A 
ATOM      7  C   UNL     1      47.789 -48.547  52.246  0.00  0.00    +0.000 A 
ATOM      8  C   UNL     1      46.534 -48.598  51.566  0.00  0.00    +0.000 A 
ATOM      9  C   UNL     1      43.647 -50.371  50.602  0.00  0.00    +0.000 A 
ATOM     10  C   UNL     1      44.461 -49.493  50.669  0.00  0.00    +0.000 A 
ATOM     11  C   UNL     1      42.325 -52.468  51.182  0.00  0.00    +0.000 C 
ATOM     12  C   UNL     1      49.031 -48.161  51.510  0.00  0.00    +0.000 C 
ENDROOT
BRANCH   2  13
ATOM     13  C   UNL     1      44.335 -52.552  53.553  0.00  0.00    +0.000 C 
ATOM     14  C   UNL     1      44.150 -53.474  54.764  0.00  0.00    +0.000 C 
BRANCH  14  15
ATOM     15  C   UNL     1      43.961 -54.274  55.916  0.00  0.00    +0.000 C 
ATOM     16  O   UNL     1      42.647 -54.827  56.144  0.00  0.00    +0.000 OA
ATOM     17  C   UNL     1      42.385 -55.581  57.292  0.00  0.00    +0.000 C 
ATOM     18  O   UNL     1      41.300 -56.079  57.550  0.00  0.00    +0.000 OA
ATOM     19  C   UNL     1      43.517 -55.723  58.173  0.00  0.00    +0.000 C 
ATOM     20  C   UNL     1      44.848 -55.255  58.125  0.00  0.00    +0.000 C 
ATOM     21  C   UNL     1      44.936 -54.528  56.917  0.00  0.00    +0.000 C 
BRANCH  20  22
ATOM     22  O   UNL     1      45.516 -54.894  59.259  0.00  0.00    +0.000 OA
ATOM     23  H   UNL     1      46.036 -55.629  59.636  0.00  0.00    +0.000 HD
ENDBRANCH  20  22
ENDBRANCH  14  15
ENDBRANCH   2  13
BRANCH   3  24
ATOM     24  O   UNL     1      47.401 -52.060  53.444  0.00  0.00    +0.000 OA
BRANCH  24  25
ATOM     25  C   UNL     1      47.649 -52.446  54.748  0.00  0.00    +0.000 C 
ATOM     26  O   UNL     1      47.162 -51.881  55.730  0.00  0.00    +0.000 OA
BRANCH  25  27
ATOM     27  C   UNL     1      48.634 -53.666  54.794  0.00  0.00    +0.000 C 
ATOM     28  C   UNL     1      49.716 -53.505  53.661  0.00  0.00    +0.000 C 
ATOM     29  C   UNL     1      47.862 -55.028  54.567  0.00  0.00    +0.000 C 
BRANCH  27  30
ATOM     30  C   UNL     1      49.266 -53.672  56.144  0.00  0.00    +0.000 C 
ATOM     31  C   UNL     1      49.883 -53.692  57.573  0.00  0.00    +0.000 C 
ENDBRANCH  27  30
ENDBRANCH  25  27
ENDBRANCH  24  25
ENDBRANCH   3  24
TORSDOF 7
ENDMDL
MODEL 5
REMARK VINA RESULT:      -6.8      5.162      9.025
REMARK  Name = Simvastatin.pdbqt.pdb
REMARK  7 active torsions:
REMARK  status: ('A' for Active; 'I' for Inactive)
REMARK    1  A    between atoms: C_2  and  C_13
REMARK    2  A    between atoms: C_3  and  O_24
REMARK    3  A    between atoms: C_14  and  C_15
REMARK    4  A    between atoms: C_20  and  O_22
REMARK    5  A    between atoms: O_24  and  C_25
REMARK    6  A    between atoms: C_25  and  C_27
REMARK    7  A    between atoms: C_27  and  C_30
REMARK                            x       y       z     vdW  Elec       q    Type
REMARK                         _______ _______ _______ _____ _____    ______ ____
ROOT
ATOM      1  C   UNL     1      48.655 -46.052  50.858  0.00  0.00    +0.000 A 
ATOM      2  C   UNL     1      49.558 -45.249  49.948  0.00  0.00    +0.000 A 
ATOM      3  C   UNL     1      47.273 -45.644  51.297  0.00  0.00    +0.000 A 
ATOM      4  C   UNL     1      50.766 -45.884  49.356  0.00  0.00    +0.000 A 
ATOM      5  C   UNL     1      49.171 -47.438  51.303  0.00  0.00    +0.000 A 
ATOM      6  C   UNL     1      46.636 -46.674  52.072  0.00  0.00    +0.000 A 
ATOM      7  C   UNL     1      47.016 -47.994  52.473  0.00  0.00    +0.000 A 
ATOM      8  C   UNL     1      48.339 -48.181  51.970  0.00  0.00    +0.000 A 
ATOM      9  C   UNL     1      50.965 -47.213  49.832  0.00  0.00    +0.000 A 
ATOM     10  C   UNL     1      50.332 -47.859  50.619  0.00  0.00    +0.000 A 
ATOM     11  C   UNL     1      51.743 -45.245  48.417  0.00  0.00    +0.000 C 
ATOM     12  C   UNL     1      46.020 -49.106  52.412  0.00  0.00    +0.000 C 
ENDROOT
BRANCH   2  13
ATOM     13  C   UNL     1      49.363 -43.840  49.844  0.00  0.00    +0.000 C 
ATOM     14  C   UNL     1      49.221 -42.316  49.756  0.00  0.00    +0.000 C 
BRANCH  14  15
ATOM     15  C   UNL     1      49.155 -40.904  49.677  0.00  0.00    +0.000 C 
ATOM     16  O   UNL     1      48.180 -40.229  50.499  0.00  0.00    +0.000 OA
ATOM     17  C   UNL     1      48.030 -38.840  50.424  0.00  0.00    +0.000 C 
ATOM     18  O   UNL     1      47.228 -38.202  51.088  0.00  0.00    +0.000 OA
ATOM     19  C   UNL     1      48.911 -38.204  49.476  0.00  0.00    +0.000 C 
ATOM     20  C   UNL     1      49.900 -38.690  48.594  0.00  0.00    +0.000 C 
ATOM     21  C   UNL     1      49.919 -40.087  48.802  0.00  0.00    +0.000 C 
BRANCH  20  22
ATOM     22  O   UNL     1      50.107 -38.118  47.373  0.00  0.00    +0.000 OA
ATOM     23  H   UNL     1      49.330 -38.194  46.788  0.00  0.00    +0.000 HD
ENDBRANCH  20  22
ENDBRANCH  14  15
ENDBRANCH   2  13
BRANCH   3  24
ATOM     24  O   UNL     1      46.515 -44.983  50.326  0.00  0.00    +0.000 OA
BRANCH  24  25
ATOM     25  C   UNL     1      45.500 -45.774  49.819  0.00  0.00    +0.000 C 
ATOM     26  O   UNL     1      44.501 -46.097  50.466  0.00  0.00    +0.000 OA
BRANCH  25  27
ATOM     27  C   UNL     1      45.809 -46.207  48.344  0.00  0.00    +0.000 C 
ATOM     28  C   UNL     1      46.724 -45.121  47.662  0.00  0.00    +0.000 C 
ATOM     29  C   UNL     1      44.477 -46.346  47.502  0.00  0.00    +0.000 C 
BRANCH  27  30
ATOM     30  C   UNL     1      46.498 -47.526  48.406  0.00  0.00    +0.000 C 
ATOM     31  C   UNL     1      47.218 -48.902  48.521  0.00  0.00    +0.000 C 
ENDBRANCH  27  30
ENDBRANCH  25  27
ENDBRANCH  24  25
ENDBRANCH   3  24
TORSDOF 7
ENDMDL
MODEL 6
REMARK VINA RESULT:      -6.7      3.777      8.008
REMARK  Name = Simvastatin.pdbqt.pdb
REMARK  7 active torsions:
REMARK  status: ('A' for Active; 'I' for Inactive)
REMARK    1  A    between atoms: C_2  and  C_13
REMARK    2  A    between atoms: C_3  and  O_24
REMARK    3  A    between atoms: C_14  and  C_15
REMARK    4  A    between atoms: C_20  and  O_22
REMARK    5  A    between atoms: O_24  and  C_25
REMARK    6  A    between atoms: C_25  and  C_27
REMARK    7  A    between atoms: C_27  and  C_30
REMARK                            x       y       z     vdW  Elec       q    Type
REMARK                         _______ _______ _______ _____ _____    ______ ____
ROOT
ATOM      1  C   UNL     1      49.327 -40.556  49.125  0.00  0.00    +0.000 A 
ATOM      2  C   UNL     1      48.976 -41.963  49.558  0.00  0.00    +0.000 A 
ATOM      3  C   UNL     1      50.035 -40.187  47.849  0.00  0.00    +0.000 A 
ATOM      4  C   UNL     1      48.026 -42.176  50.683  0.00  0.00    +0.000 A 
ATOM      5  C   UNL     1      48.842 -39.407  50.036  0.00  0.00    +0.000 A 
ATOM      6  C   UNL     1      50.122 -38.762  47.681  0.00  0.00    +0.000 A 
ATOM      7  C   UNL     1      49.652 -37.643  48.439  0.00  0.00    +0.000 A 
ATOM      8  C   UNL     1      49.023 -38.198  49.594  0.00  0.00    +0.000 A 
ATOM      9  C   UNL     1      47.626 -40.951  51.291  0.00  0.00    +0.000 A 
ATOM     10  C   UNL     1      47.944 -39.821  51.044  0.00  0.00    +0.000 A 
ATOM     11  C   UNL     1      47.552 -43.494  51.214  0.00  0.00    +0.000 C 
ATOM     12  C   UNL     1      49.043 -36.472  47.737  0.00  0.00    +0.000 C 
ENDROOT
BRANCH   2  13
ATOM     13  C   UNL     1      49.723 -43.057  49.032  0.00  0.00    +0.000 C 
ATOM     14  C   UNL     1      50.588 -44.195  48.475  0.00  0.00    +0.000 C 
BRANCH  14  15
ATOM     15  C   UNL     1      51.436 -45.219  47.990  0.00  0.00    +0.000 C 
ATOM     16  O   UNL     1      50.820 -46.423  47.488  0.00  0.00    +0.000 OA
ATOM     17  C   UNL     1      51.607 -47.491  47.045  0.00  0.00    +0.000 C 
ATOM     18  O   UNL     1      51.156 -48.538  46.608  0.00  0.00    +0.000 OA
ATOM     19  C   UNL     1      53.026 -47.259  47.154  0.00  0.00    +0.000 C 
ATOM     20  C   UNL     1      53.798 -46.173  47.620  0.00  0.00    +0.000 C 
ATOM     21  C   UNL     1      52.856 -45.199  48.017  0.00  0.00    +0.000 C 
BRANCH  20  22
ATOM     22  O   UNL     1      54.982 -46.369  48.269  0.00  0.00    +0.000 OA
ATOM     23  H   UNL     1      54.869 -46.457  49.235  0.00  0.00    +0.000 HD
ENDBRANCH  20  22
ENDBRANCH  14  15
ENDBRANCH   2  13
BRANCH   3  24
ATOM     24  O   UNL     1      49.695 -40.963  46.737  0.00  0.00    +0.000 OA
BRANCH  24  25
ATOM     25  C   UNL     1      49.687 -40.231  45.563  0.00  0.00    +0.000 C 
ATOM     26  O   UNL     1      50.704 -39.771  45.041  0.00  0.00    +0.000 OA
BRANCH  25  27
ATOM     27  C   UNL     1      48.226 -40.056  45.022  0.00  0.00    +0.000 C 
ATOM     28  C   UNL     1      48.118 -40.706  43.591  0.00  0.00    +0.000 C 
ATOM     29  C   UNL     1      47.840 -38.526  44.912  0.00  0.00    +0.000 C 
BRANCH  27  30
ATOM     30  C   UNL     1      47.313 -40.730  45.987  0.00  0.00    +0.000 C 
ATOM     31  C   UNL     1      46.356 -41.392  47.022  0.00  0.00    +0.000 C 
ENDBRANCH  27  30
ENDBRANCH  25  27
ENDBRANCH  24  25
ENDBRANCH   3  24
TORSDOF 7
ENDMDL
MODEL 7
REMARK VINA RESULT:      -6.6     14.332     18.635
REMARK  Name = Simvastatin.pdbqt.pdb
REMARK  7 active torsions:
REMARK  status: ('A' for Active; 'I' for Inactive)
REMARK    1  A    between atoms: C_2  and  C_13
REMARK    2  A    between atoms: C_3  and  O_24
REMARK    3  A    between atoms: C_14  and  C_15
REMARK    4  A    between atoms: C_20  and  O_22
REMARK    5  A    between atoms: O_24  and  C_25
REMARK    6  A    between atoms: C_25  and  C_27
REMARK    7  A    between atoms: C_27  and  C_30
REMARK                            x       y       z     vdW  Elec       q    Type
REMARK                         _______ _______ _______ _____ _____    ______ ____
ROOT
ATOM      1  C   UNL     1      45.844 -54.421  57.489  0.00  0.00    +0.000 A 
ATOM      2  C   UNL     1      47.134 -53.814  56.980  0.00  0.00    +0.000 A 
ATOM      3  C   UNL     1      44.534 -54.433  56.747  0.00  0.00    +0.000 A 
ATOM      4  C   UNL     1      48.417 -54.122  57.667  0.00  0.00    +0.000 A 
ATOM      5  C   UNL     1      45.909 -55.155  58.846  0.00  0.00    +0.000 A 
ATOM      6  C   UNL     1      43.529 -55.179  57.455  0.00  0.00    +0.000 A 
ATOM      7  C   UNL     1      43.524 -55.931  58.672  0.00  0.00    +0.000 A 
ATOM      8  C   UNL     1      44.837 -55.791  59.215  0.00  0.00    +0.000 A 
ATOM      9  C   UNL     1      48.228 -54.918  58.833  0.00  0.00    +0.000 A 
ATOM     10  C   UNL     1      47.223 -55.346  59.327  0.00  0.00    +0.000 A 
ATOM     11  C   UNL     1      49.778 -53.632  57.277  0.00  0.00    +0.000 C 
ATOM     12  C   UNL     1      42.819 -57.248  58.731  0.00  0.00    +0.000 C 
ENDROOT
BRANCH   2  13
ATOM     13  C   UNL     1      47.076 -52.790  55.991  0.00  0.00    +0.000 C 
ATOM     14  C   UNL     1      47.084 -51.674  54.938  0.00  0.00    +0.000 C 
BRANCH  14  15
ATOM     15  C   UNL     1      47.156 -50.650  53.964  0.00  0.00    +0.000 C 
ATOM     16  O   UNL     1      48.119 -50.799  52.900  0.00  0.00    +0.000 OA
ATOM     17  C   UNL     1      48.274 -49.795  51.939  0.00  0.00    +0.000 C 
ATOM     18  O   UNL     1      49.068 -49.852  51.012  0.00  0.00    +0.000 OA
ATOM     19  C   UNL     1      47.410 -48.657  52.133  0.00  0.00    +0.000 C 
ATOM     20  C   UNL     1      46.433 -48.335  53.099  0.00  0.00    +0.000 C 
ATOM     21  C   UNL     1      46.407 -49.443  53.975  0.00  0.00    +0.000 C 
BRANCH  20  22
ATOM     22  O   UNL     1      46.246 -47.051  53.521  0.00  0.00    +0.000 OA
ATOM     23  H   UNL     1      47.089 -46.578  53.664  0.00  0.00    +0.000 HD
ENDBRANCH  20  22
ENDBRANCH  14  15
ENDBRANCH   2  13
BRANCH   3  24
ATOM     24  O   UNL     1      44.637 -54.611  55.364  0.00  0.00    +0.000 OA
BRANCH  24  25
ATOM     25  C   UNL     1      43.825 -53.743  54.657  0.00  0.00    +0.000 C 
ATOM     26  O   UNL     1      42.945 -53.056  55.180  0.00  0.00    +0.000 OA
BRANCH  25  27
ATOM     27  C   UNL     1      44.165 -53.778  53.127  0.00  0.00    +0.000 C 
ATOM     28  C   UNL     1      44.118 -52.314  52.547  0.00  0.00    +0.000 C 
ATOM     29  C   UNL     1      43.125 -54.669  52.335  0.00  0.00    +0.000 C 
BRANCH  27  30
ATOM     30  C   UNL     1      45.527 -54.366  52.990  0.00  0.00    +0.000 C 
ATOM     31  C   UNL     1      46.953 -54.985  52.897  0.00  0.00    +0.000 C 
ENDBRANCH  27  30
ENDBRANCH  25  27
ENDBRANCH  24  25
ENDBRANCH   3  24
TORSDOF 7
ENDMDL
MODEL 8
REMARK VINA RESULT:      -6.5      3.605      6.972
REMARK  Name = Simvastatin.pdbqt.pdb
REMARK  7 active torsions:
REMARK  status: ('A' for Active; 'I' for Inactive)
REMARK    1  A    between atoms: C_2  and  C_13
REMARK    2  A    between atoms: C_3  and  O_24
REMARK    3  A    between atoms: C_14  and  C_15
REMARK    4  A    between atoms: C_20  and  O_22
REMARK    5  A    between atoms: O_24  and  C_25
REMARK    6  A    between atoms: C_25  and  C_27
REMARK    7  A    between atoms: C_27  and  C_30
REMARK                            x       y       z     vdW  Elec       q    Type
REMARK                         _______ _______ _______ _____ _____    ______ ____
ROOT
ATOM      1  C   UNL     1      49.108 -32.752  44.699  0.00  0.00    +0.000 A 
ATOM      2  C   UNL     1      49.121 -34.260  44.571  0.00  0.00    +0.000 A 
ATOM      3  C   UNL     1      49.473 -31.978  45.938  0.00  0.00    +0.000 A 
ATOM      4  C   UNL     1      49.027 -34.889  43.226  0.00  0.00    +0.000 A 
ATOM      5  C   UNL     1      48.768 -31.949  43.425  0.00  0.00    +0.000 A 
ATOM      6  C   UNL     1      49.462 -30.560  45.703  0.00  0.00    +0.000 A 
ATOM      7  C   UNL     1      49.220 -29.747  44.550  0.00  0.00    +0.000 A 
ATOM      8  C   UNL     1      48.891 -30.657  43.501  0.00  0.00    +0.000 A 
ATOM      9  C   UNL     1      48.834 -33.927  42.192  0.00  0.00    +0.000 A 
ATOM     10  C   UNL     1      48.726 -32.734  42.252  0.00  0.00    +0.000 A 
ATOM     11  C   UNL     1      49.057 -36.356  42.922  0.00  0.00    +0.000 C 
ATOM     12  C   UNL     1      50.092 -28.563  44.278  0.00  0.00    +0.000 C 
ENDROOT
BRANCH   2  13
ATOM     13  C   UNL     1      49.003 -35.057  45.747  0.00  0.00    +0.000 C 
ATOM     14  C   UNL     1      48.942 -35.890  47.033  0.00  0.00    +0.000 C 
BRANCH  14  15
ATOM     15  C   UNL     1      48.930 -36.619  48.246  0.00  0.00    +0.000 C 
ATOM     16  O   UNL     1      48.190 -36.069  49.356  0.00  0.00    +0.000 OA
ATOM     17  C   UNL     1      48.185 -36.716  50.595  0.00  0.00    +0.000 C 
ATOM     18  O   UNL     1      47.582 -36.310  51.577  0.00  0.00    +0.000 OA
ATOM     19  C   UNL     1      48.969 -37.926  50.629  0.00  0.00    +0.000 C 
ATOM     20  C   UNL     1      49.753 -38.600  49.669  0.00  0.00    +0.000 C 
ATOM     21  C   UNL     1      49.643 -37.821  48.496  0.00  0.00    +0.000 C 
BRANCH  20  22
ATOM     22  O   UNL     1      50.895 -39.258  50.019  0.00  0.00    +0.000 OA
ATOM     23  H   UNL     1      50.730 -40.187  50.272  0.00  0.00    +0.000 HD
ENDBRANCH  20  22
ENDBRANCH  14  15
ENDBRANCH   2  13
BRANCH   3  24
ATOM     24  O   UNL     1      50.527 -32.516  46.683  0.00  0.00    +0.000 OA
BRANCH  24  25
ATOM     25  C   UNL     1      51.651 -31.711  46.666  0.00  0.00    +0.000 C 
ATOM     26  O   UNL     1      51.730 -30.639  47.271  0.00  0.00    +0.000 OA
BRANCH  25  27
ATOM     27  C   UNL     1      52.775 -32.335  45.768  0.00  0.00    +0.000 C 
ATOM     28  C   UNL     1      52.547 -33.889  45.650  0.00  0.00    +0.000 C 
ATOM     29  C   UNL     1      54.207 -32.079  46.390  0.00  0.00    +0.000 C 
BRANCH  27  30
ATOM     30  C   UNL     1      52.689 -31.678  44.433  0.00  0.00    +0.000 C 
ATOM     31  C   UNL     1      52.555 -30.975  43.050  0.00  0.00    +0.000 C 
ENDBRANCH  27  30
ENDBRANCH  25  27
ENDBRANCH  24  25
ENDBRANCH   3  24
TORSDOF 7
ENDMDL
MODEL 9
REMARK VINA RESULT:      -6.4     16.649     20.197
REMARK  Name = Simvastatin.pdbqt.pdb
REMARK  7 active torsions:
REMARK  status: ('A' for Active; 'I' for Inactive)
REMARK    1  A    between atoms: C_2  and  C_13
REMARK    2  A    between atoms: C_3  and  O_24
REMARK    3  A    between atoms: C_14  and  C_15
REMARK    4  A    between atoms: C_20  and  O_22
REMARK    5  A    between atoms: O_24  and  C_25
REMARK    6  A    between atoms: C_25  and  C_27
REMARK    7  A    between atoms: C_27  and  C_30
REMARK                            x       y       z     vdW  Elec       q    Type
REMARK                         _______ _______ _______ _____ _____    ______ ____
ROOT
ATOM      1  C   UNL     1      45.243 -53.320  55.368  0.00  0.00    +0.000 A 
ATOM      2  C   UNL     1      44.408 -54.472  55.884  0.00  0.00    +0.000 A 
ATOM      3  C   UNL     1      46.692 -53.078  55.697  0.00  0.00    +0.000 A 
ATOM      4  C   UNL     1      43.088 -54.766  55.262  0.00  0.00    +0.000 A 
ATOM      5  C   UNL     1      44.565 -52.366  54.361  0.00  0.00    +0.000 A 
ATOM      6  C   UNL     1      47.224 -51.962  54.964  0.00  0.00    +0.000 A 
ATOM      7  C   UNL     1      46.687 -51.074  53.979  0.00  0.00    +0.000 A 
ATOM      8  C   UNL     1      45.323 -51.462  53.816  0.00  0.00    +0.000 A 
ATOM      9  C   UNL     1      42.733 -53.807  54.270  0.00  0.00    +0.000 A 
ATOM     10  C   UNL     1      43.316 -52.830  53.891  0.00  0.00    +0.000 A 
ATOM     11  C   UNL     1      42.156 -55.880  55.630  0.00  0.00    +0.000 C 
ATOM     12  C   UNL     1      47.511 -50.694  52.791  0.00  0.00    +0.000 C 
ENDROOT
BRANCH   2  13
ATOM     13  C   UNL     1      44.793 -55.122  57.094  0.00  0.00    +0.000 C 
ATOM     14  C   UNL     1      45.185 -55.883  58.365  0.00  0.00    +0.000 C 
BRANCH  14  15
ATOM     15  C   UNL     1      45.549 -56.641  59.505  0.00  0.00    +0.000 C 
ATOM     16  O   UNL     1      44.530 -56.905  60.491  0.00  0.00    +0.000 OA
ATOM     17  C   UNL     1      44.841 -57.602  61.663  0.00  0.00    +0.000 C 
ATOM     18  O   UNL     1      44.031 -57.861  62.540  0.00  0.00    +0.000 OA
ATOM     19  C   UNL     1      46.225 -57.994  61.763  0.00  0.00    +0.000 C 
ATOM     20  C   UNL     1      47.345 -57.819  60.923  0.00  0.00    +0.000 C 
ATOM     21  C   UNL     1      46.855 -57.111  59.803  0.00  0.00    +0.000 C 
BRANCH  20  22
ATOM     22  O   UNL     1      48.595 -57.625  61.435  0.00  0.00    +0.000 OA
ATOM     23  H   UNL     1      48.951 -56.740  61.227  0.00  0.00    +0.000 HD
ENDBRANCH  20  22
ENDBRANCH  14  15
ENDBRANCH   2  13
BRANCH   3  24
ATOM     24  O   UNL     1      47.476 -54.231  55.805  0.00  0.00    +0.000 OA
BRANCH  24  25
ATOM     25  C   UNL     1      48.255 -54.237  56.947  0.00  0.00    +0.000 C 
ATOM     26  O   UNL     1      47.955 -53.631  57.978  0.00  0.00    +0.000 OA
BRANCH  25  27
ATOM     27  C   UNL     1      49.555 -55.087  56.736  0.00  0.00    +0.000 C 
ATOM     28  C   UNL     1      49.172 -56.612  56.638  0.00  0.00    +0.000 C 
ATOM     29  C   UNL     1      50.561 -54.895  57.941  0.00  0.00    +0.000 C 
BRANCH  27  30
ATOM     30  C   UNL     1      50.193 -54.612  55.476  0.00  0.00    +0.000 C 
ATOM     31  C   UNL     1      50.903 -54.115  54.182  0.00  0.00    +0.000 C 
ENDBRANCH  27  30
ENDBRANCH  25  27
ENDBRANCH  24  25
ENDBRANCH   3  24
TORSDOF 7
ENDMDL
