MODEL 1
REMARK VINA RESULT:      -8.2      0.000      0.000
REMARK  Name = Staurosporine.pdbqt.pdb
REMARK  2 active torsions:
REMARK  status: ('A' for Active; 'I' for Inactive)
REMARK    1  A    between atoms: C_3  and  O_11
REMARK    2  A    between atoms: C_5  and  N_8
REMARK                            x       y       z     vdW  Elec       q    Type
REMARK                         _______ _______ _______ _____ _____    ______ ____
ROOT
ATOM      1  O   UNL     1      48.881 -45.190  45.785  0.00  0.00    +0.000 OA
ATOM      2  C   UNL     1      49.540 -46.186  46.614  0.00  0.00    +0.000 C 
ATOM      3  C   UNL     1      51.044 -46.375  46.332  0.00  0.00    +0.000 C 
ATOM      4  C   UNL     1      49.559 -43.982  45.736  0.00  0.00    +0.000 C 
ATOM      5  C   UNL     1      51.779 -45.285  45.696  0.00  0.00    +0.000 C 
ATOM      6  C   UNL     1      50.919 -44.201  45.435  0.00  0.00    +0.000 C 
ATOM      7  C   UNL     1      48.828 -47.520  46.203  0.00  0.00    +0.000 C 
ATOM      8  N   UNL     1      49.269 -45.834  48.026  0.00  0.00    +0.000 N 
ATOM      9  C   UNL     1      48.957 -44.638  48.622  0.00  0.00    +0.000 A 
ATOM     10  C   UNL     1      48.933 -43.369  48.036  0.00  0.00    +0.000 A 
ATOM     11  C   UNL     1      48.689 -44.618  49.998  0.00  0.00    +0.000 A 
ATOM     12  N   UNL     1      49.267 -43.089  46.746  0.00  0.00    +0.000 N 
ATOM     13  C   UNL     1      48.686 -42.309  48.921  0.00  0.00    +0.000 A 
ATOM     14  C   UNL     1      49.330 -41.682  46.801  0.00  0.00    +0.000 A 
ATOM     15  C   UNL     1      48.942 -41.188  48.101  0.00  0.00    +0.000 A 
ATOM     16  C   UNL     1      49.677 -40.794  45.770  0.00  0.00    +0.000 A 
ATOM     17  C   UNL     1      48.938 -39.793  48.302  0.00  0.00    +0.000 A 
ATOM     18  C   UNL     1      49.286 -38.928  47.266  0.00  0.00    +0.000 A 
ATOM     19  C   UNL     1      49.651 -39.423  46.023  0.00  0.00    +0.000 A 
ATOM     20  C   UNL     1      48.405 -42.279  50.301  0.00  0.00    +0.000 A 
ATOM     21  C   UNL     1      48.401 -43.575  50.888  0.00  0.00    +0.000 A 
ATOM     22  C   UNL     1      48.157 -41.269  51.303  0.00  0.00    +0.000 C 
ATOM     23  C   UNL     1      48.135 -43.386  52.339  0.00  0.00    +0.000 C 
ATOM     24  N   UNL     1      48.014 -42.046  52.461  0.00  0.00    +0.000 N 
ATOM     25  H   UNL     1      47.822 -41.600  53.346  0.00  0.00    +0.000 HD
ATOM     26  O   UNL     1      48.070 -40.050  51.277  0.00  0.00    +0.000 OA
ATOM     27  C   UNL     1      48.873 -45.962  50.359  0.00  0.00    +0.000 A 
ATOM     28  C   UNL     1      49.240 -46.685  49.165  0.00  0.00    +0.000 A 
ATOM     29  C   UNL     1      48.796 -46.669  51.577  0.00  0.00    +0.000 A 
ATOM     30  C   UNL     1      49.504 -48.064  49.241  0.00  0.00    +0.000 A 
ATOM     31  C   UNL     1      49.413 -48.720  50.469  0.00  0.00    +0.000 A 
ATOM     32  C   UNL     1      49.063 -48.036  51.620  0.00  0.00    +0.000 A 
ENDROOT
BRANCH   5  33
ATOM     33  N   UNL     1      53.194 -45.244  45.569  0.00  0.00    +0.000 N 
ATOM     34  C   UNL     1      53.908 -44.894  46.777  0.00  0.00    +0.000 C 
ATOM     35  H   UNL     1      53.538 -44.813  44.708  0.00  0.00    +0.000 HD
ENDBRANCH   5  33
BRANCH   3  36
ATOM     36  O   UNL     1      51.695 -47.278  47.144  0.00  0.00    +0.000 OA
ATOM     37  C   UNL     1      52.186 -48.374  46.418  0.00  0.00    +0.000 C 
ENDBRANCH   3  36
TORSDOF 2
ENDMDL
MODEL 2
REMARK VINA RESULT:      -8.1     11.614     14.720
REMARK  Name = Staurosporine.pdbqt.pdb
REMARK  2 active torsions:
REMARK  status: ('A' for Active; 'I' for Inactive)
REMARK    1  A    between atoms: C_3  and  O_11
REMARK    2  A    between atoms: C_5  and  N_8
REMARK                            x       y       z     vdW  Elec       q    Type
REMARK                         _______ _______ _______ _____ _____    ______ ____
ROOT
ATOM      1  O   UNL     1      44.257 -53.303  54.801  0.00  0.00    +0.000 OA
ATOM      2  C   UNL     1      43.440 -54.410  55.271  0.00  0.00    +0.000 C 
ATOM      3  C   UNL     1      43.165 -55.507  54.222  0.00  0.00    +0.000 C 
ATOM      4  C   UNL     1      45.414 -53.711  54.157  0.00  0.00    +0.000 C 
ATOM      5  C   UNL     1      44.085 -55.643  53.096  0.00  0.00    +0.000 C 
ATOM      6  C   UNL     1      45.109 -54.681  53.180  0.00  0.00    +0.000 C 
ATOM      7  C   UNL     1      42.065 -53.730  55.589  0.00  0.00    +0.000 C 
ATOM      8  N   UNL     1      44.082 -54.945  56.493  0.00  0.00    +0.000 N 
ATOM      9  C   UNL     1      45.381 -54.902  56.932  0.00  0.00    +0.000 A 
ATOM     10  C   UNL     1      46.502 -54.425  56.245  0.00  0.00    +0.000 A 
ATOM     11  C   UNL     1      45.691 -55.452  58.183  0.00  0.00    +0.000 A 
ATOM     12  N   UNL     1      46.502 -53.948  54.970  0.00  0.00    +0.000 N 
ATOM     13  C   UNL     1      47.727 -54.611  56.903  0.00  0.00    +0.000 A 
ATOM     14  C   UNL     1      47.889 -53.887  54.724  0.00  0.00    +0.000 A 
ATOM     15  C   UNL     1      48.649 -54.248  55.896  0.00  0.00    +0.000 A 
ATOM     16  C   UNL     1      48.537 -53.504  53.538  0.00  0.00    +0.000 A 
ATOM     17  C   UNL     1      50.055 -54.216  55.807  0.00  0.00    +0.000 A 
ATOM     18  C   UNL     1      50.680 -53.834  54.621  0.00  0.00    +0.000 A 
ATOM     19  C   UNL     1      49.931 -53.486  53.507  0.00  0.00    +0.000 A 
ATOM     20  C   UNL     1      48.047 -55.152  58.163  0.00  0.00    +0.000 A 
ATOM     21  C   UNL     1      46.901 -55.609  58.872  0.00  0.00    +0.000 A 
ATOM     22  C   UNL     1      49.248 -55.408  58.925  0.00  0.00    +0.000 C 
ATOM     23  C   UNL     1      47.391 -56.186  60.152  0.00  0.00    +0.000 C 
ATOM     24  N   UNL     1      48.729 -56.019  60.075  0.00  0.00    +0.000 N 
ATOM     25  H   UNL     1      49.353 -56.314  60.813  0.00  0.00    +0.000 HD
ATOM     26  O   UNL     1      50.436 -55.199  58.733  0.00  0.00    +0.000 OA
ATOM     27  C   UNL     1      44.447 -55.942  58.612  0.00  0.00    +0.000 A 
ATOM     28  C   UNL     1      43.485 -55.646  57.577  0.00  0.00    +0.000 A 
ATOM     29  C   UNL     1      44.009 -56.634  59.760  0.00  0.00    +0.000 A 
ATOM     30  C   UNL     1      42.147 -56.046  57.737  0.00  0.00    +0.000 A 
ATOM     31  C   UNL     1      41.760 -56.726  58.892  0.00  0.00    +0.000 A 
ATOM     32  C   UNL     1      42.675 -57.015  59.891  0.00  0.00    +0.000 A 
ENDROOT
BRANCH   5  33
ATOM     33  N   UNL     1      44.069 -56.731  52.180  0.00  0.00    +0.000 N 
ATOM     34  C   UNL     1      44.992 -57.802  52.484  0.00  0.00    +0.000 C 
ATOM     35  H   UNL     1      44.006 -56.464  51.195  0.00  0.00    +0.000 HD
ENDBRANCH   5  33
BRANCH   3  36
ATOM     36  O   UNL     1      42.436 -56.589  54.665  0.00  0.00    +0.000 OA
ATOM     37  C   UNL     1      41.245 -56.748  53.943  0.00  0.00    +0.000 C 
ENDBRANCH   3  36
TORSDOF 2
ENDMDL
MODEL 3
REMARK VINA RESULT:      -8.1      4.505      7.717
REMARK  Name = Staurosporine.pdbqt.pdb
REMARK  2 active torsions:
REMARK  status: ('A' for Active; 'I' for Inactive)
REMARK    1  A    between atoms: C_3  and  O_11
REMARK    2  A    between atoms: C_5  and  N_8
REMARK                            x       y       z     vdW  Elec       q    Type
REMARK                         _______ _______ _______ _____ _____    ______ ____
ROOT
ATOM      1  O   UNL     1      50.312 -39.113  48.405  0.00  0.00    +0.000 OA
ATOM      2  C   UNL     1      49.225 -40.023  48.727  0.00  0.00    +0.000 C 
ATOM      3  C   UNL     1      48.355 -39.597  49.927  0.00  0.00    +0.000 C 
ATOM      4  C   UNL     1      49.912 -37.790  48.315  0.00  0.00    +0.000 C 
ATOM      5  C   UNL     1      48.325 -38.186  50.303  0.00  0.00    +0.000 C 
ATOM      6  C   UNL     1      49.156 -37.434  49.452  0.00  0.00    +0.000 C 
ATOM      7  C   UNL     1      49.970 -41.335  49.147  0.00  0.00    +0.000 C 
ATOM      8  N   UNL     1      48.430 -40.216  47.492  0.00  0.00    +0.000 N 
ATOM      9  C   UNL     1      48.273 -39.429  46.379  0.00  0.00    +0.000 A 
ATOM     10  C   UNL     1      48.750 -38.131  46.173  0.00  0.00    +0.000 A 
ATOM     11  C   UNL     1      47.490 -39.907  45.319  0.00  0.00    +0.000 A 
ATOM     12  N   UNL     1      49.436 -37.388  47.085  0.00  0.00    +0.000 N 
ATOM     13  C   UNL     1      48.338 -37.528  44.975  0.00  0.00    +0.000 A 
ATOM     14  C   UNL     1      49.404 -36.127  46.457  0.00  0.00    +0.000 A 
ATOM     15  C   UNL     1      48.777 -36.199  45.159  0.00  0.00    +0.000 A 
ATOM     16  C   UNL     1      49.920 -34.912  46.938  0.00  0.00    +0.000 A 
ATOM     17  C   UNL     1      48.689 -35.014  44.402  0.00  0.00    +0.000 A 
ATOM     18  C   UNL     1      49.206 -33.818  44.897  0.00  0.00    +0.000 A 
ATOM     19  C   UNL     1      49.809 -33.771  46.145  0.00  0.00    +0.000 A 
ATOM     20  C   UNL     1      47.561 -38.003  43.900  0.00  0.00    +0.000 A 
ATOM     21  C   UNL     1      47.102 -39.335  44.100  0.00  0.00    +0.000 A 
ATOM     22  C   UNL     1      47.065 -37.480  42.648  0.00  0.00    +0.000 C 
ATOM     23  C   UNL     1      46.271 -39.684  42.917  0.00  0.00    +0.000 C 
ATOM     24  N   UNL     1      46.319 -38.564  42.163  0.00  0.00    +0.000 N 
ATOM     25  H   UNL     1      45.844 -38.491  41.275  0.00  0.00    +0.000 HD
ATOM     26  O   UNL     1      47.189 -36.414  42.065  0.00  0.00    +0.000 OA
ATOM     27  C   UNL     1      47.056 -41.151  45.804  0.00  0.00    +0.000 A 
ATOM     28  C   UNL     1      47.615 -41.321  47.124  0.00  0.00    +0.000 A 
ATOM     29  C   UNL     1      46.223 -42.167  45.289  0.00  0.00    +0.000 A 
ATOM     30  C   UNL     1      47.324 -42.485  47.857  0.00  0.00    +0.000 A 
ATOM     31  C   UNL     1      46.497 -43.463  47.304  0.00  0.00    +0.000 A 
ATOM     32  C   UNL     1      45.955 -43.310  46.039  0.00  0.00    +0.000 A 
ENDROOT
BRANCH   5  33
ATOM     33  N   UNL     1      47.417 -37.631  51.245  0.00  0.00    +0.000 N 
ATOM     34  C   UNL     1      46.849 -36.354  50.872  0.00  0.00    +0.000 C 
ATOM     35  H   UNL     1      47.700 -37.723  52.223  0.00  0.00    +0.000 HD
ENDBRANCH   5  33
BRANCH   3  36
ATOM     36  O   UNL     1      47.288 -40.421  50.214  0.00  0.00    +0.000 OA
ATOM     37  C   UNL     1      47.561 -41.273  51.294  0.00  0.00    +0.000 C 
ENDBRANCH   3  36
TORSDOF 2
ENDMDL
MODEL 4
REMARK VINA RESULT:      -7.8      3.580      7.363
REMARK  Name = Staurosporine.pdbqt.pdb
REMARK  2 active torsions:
REMARK  status: ('A' for Active; 'I' for Inactive)
REMARK    1  A    between atoms: C_3  and  O_11
REMARK    2  A    between atoms: C_5  and  N_8
REMARK                            x       y       z     vdW  Elec       q    Type
REMARK                         _______ _______ _______ _____ _____    ______ ____
ROOT
ATOM      1  O   UNL     1      50.181 -41.434  45.795  0.00  0.00    +0.000 OA
ATOM      2  C   UNL     1      49.641 -40.390  44.939  0.00  0.00    +0.000 C 
ATOM      3  C   UNL     1      48.368 -40.780  44.162  0.00  0.00    +0.000 C 
ATOM      4  C   UNL     1      49.228 -42.018  46.615  0.00  0.00    +0.000 C 
ATOM      5  C   UNL     1      47.540 -41.868  44.678  0.00  0.00    +0.000 C 
ATOM      6  C   UNL     1      48.101 -42.395  45.855  0.00  0.00    +0.000 C 
ATOM      7  C   UNL     1      50.774 -40.177  43.878  0.00  0.00    +0.000 C 
ATOM      8  N   UNL     1      49.446 -39.187  45.780  0.00  0.00    +0.000 N 
ATOM      9  C   UNL     1      49.255 -39.043  47.131  0.00  0.00    +0.000 A 
ATOM     10  C   UNL     1      49.069 -40.050  48.083  0.00  0.00    +0.000 A 
ATOM     11  C   UNL     1      49.158 -37.751  47.666  0.00  0.00    +0.000 A 
ATOM     12  N   UNL     1      49.001 -41.384  47.818  0.00  0.00    +0.000 N 
ATOM     13  C   UNL     1      48.785 -39.598  49.380  0.00  0.00    +0.000 A 
ATOM     14  C   UNL     1      48.538 -41.864  49.059  0.00  0.00    +0.000 A 
ATOM     15  C   UNL     1      48.440 -40.802  50.032  0.00  0.00    +0.000 A 
ATOM     16  C   UNL     1      48.224 -43.188  49.408  0.00  0.00    +0.000 A 
ATOM     17  C   UNL     1      48.006 -41.135  51.331  0.00  0.00    +0.000 A 
ATOM     18  C   UNL     1      47.698 -42.455  51.658  0.00  0.00    +0.000 A 
ATOM     19  C   UNL     1      47.804 -43.461  50.709  0.00  0.00    +0.000 A 
ATOM     20  C   UNL     1      48.696 -38.304  49.929  0.00  0.00    +0.000 A 
ATOM     21  C   UNL     1      48.915 -37.282  48.964  0.00  0.00    +0.000 A 
ATOM     22  C   UNL     1      48.398 -37.725  51.219  0.00  0.00    +0.000 C 
ATOM     23  C   UNL     1      48.751 -35.983  49.670  0.00  0.00    +0.000 C 
ATOM     24  N   UNL     1      48.460 -36.354  50.936  0.00  0.00    +0.000 N 
ATOM     25  H   UNL     1      48.295 -35.680  51.670  0.00  0.00    +0.000 HD
ATOM     26  O   UNL     1      48.147 -38.191  52.321  0.00  0.00    +0.000 OA
ATOM     27  C   UNL     1      49.271 -36.944  46.522  0.00  0.00    +0.000 A 
ATOM     28  C   UNL     1      49.427 -37.821  45.387  0.00  0.00    +0.000 A 
ATOM     29  C   UNL     1      49.237 -35.552  46.298  0.00  0.00    +0.000 A 
ATOM     30  C   UNL     1      49.546 -37.274  44.097  0.00  0.00    +0.000 A 
ATOM     31  C   UNL     1      49.510 -35.890  43.925  0.00  0.00    +0.000 A 
ATOM     32  C   UNL     1      49.359 -35.040  45.008  0.00  0.00    +0.000 A 
ENDROOT
BRANCH   5  33
ATOM     33  N   UNL     1      46.246 -42.189  44.183  0.00  0.00    +0.000 N 
ATOM     34  C   UNL     1      45.190 -42.172  45.171  0.00  0.00    +0.000 C 
ATOM     35  H   UNL     1      46.219 -42.963  43.516  0.00  0.00    +0.000 HD
ENDBRANCH   5  33
BRANCH   3  36
ATOM     36  O   UNL     1      47.813 -39.786  43.386  0.00  0.00    +0.000 OA
ATOM     37  C   UNL     1      47.859 -40.102  42.020  0.00  0.00    +0.000 C 
ENDBRANCH   3  36
TORSDOF 2
ENDMDL
MODEL 5
REMARK VINA RESULT:      -7.7      2.834      4.576
REMARK  Name = Staurosporine.pdbqt.pdb
REMARK  2 active torsions:
REMARK  status: ('A' for Active; 'I' for Inactive)
REMARK    1  A    between atoms: C_3  and  O_11
REMARK    2  A    between atoms: C_5  and  N_8
REMARK                            x       y       z     vdW  Elec       q    Type
REMARK                         _______ _______ _______ _____ _____    ______ ____
ROOT
ATOM      1  O   UNL     1      48.297 -40.469  44.149  0.00  0.00    +0.000 OA
ATOM      2  C   UNL     1      48.919 -41.678  44.662  0.00  0.00    +0.000 C 
ATOM      3  C   UNL     1      50.324 -41.976  44.099  0.00  0.00    +0.000 C 
ATOM      4  C   UNL     1      49.126 -39.360  44.202  0.00  0.00    +0.000 C 
ATOM      5  C   UNL     1      51.107 -40.870  43.552  0.00  0.00    +0.000 C 
ATOM      6  C   UNL     1      50.383 -39.667  43.639  0.00  0.00    +0.000 C 
ATOM      7  C   UNL     1      47.972 -42.814  44.147  0.00  0.00    +0.000 C 
ATOM      8  N   UNL     1      48.910 -41.586  46.140  0.00  0.00    +0.000 N 
ATOM      9  C   UNL     1      48.863 -40.505  46.984  0.00  0.00    +0.000 A 
ATOM     10  C   UNL     1      48.937 -39.150  46.647  0.00  0.00    +0.000 A 
ATOM     11  C   UNL     1      48.804 -40.729  48.367  0.00  0.00    +0.000 A 
ATOM     12  N   UNL     1      49.116 -38.658  45.390  0.00  0.00    +0.000 N 
ATOM     13  C   UNL     1      48.975 -38.266  47.735  0.00  0.00    +0.000 A 
ATOM     14  C   UNL     1      49.386 -37.307  45.683  0.00  0.00    +0.000 A 
ATOM     15  C   UNL     1      49.266 -37.041  47.097  0.00  0.00    +0.000 A 
ATOM     16  C   UNL     1      49.704 -36.276  44.784  0.00  0.00    +0.000 A 
ATOM     17  C   UNL     1      49.492 -35.723  47.541  0.00  0.00    +0.000 A 
ATOM     18  C   UNL     1      49.806 -34.713  46.633  0.00  0.00    +0.000 A 
ATOM     19  C   UNL     1      49.911 -34.989  45.278  0.00  0.00    +0.000 A 
ATOM     20  C   UNL     1      48.906 -38.480  49.126  0.00  0.00    +0.000 A 
ATOM     21  C   UNL     1      48.801 -39.858  49.465  0.00  0.00    +0.000 A 
ATOM     22  C   UNL     1      48.953 -37.668  50.320  0.00  0.00    +0.000 C 
ATOM     23  C   UNL     1      48.779 -39.933  50.950  0.00  0.00    +0.000 C 
ATOM     24  N   UNL     1      48.870 -38.639  51.327  0.00  0.00    +0.000 N 
ATOM     25  H   UNL     1      48.876 -38.360  52.298  0.00  0.00    +0.000 HD
ATOM     26  O   UNL     1      49.038 -36.467  50.527  0.00  0.00    +0.000 OA
ATOM     27  C   UNL     1      48.844 -42.130  48.446  0.00  0.00    +0.000 A 
ATOM     28  C   UNL     1      48.926 -42.638  47.097  0.00  0.00    +0.000 A 
ATOM     29  C   UNL     1      48.846 -43.052  49.513  0.00  0.00    +0.000 A 
ATOM     30  C   UNL     1      48.999 -44.025  46.880  0.00  0.00    +0.000 A 
ATOM     31  C   UNL     1      48.994 -44.898  47.968  0.00  0.00    +0.000 A 
ATOM     32  C   UNL     1      48.917 -44.421  49.266  0.00  0.00    +0.000 A 
ENDROOT
BRANCH   5  33
ATOM     33  N   UNL     1      52.480 -40.966  43.196  0.00  0.00    +0.000 N 
ATOM     34  C   UNL     1      52.736 -41.134  41.782  0.00  0.00    +0.000 C 
ATOM     35  H   UNL     1      53.049 -41.538  43.823  0.00  0.00    +0.000 HD
ENDBRANCH   5  33
BRANCH   3  36
ATOM     36  O   UNL     1      50.951 -43.090  44.614  0.00  0.00    +0.000 OA
ATOM     37  C   UNL     1      51.174 -44.065  43.631  0.00  0.00    +0.000 C 
ENDBRANCH   3  36
TORSDOF 2
ENDMDL
MODEL 6
REMARK VINA RESULT:      -7.6     10.728     14.997
REMARK  Name = Staurosporine.pdbqt.pdb
REMARK  2 active torsions:
REMARK  status: ('A' for Active; 'I' for Inactive)
REMARK    1  A    between atoms: C_3  and  O_11
REMARK    2  A    between atoms: C_5  and  N_8
REMARK                            x       y       z     vdW  Elec       q    Type
REMARK                         _______ _______ _______ _____ _____    ______ ____
ROOT
ATOM      1  O   UNL     1      47.741 -52.799  56.813  0.00  0.00    +0.000 OA
ATOM      2  C   UNL     1      47.188 -52.900  55.472  0.00  0.00    +0.000 C 
ATOM      3  C   UNL     1      48.058 -53.682  54.467  0.00  0.00    +0.000 C 
ATOM      4  C   UNL     1      48.164 -54.016  57.324  0.00  0.00    +0.000 C 
ATOM      5  C   UNL     1      49.028 -54.645  54.983  0.00  0.00    +0.000 C 
ATOM      6  C   UNL     1      48.990 -54.674  56.389  0.00  0.00    +0.000 C 
ATOM      7  C   UNL     1      47.156 -51.412  54.986  0.00  0.00    +0.000 C 
ATOM      8  N   UNL     1      45.825 -53.464  55.598  0.00  0.00    +0.000 N 
ATOM      9  C   UNL     1      45.250 -54.247  56.568  0.00  0.00    +0.000 A 
ATOM     10  C   UNL     1      45.871 -54.836  57.673  0.00  0.00    +0.000 A 
ATOM     11  C   UNL     1      43.895 -54.585  56.448  0.00  0.00    +0.000 A 
ATOM     12  N   UNL     1      47.200 -54.768  57.962  0.00  0.00    +0.000 N 
ATOM     13  C   UNL     1      45.051 -55.680  58.437  0.00  0.00    +0.000 A 
ATOM     14  C   UNL     1      47.287 -55.739  58.979  0.00  0.00    +0.000 A 
ATOM     15  C   UNL     1      45.988 -56.275  59.310  0.00  0.00    +0.000 A 
ATOM     16  C   UNL     1      48.436 -56.168  59.665  0.00  0.00    +0.000 A 
ATOM     17  C   UNL     1      45.915 -57.247  60.327  0.00  0.00    +0.000 A 
ATOM     18  C   UNL     1      47.066 -57.660  60.996  0.00  0.00    +0.000 A 
ATOM     19  C   UNL     1      48.304 -57.129  60.666  0.00  0.00    +0.000 A 
ATOM     20  C   UNL     1      43.687 -56.017  58.332  0.00  0.00    +0.000 A 
ATOM     21  C   UNL     1      43.051 -55.392  57.223  0.00  0.00    +0.000 A 
ATOM     22  C   UNL     1      42.756 -56.871  59.033  0.00  0.00    +0.000 C 
ATOM     23  C   UNL     1      41.642 -55.868  57.214  0.00  0.00    +0.000 C 
ATOM     24  N   UNL     1      41.588 -56.697  58.278  0.00  0.00    +0.000 N 
ATOM     25  H   UNL     1      40.742 -57.182  58.542  0.00  0.00    +0.000 HD
ATOM     26  O   UNL     1      42.840 -57.590  60.017  0.00  0.00    +0.000 OA
ATOM     27  C   UNL     1      43.539 -53.972  55.236  0.00  0.00    +0.000 A 
ATOM     28  C   UNL     1      44.715 -53.312  54.722  0.00  0.00    +0.000 A 
ATOM     29  C   UNL     1      42.349 -53.910  54.482  0.00  0.00    +0.000 A 
ATOM     30  C   UNL     1      44.648 -52.627  53.497  0.00  0.00    +0.000 A 
ATOM     31  C   UNL     1      43.447 -52.591  52.788  0.00  0.00    +0.000 A 
ATOM     32  C   UNL     1      42.313 -53.221  53.271  0.00  0.00    +0.000 A 
ENDROOT
BRANCH   5  33
ATOM     33  N   UNL     1      49.738 -55.572  54.172  0.00  0.00    +0.000 N 
ATOM     34  C   UNL     1      50.981 -55.079  53.622  0.00  0.00    +0.000 C 
ATOM     35  H   UNL     1      49.158 -56.123  53.536  0.00  0.00    +0.000 HD
ENDBRANCH   5  33
BRANCH   3  36
ATOM     36  O   UNL     1      47.525 -53.832  53.205  0.00  0.00    +0.000 OA
ATOM     37  C   UNL     1      48.179 -53.025  52.262  0.00  0.00    +0.000 C 
ENDBRANCH   3  36
TORSDOF 2
ENDMDL
MODEL 7
REMARK VINA RESULT:      -7.5     11.765     16.210
REMARK  Name = Staurosporine.pdbqt.pdb
REMARK  2 active torsions:
REMARK  status: ('A' for Active; 'I' for Inactive)
REMARK    1  A    between atoms: C_3  and  O_11
REMARK    2  A    between atoms: C_5  and  N_8
REMARK                            x       y       z     vdW  Elec       q    Type
REMARK                         _______ _______ _______ _____ _____    ______ ____
ROOT
ATOM      1  O   UNL     1      48.483 -54.730  59.134  0.00  0.00    +0.000 OA
ATOM      2  C   UNL     1      48.718 -54.654  57.701  0.00  0.00    +0.000 C 
ATOM      3  C   UNL     1      49.559 -55.807  57.119  0.00  0.00    +0.000 C 
ATOM      4  C   UNL     1      48.027 -55.970  59.550  0.00  0.00    +0.000 C 
ATOM      5  C   UNL     1      49.615 -57.071  57.850  0.00  0.00    +0.000 C 
ATOM      6  C   UNL     1      48.850 -56.990  59.028  0.00  0.00    +0.000 C 
ATOM      7  C   UNL     1      49.568 -53.348  57.547  0.00  0.00    +0.000 C 
ATOM      8  N   UNL     1      47.397 -54.528  57.044  0.00  0.00    +0.000 N 
ATOM      9  C   UNL     1      46.140 -54.901  57.449  0.00  0.00    +0.000 A 
ATOM     10  C   UNL     1      45.788 -55.636  58.585  0.00  0.00    +0.000 A 
ATOM     11  C   UNL     1      45.047 -54.594  56.628  0.00  0.00    +0.000 A 
ATOM     12  N   UNL     1      46.662 -56.160  59.488  0.00  0.00    +0.000 N 
ATOM     13  C   UNL     1      44.428 -55.965  58.684  0.00  0.00    +0.000 A 
ATOM     14  C   UNL     1      45.797 -56.998  60.220  0.00  0.00    +0.000 A 
ATOM     15  C   UNL     1      44.431 -56.864  59.774  0.00  0.00    +0.000 A 
ATOM     16  C   UNL     1      46.123 -57.856  61.282  0.00  0.00    +0.000 A 
ATOM     17  C   UNL     1      43.445 -57.630  60.427  0.00  0.00    +0.000 A 
ATOM     18  C   UNL     1      43.789 -58.476  61.479  0.00  0.00    +0.000 A 
ATOM     19  C   UNL     1      45.107 -58.587  61.896  0.00  0.00    +0.000 A 
ATOM     20  C   UNL     1      43.321 -55.653  57.871  0.00  0.00    +0.000 A 
ATOM     21  C   UNL     1      43.678 -54.879  56.731  0.00  0.00    +0.000 A 
ATOM     22  C   UNL     1      41.906 -55.944  57.861  0.00  0.00    +0.000 C 
ATOM     23  C   UNL     1      42.430 -54.663  55.952  0.00  0.00    +0.000 C 
ATOM     24  N   UNL     1      41.494 -55.308  56.682  0.00  0.00    +0.000 N 
ATOM     25  H   UNL     1      40.522 -55.338  56.407  0.00  0.00    +0.000 HD
ATOM     26  O   UNL     1      41.161 -56.559  58.609  0.00  0.00    +0.000 OA
ATOM     27  C   UNL     1      45.661 -53.965  55.533  0.00  0.00    +0.000 A 
ATOM     28  C   UNL     1      47.082 -53.946  55.786  0.00  0.00    +0.000 A 
ATOM     29  C   UNL     1      45.185 -53.419  54.323  0.00  0.00    +0.000 A 
ATOM     30  C   UNL     1      47.950 -53.384  54.833  0.00  0.00    +0.000 A 
ATOM     31  C   UNL     1      47.432 -52.853  53.652  0.00  0.00    +0.000 A 
ATOM     32  C   UNL     1      46.070 -52.867  53.399  0.00  0.00    +0.000 A 
ENDROOT
BRANCH   5  33
ATOM     33  N   UNL     1      50.175 -58.269  57.329  0.00  0.00    +0.000 N 
ATOM     34  C   UNL     1      51.537 -58.537  57.736  0.00  0.00    +0.000 C 
ATOM     35  H   UNL     1      49.960 -58.455  56.347  0.00  0.00    +0.000 HD
ENDBRANCH   5  33
BRANCH   3  36
ATOM     36  O   UNL     1      49.747 -55.780  55.753  0.00  0.00    +0.000 OA
ATOM     37  C   UNL     1      51.094 -55.587  55.415  0.00  0.00    +0.000 C 
ENDBRANCH   3  36
TORSDOF 2
ENDMDL
MODEL 8
REMARK VINA RESULT:      -7.3     11.596     15.566
REMARK  Name = Staurosporine.pdbqt.pdb
REMARK  2 active torsions:
REMARK  status: ('A' for Active; 'I' for Inactive)
REMARK    1  A    between atoms: C_3  and  O_11
REMARK    2  A    between atoms: C_5  and  N_8
REMARK                            x       y       z     vdW  Elec       q    Type
REMARK                         _______ _______ _______ _____ _____    ______ ____
ROOT
ATOM      1  O   UNL     1      47.970 -55.712  59.207  0.00  0.00    +0.000 OA
ATOM      2  C   UNL     1      48.868 -55.850  58.072  0.00  0.00    +0.000 C 
ATOM      3  C   UNL     1      49.252 -57.302  57.720  0.00  0.00    +0.000 C 
ATOM      4  C   UNL     1      46.863 -56.541  59.134  0.00  0.00    +0.000 C 
ATOM      5  C   UNL     1      48.366 -58.382  58.147  0.00  0.00    +0.000 C 
ATOM      6  C   UNL     1      47.264 -57.864  58.852  0.00  0.00    +0.000 C 
ATOM      7  C   UNL     1      50.176 -55.140  58.563  0.00  0.00    +0.000 C 
ATOM      8  N   UNL     1      48.252 -55.135  56.932  0.00  0.00    +0.000 N 
ATOM      9  C   UNL     1      46.946 -54.818  56.655  0.00  0.00    +0.000 A 
ATOM     10  C   UNL     1      45.801 -55.214  57.354  0.00  0.00    +0.000 A 
ATOM     11  C   UNL     1      46.661 -54.067  55.507  0.00  0.00    +0.000 A 
ATOM     12  N   UNL     1      45.783 -56.042  58.435  0.00  0.00    +0.000 N 
ATOM     13  C   UNL     1      44.584 -54.828  56.773  0.00  0.00    +0.000 A 
ATOM     14  C   UNL     1      44.402 -56.301  58.532  0.00  0.00    +0.000 A 
ATOM     15  C   UNL     1      43.654 -55.543  57.558  0.00  0.00    +0.000 A 
ATOM     16  C   UNL     1      43.744 -57.141  59.446  0.00  0.00    +0.000 A 
ATOM     17  C   UNL     1      42.252 -55.685  57.546  0.00  0.00    +0.000 A 
ATOM     18  C   UNL     1      41.618 -56.524  58.460  0.00  0.00    +0.000 A 
ATOM     19  C   UNL     1      42.355 -57.240  59.392  0.00  0.00    +0.000 A 
ATOM     20  C   UNL     1      44.288 -54.065  55.626  0.00  0.00    +0.000 A 
ATOM     21  C   UNL     1      45.456 -53.638  54.934  0.00  0.00    +0.000 A 
ATOM     22  C   UNL     1      43.100 -53.626  54.931  0.00  0.00    +0.000 C 
ATOM     23  C   UNL     1      44.993 -52.887  53.736  0.00  0.00    +0.000 C 
ATOM     24  N   UNL     1      43.647 -52.944  53.836  0.00  0.00    +0.000 N 
ATOM     25  H   UNL     1      43.038 -52.511  53.157  0.00  0.00    +0.000 HD
ATOM     26  O   UNL     1      41.902 -53.749  55.138  0.00  0.00    +0.000 OA
ATOM     27  C   UNL     1      47.934 -53.889  54.941  0.00  0.00    +0.000 A 
ATOM     28  C   UNL     1      48.886 -54.552  55.800  0.00  0.00    +0.000 A 
ATOM     29  C   UNL     1      48.408 -53.256  53.774  0.00  0.00    +0.000 A 
ATOM     30  C   UNL     1      50.249 -54.549  55.459  0.00  0.00    +0.000 A 
ATOM     31  C   UNL     1      50.671 -53.907  54.295  0.00  0.00    +0.000 A 
ATOM     32  C   UNL     1      49.766 -53.268  53.463  0.00  0.00    +0.000 A 
ENDROOT
BRANCH   5  33
ATOM     33  N   UNL     1      48.489 -59.731  57.715  0.00  0.00    +0.000 N 
ATOM     34  C   UNL     1      49.120 -60.623  58.663  0.00  0.00    +0.000 C 
ATOM     35  H   UNL     1      48.770 -59.848  56.739  0.00  0.00    +0.000 HD
ENDBRANCH   5  33
BRANCH   3  36
ATOM     36  O   UNL     1      50.060 -57.455  56.615  0.00  0.00    +0.000 OA
ATOM     37  C   UNL     1      51.323 -57.962  56.957  0.00  0.00    +0.000 C 
ENDBRANCH   3  36
TORSDOF 2
ENDMDL
MODEL 9
REMARK VINA RESULT:      -7.3      2.105      3.838
REMARK  Name = Staurosporine.pdbqt.pdb
REMARK  2 active torsions:
REMARK  status: ('A' for Active; 'I' for Inactive)
REMARK    1  A    between atoms: C_3  and  O_11
REMARK    2  A    between atoms: C_5  and  N_8
REMARK                            x       y       z     vdW  Elec       q    Type
REMARK                         _______ _______ _______ _____ _____    ______ ____
ROOT
ATOM      1  O   UNL     1      48.470 -43.874  45.791  0.00  0.00    +0.000 OA
ATOM      2  C   UNL     1      48.855 -44.233  47.146  0.00  0.00    +0.000 C 
ATOM      3  C   UNL     1      50.232 -44.916  47.271  0.00  0.00    +0.000 C 
ATOM      4  C   UNL     1      49.458 -43.187  45.104  0.00  0.00    +0.000 C 
ATOM      5  C   UNL     1      51.217 -44.704  46.214  0.00  0.00    +0.000 C 
ATOM      6  C   UNL     1      50.688 -43.870  45.211  0.00  0.00    +0.000 C 
ATOM      7  C   UNL     1      47.780 -45.297  47.553  0.00  0.00    +0.000 C 
ATOM      8  N   UNL     1      48.754 -43.009  47.972  0.00  0.00    +0.000 N 
ATOM      9  C   UNL     1      48.817 -41.679  47.641  0.00  0.00    +0.000 A 
ATOM     10  C   UNL     1      49.128 -41.119  46.397  0.00  0.00    +0.000 A 
ATOM     11  C   UNL     1      48.624 -40.721  48.645  0.00  0.00    +0.000 A 
ATOM     12  N   UNL     1      49.473 -41.819  45.281  0.00  0.00    +0.000 N 
ATOM     13  C   UNL     1      49.227 -39.720  46.381  0.00  0.00    +0.000 A 
ATOM     14  C   UNL     1      49.932 -40.771  44.458  0.00  0.00    +0.000 A 
ATOM     15  C   UNL     1      49.754 -39.487  45.092  0.00  0.00    +0.000 A 
ATOM     16  C   UNL     1      50.472 -40.864  43.165  0.00  0.00    +0.000 A 
ATOM     17  C   UNL     1      50.152 -38.338  44.379  0.00  0.00    +0.000 A 
ATOM     18  C   UNL     1      50.686 -38.451  43.097  0.00  0.00    +0.000 A 
ATOM     19  C   UNL     1      50.844 -39.695  42.504  0.00  0.00    +0.000 A 
ATOM     20  C   UNL     1      49.024 -38.750  47.382  0.00  0.00    +0.000 A 
ATOM     21  C   UNL     1      48.679 -39.321  48.639  0.00  0.00    +0.000 A 
ATOM     22  C   UNL     1      49.113 -37.312  47.487  0.00  0.00    +0.000 C 
ATOM     23  C   UNL     1      48.538 -38.193  49.598  0.00  0.00    +0.000 C 
ATOM     24  N   UNL     1      48.805 -37.107  48.840  0.00  0.00    +0.000 N 
ATOM     25  H   UNL     1      48.785 -36.169  49.215  0.00  0.00    +0.000 HD
ATOM     26  O   UNL     1      49.372 -36.417  46.697  0.00  0.00    +0.000 OA
ATOM     27  C   UNL     1      48.437 -41.518  49.787  0.00  0.00    +0.000 A 
ATOM     28  C   UNL     1      48.534 -42.897  49.373  0.00  0.00    +0.000 A 
ATOM     29  C   UNL     1      48.215 -41.238  51.151  0.00  0.00    +0.000 A 
ATOM     30  C   UNL     1      48.402 -43.920  50.328  0.00  0.00    +0.000 A 
ATOM     31  C   UNL     1      48.181 -43.594  51.666  0.00  0.00    +0.000 A 
ATOM     32  C   UNL     1      48.087 -42.274  52.074  0.00  0.00    +0.000 A 
ENDROOT
BRANCH   5  33
ATOM     33  N   UNL     1      52.580 -45.099  46.302  0.00  0.00    +0.000 N 
ATOM     34  C   UNL     1      52.886 -46.382  45.708  0.00  0.00    +0.000 C 
ATOM     35  H   UNL     1      53.027 -44.907  47.201  0.00  0.00    +0.000 HD
ENDBRANCH   5  33
BRANCH   3  36
ATOM     36  O   UNL     1      50.636 -45.216  48.554  0.00  0.00    +0.000 OA
ATOM     37  C   UNL     1      50.718 -46.601  48.766  0.00  0.00    +0.000 C 
ENDBRANCH   3  36
TORSDOF 2
ENDMDL
