MODEL 1
REMARK VINA RESULT:      -6.2      0.000      0.000
REMARK  Name = Testosterone.pdbqt.pdb
REMARK  1 active torsions:
REMARK  status: ('A' for Active; 'I' for Inactive)
REMARK    1  A    between atoms: C_9  and  O_21
REMARK                            x       y       z     vdW  Elec       q    Type
REMARK                         _______ _______ _______ _____ _____    ______ ____
ROOT
ATOM      1  O   UNL     1      46.368 -42.309  43.850  0.00  0.00    +0.000 OA
ATOM      2  C   UNL     1      49.243 -37.975  49.468  0.00  0.00    +0.000 C 
ATOM      3  C   UNL     1      48.893 -38.241  51.009  0.00  0.00    +0.000 C 
ATOM      4  C   UNL     1      49.216 -39.063  48.470  0.00  0.00    +0.000 C 
ATOM      5  C   UNL     1      48.587 -40.417  48.654  0.00  0.00    +0.000 C 
ATOM      6  C   UNL     1      48.666 -41.553  47.610  0.00  0.00    +0.000 C 
ATOM      7  C   UNL     1      48.152 -39.504  51.037  0.00  0.00    +0.000 C 
ATOM      8  C   UNL     1      48.021 -40.545  49.952  0.00  0.00    +0.000 C 
ATOM      9  C   UNL     1      48.007 -37.033  51.395  0.00  0.00    +0.000 C 
ATOM     10  C   UNL     1      48.684 -36.698  49.136  0.00  0.00    +0.000 C 
ATOM     11  C   UNL     1      49.672 -38.853  47.148  0.00  0.00    +0.000 C 
ATOM     12  C   UNL     1      47.884 -36.146  50.291  0.00  0.00    +0.000 C 
ATOM     13  C   UNL     1      49.019 -41.069  46.066  0.00  0.00    +0.000 C 
ATOM     14  C   UNL     1      49.599 -39.780  45.974  0.00  0.00    +0.000 C 
ATOM     15  C   UNL     1      50.188 -38.267  51.857  0.00  0.00    +0.000 C 
ATOM     16  C   UNL     1      47.326 -42.212  47.454  0.00  0.00    +0.000 C 
ATOM     17  C   UNL     1      49.762 -42.573  48.027  0.00  0.00    +0.000 C 
ATOM     18  C   UNL     1      46.459 -42.542  46.218  0.00  0.00    +0.000 C 
ATOM     19  C   UNL     1      48.204 -41.450  45.104  0.00  0.00    +0.000 C 
ATOM     20  C   UNL     1      46.938 -42.141  44.911  0.00  0.00    +0.000 C 
ENDROOT
BRANCH   9  21
ATOM     21  O   UNL     1      47.949 -36.546  52.688  0.00  0.00    +0.000 OA
ATOM     22  H   UNL     1      48.049 -35.574  52.707  0.00  0.00    +0.000 HD
ENDBRANCH   9  21
TORSDOF 1
ENDMDL
MODEL 2
REMARK VINA RESULT:      -6.1     17.474     19.760
REMARK  Name = Testosterone.pdbqt.pdb
REMARK  1 active torsions:
REMARK  status: ('A' for Active; 'I' for Inactive)
REMARK    1  A    between atoms: C_9  and  O_21
REMARK                            x       y       z     vdW  Elec       q    Type
REMARK                         _______ _______ _______ _____ _____    ______ ____
ROOT
ATOM      1  O   UNL     1      59.706 -53.662  63.338  0.00  0.00    +0.000 OA
ATOM      2  C   UNL     1      60.594 -46.478  60.844  0.00  0.00    +0.000 C 
ATOM      3  C   UNL     1      60.945 -46.148  59.316  0.00  0.00    +0.000 C 
ATOM      4  C   UNL     1      59.863 -47.705  61.221  0.00  0.00    +0.000 C 
ATOM      5  C   UNL     1      59.638 -48.906  60.345  0.00  0.00    +0.000 C 
ATOM      6  C   UNL     1      58.787 -50.127  60.758  0.00  0.00    +0.000 C 
ATOM      7  C   UNL     1      60.841 -47.420  58.599  0.00  0.00    +0.000 C 
ATOM      8  C   UNL     1      60.209 -48.712  59.057  0.00  0.00    +0.000 C 
ATOM      9  C   UNL     1      62.401 -45.628  59.381  0.00  0.00    +0.000 C 
ATOM     10  C   UNL     1      61.722 -46.060  61.622  0.00  0.00    +0.000 C 
ATOM     11  C   UNL     1      59.425 -47.913  62.550  0.00  0.00    +0.000 C 
ATOM     12  C   UNL     1      62.846 -45.593  60.731  0.00  0.00    +0.000 C 
ATOM     13  C   UNL     1      58.556 -50.307  62.388  0.00  0.00    +0.000 C 
ATOM     14  C   UNL     1      58.798 -49.136  63.147  0.00  0.00    +0.000 C 
ATOM     15  C   UNL     1      59.994 -45.053  58.771  0.00  0.00    +0.000 C 
ATOM     16  C   UNL     1      59.485 -51.401  60.378  0.00  0.00    +0.000 C 
ATOM     17  C   UNL     1      57.379 -50.029  60.109  0.00  0.00    +0.000 C 
ATOM     18  C   UNL     1      59.832 -52.682  61.171  0.00  0.00    +0.000 C 
ATOM     19  C   UNL     1      58.871 -51.467  62.926  0.00  0.00    +0.000 C 
ATOM     20  C   UNL     1      59.485 -52.740  62.577  0.00  0.00    +0.000 C 
ENDROOT
BRANCH   9  21
ATOM     21  O   UNL     1      62.904 -44.729  58.458  0.00  0.00    +0.000 OA
ATOM     22  H   UNL     1      62.208 -44.124  58.135  0.00  0.00    +0.000 HD
ENDBRANCH   9  21
TORSDOF 1
ENDMDL
MODEL 3
REMARK VINA RESULT:      -6.0     10.657     14.749
REMARK  Name = Testosterone.pdbqt.pdb
REMARK  1 active torsions:
REMARK  status: ('A' for Active; 'I' for Inactive)
REMARK    1  A    between atoms: C_9  and  O_21
REMARK                            x       y       z     vdW  Elec       q    Type
REMARK                         _______ _______ _______ _____ _____    ______ ____
ROOT
ATOM      1  O   UNL     1      52.393 -24.219  53.255  0.00  0.00    +0.000 OA
ATOM      2  C   UNL     1      51.371 -28.004  46.679  0.00  0.00    +0.000 C 
ATOM      3  C   UNL     1      49.936 -28.564  46.237  0.00  0.00    +0.000 C 
ATOM      4  C   UNL     1      51.502 -26.829  47.564  0.00  0.00    +0.000 C 
ATOM      5  C   UNL     1      50.406 -26.218  48.393  0.00  0.00    +0.000 C 
ATOM      6  C   UNL     1      50.574 -24.933  49.233  0.00  0.00    +0.000 C 
ATOM      7  C   UNL     1      48.981 -28.026  47.208  0.00  0.00    +0.000 C 
ATOM      8  C   UNL     1      49.178 -26.911  48.205  0.00  0.00    +0.000 C 
ATOM      9  C   UNL     1      50.092 -30.099  46.356  0.00  0.00    +0.000 C 
ATOM     10  C   UNL     1      52.208 -29.147  46.893  0.00  0.00    +0.000 C 
ATOM     11  C   UNL     1      52.766 -26.250  47.825  0.00  0.00    +0.000 C 
ATOM     12  C   UNL     1      51.418 -30.425  46.750  0.00  0.00    +0.000 C 
ATOM     13  C   UNL     1      52.138 -24.534  49.606  0.00  0.00    +0.000 C 
ATOM     14  C   UNL     1      53.113 -25.156  48.788  0.00  0.00    +0.000 C 
ATOM     15  C   UNL     1      49.627 -28.155  44.775  0.00  0.00    +0.000 C 
ATOM     16  C   UNL     1      49.944 -25.107  50.584  0.00  0.00    +0.000 C 
ATOM     17  C   UNL     1      49.969 -23.724  48.469  0.00  0.00    +0.000 C 
ATOM     18  C   UNL     1      50.464 -24.871  52.021  0.00  0.00    +0.000 C 
ATOM     19  C   UNL     1      52.432 -24.334  50.874  0.00  0.00    +0.000 C 
ATOM     20  C   UNL     1      51.833 -24.429  52.197  0.00  0.00    +0.000 C 
ENDROOT
BRANCH   9  21
ATOM     21  O   UNL     1      49.362 -30.977  45.575  0.00  0.00    +0.000 OA
ATOM     22  H   UNL     1      48.503 -31.191  45.989  0.00  0.00    +0.000 HD
ENDBRANCH   9  21
TORSDOF 1
ENDMDL
MODEL 4
REMARK VINA RESULT:      -6.0     11.656     14.011
REMARK  Name = Testosterone.pdbqt.pdb
REMARK  1 active torsions:
REMARK  status: ('A' for Active; 'I' for Inactive)
REMARK    1  A    between atoms: C_9  and  O_21
REMARK                            x       y       z     vdW  Elec       q    Type
REMARK                         _______ _______ _______ _____ _____    ______ ____
ROOT
ATOM      1  O   UNL     1      50.135 -54.143  58.003  0.00  0.00    +0.000 OA
ATOM      2  C   UNL     1      46.394 -50.109  52.680  0.00  0.00    +0.000 C 
ATOM      3  C   UNL     1      46.947 -49.960  51.183  0.00  0.00    +0.000 C 
ATOM      4  C   UNL     1      46.723 -51.283  53.512  0.00  0.00    +0.000 C 
ATOM      5  C   UNL     1      47.807 -52.288  53.236  0.00  0.00    +0.000 C 
ATOM      6  C   UNL     1      48.051 -53.551  54.092  0.00  0.00    +0.000 C 
ATOM      7  C   UNL     1      48.091 -50.870  51.089  0.00  0.00    +0.000 C 
ATOM      8  C   UNL     1      48.491 -51.981  52.027  0.00  0.00    +0.000 C 
ATOM      9  C   UNL     1      47.371 -48.474  51.097  0.00  0.00    +0.000 C 
ATOM     10  C   UNL     1      46.428 -48.799  53.260  0.00  0.00    +0.000 C 
ATOM     11  C   UNL     1      46.109 -51.480  54.771  0.00  0.00    +0.000 C 
ATOM     12  C   UNL     1      47.073 -47.812  52.319  0.00  0.00    +0.000 C 
ATOM     13  C   UNL     1      47.417 -53.500  55.621  0.00  0.00    +0.000 C 
ATOM     14  C   UNL     1      46.408 -52.522  55.805  0.00  0.00    +0.000 C 
ATOM     15  C   UNL     1      45.825 -50.271  50.162  0.00  0.00    +0.000 C 
ATOM     16  C   UNL     1      49.519 -53.732  54.347  0.00  0.00    +0.000 C 
ATOM     17  C   UNL     1      47.433 -54.789  53.387  0.00  0.00    +0.000 C 
ATOM     18  C   UNL     1      50.337 -53.965  55.637  0.00  0.00    +0.000 C 
ATOM     19  C   UNL     1      48.228 -53.747  56.628  0.00  0.00    +0.000 C 
ATOM     20  C   UNL     1      49.636 -53.991  56.905  0.00  0.00    +0.000 C 
ENDROOT
BRANCH   9  21
ATOM     21  O   UNL     1      47.363 -47.774  49.905  0.00  0.00    +0.000 OA
ATOM     22  H   UNL     1      47.577 -48.355  49.149  0.00  0.00    +0.000 HD
ENDBRANCH   9  21
TORSDOF 1
ENDMDL
MODEL 5
REMARK VINA RESULT:      -5.9     13.815     16.045
REMARK  Name = Testosterone.pdbqt.pdb
REMARK  1 active torsions:
REMARK  status: ('A' for Active; 'I' for Inactive)
REMARK    1  A    between atoms: C_9  and  O_21
REMARK                            x       y       z     vdW  Elec       q    Type
REMARK                         _______ _______ _______ _____ _____    ______ ____
ROOT
ATOM      1  O   UNL     1      50.183 -58.652  56.778  0.00  0.00    +0.000 OA
ATOM      2  C   UNL     1      48.066 -52.230  53.188  0.00  0.00    +0.000 C 
ATOM      3  C   UNL     1      46.801 -51.370  53.664  0.00  0.00    +0.000 C 
ATOM      4  C   UNL     1      48.829 -53.069  54.134  0.00  0.00    +0.000 C 
ATOM      5  C   UNL     1      48.384 -53.482  55.510  0.00  0.00    +0.000 C 
ATOM      6  C   UNL     1      49.260 -54.287  56.495  0.00  0.00    +0.000 C 
ATOM      7  C   UNL     1      46.368 -51.964  54.930  0.00  0.00    +0.000 C 
ATOM      8  C   UNL     1      47.108 -52.933  55.819  0.00  0.00    +0.000 C 
ATOM      9  C   UNL     1      45.768 -51.586  52.532  0.00  0.00    +0.000 C 
ATOM     10  C   UNL     1      47.749 -52.740  51.887  0.00  0.00    +0.000 C 
ATOM     11  C   UNL     1      50.031 -53.702  53.741  0.00  0.00    +0.000 C 
ATOM     12  C   UNL     1      46.330 -52.396  51.507  0.00  0.00    +0.000 C 
ATOM     13  C   UNL     1      50.508 -55.128  55.803  0.00  0.00    +0.000 C 
ATOM     14  C   UNL     1      50.863 -54.688  54.504  0.00  0.00    +0.000 C 
ATOM     15  C   UNL     1      47.181 -49.873  53.782  0.00  0.00    +0.000 C 
ATOM     16  C   UNL     1      48.451 -55.369  57.148  0.00  0.00    +0.000 C 
ATOM     17  C   UNL     1      49.887 -53.327  57.543  0.00  0.00    +0.000 C 
ATOM     18  C   UNL     1      48.680 -56.887  57.323  0.00  0.00    +0.000 C 
ATOM     19  C   UNL     1      50.597 -56.415  56.065  0.00  0.00    +0.000 C 
ATOM     20  C   UNL     1      49.870 -57.478  56.744  0.00  0.00    +0.000 C 
ENDROOT
BRANCH   9  21
ATOM     21  O   UNL     1      44.805 -50.642  52.223  0.00  0.00    +0.000 OA
ATOM     22  H   UNL     1      45.027 -50.163  51.401  0.00  0.00    +0.000 HD
ENDBRANCH   9  21
TORSDOF 1
ENDMDL
MODEL 6
REMARK VINA RESULT:      -5.9     15.355     17.391
REMARK  Name = Testosterone.pdbqt.pdb
REMARK  1 active torsions:
REMARK  status: ('A' for Active; 'I' for Inactive)
REMARK    1  A    between atoms: C_9  and  O_21
REMARK                            x       y       z     vdW  Elec       q    Type
REMARK                         _______ _______ _______ _____ _____    ______ ____
ROOT
ATOM      1  O   UNL     1      42.590 -58.791  57.898  0.00  0.00    +0.000 OA
ATOM      2  C   UNL     1      47.203 -53.096  55.685  0.00  0.00    +0.000 C 
ATOM      3  C   UNL     1      47.294 -52.623  54.157  0.00  0.00    +0.000 C 
ATOM      4  C   UNL     1      45.980 -53.720  56.229  0.00  0.00    +0.000 C 
ATOM      5  C   UNL     1      44.835 -54.272  55.425  0.00  0.00    +0.000 C 
ATOM      6  C   UNL     1      43.537 -54.834  56.045  0.00  0.00    +0.000 C 
ATOM      7  C   UNL     1      46.232 -53.343  53.452  0.00  0.00    +0.000 C 
ATOM      8  C   UNL     1      45.060 -54.097  54.031  0.00  0.00    +0.000 C 
ATOM      9  C   UNL     1      48.705 -53.082  53.717  0.00  0.00    +0.000 C 
ATOM     10  C   UNL     1      48.485 -53.640  56.022  0.00  0.00    +0.000 C 
ATOM     11  C   UNL     1      45.853 -53.993  57.610  0.00  0.00    +0.000 C 
ATOM     12  C   UNL     1      49.384 -53.683  54.812  0.00  0.00    +0.000 C 
ATOM     13  C   UNL     1      43.654 -55.288  57.633  0.00  0.00    +0.000 C 
ATOM     14  C   UNL     1      44.763 -54.736  58.321  0.00  0.00    +0.000 C 
ATOM     15  C   UNL     1      47.163 -51.082  54.062  0.00  0.00    +0.000 C 
ATOM     16  C   UNL     1      43.143 -56.110  55.362  0.00  0.00    +0.000 C 
ATOM     17  C   UNL     1      42.411 -53.767  55.961  0.00  0.00    +0.000 C 
ATOM     18  C   UNL     1      42.775 -57.514  55.896  0.00  0.00    +0.000 C 
ATOM     19  C   UNL     1      43.277 -56.509  57.950  0.00  0.00    +0.000 C 
ATOM     20  C   UNL     1      42.830 -57.745  57.326  0.00  0.00    +0.000 C 
ENDROOT
BRANCH   9  21
ATOM     21  O   UNL     1      49.419 -52.427  52.730  0.00  0.00    +0.000 OA
ATOM     22  H   UNL     1      50.308 -52.172  53.044  0.00  0.00    +0.000 HD
ENDBRANCH   9  21
TORSDOF 1
ENDMDL
MODEL 7
REMARK VINA RESULT:      -5.6     15.245     17.452
REMARK  Name = Testosterone.pdbqt.pdb
REMARK  1 active torsions:
REMARK  status: ('A' for Active; 'I' for Inactive)
REMARK    1  A    between atoms: C_9  and  O_21
REMARK                            x       y       z     vdW  Elec       q    Type
REMARK                         _______ _______ _______ _____ _____    ______ ____
ROOT
ATOM      1  O   UNL     1      50.275 -58.911  58.781  0.00  0.00    +0.000 OA
ATOM      2  C   UNL     1      48.000 -52.799  54.771  0.00  0.00    +0.000 C 
ATOM      3  C   UNL     1      46.490 -52.633  54.261  0.00  0.00    +0.000 C 
ATOM      4  C   UNL     1      48.326 -53.589  55.975  0.00  0.00    +0.000 C 
ATOM      5  C   UNL     1      47.412 -54.560  56.672  0.00  0.00    +0.000 C 
ATOM      6  C   UNL     1      47.771 -55.294  57.982  0.00  0.00    +0.000 C 
ATOM      7  C   UNL     1      45.736 -53.723  54.884  0.00  0.00    +0.000 C 
ATOM      8  C   UNL     1      46.144 -54.616  56.030  0.00  0.00    +0.000 C 
ATOM      9  C   UNL     1      46.603 -52.801  52.727  0.00  0.00    +0.000 C 
ATOM     10  C   UNL     1      48.816 -52.925  53.600  0.00  0.00    +0.000 C 
ATOM     11  C   UNL     1      49.637 -53.604  56.505  0.00  0.00    +0.000 C 
ATOM     12  C   UNL     1      47.964 -52.982  52.356  0.00  0.00    +0.000 C 
ATOM     13  C   UNL     1      49.389 -55.378  58.323  0.00  0.00    +0.000 C 
ATOM     14  C   UNL     1      50.186 -54.440  57.621  0.00  0.00    +0.000 C 
ATOM     15  C   UNL     1      45.952 -51.226  54.621  0.00  0.00    +0.000 C 
ATOM     16  C   UNL     1      47.374 -56.739  57.896  0.00  0.00    +0.000 C 
ATOM     17  C   UNL     1      47.092 -54.583  59.184  0.00  0.00    +0.000 C 
ATOM     18  C   UNL     1      48.140 -58.054  58.167  0.00  0.00    +0.000 C 
ATOM     19  C   UNL     1      49.903 -56.566  58.563  0.00  0.00    +0.000 C 
ATOM     20  C   UNL     1      49.535 -57.974  58.552  0.00  0.00    +0.000 C 
ENDROOT
BRANCH   9  21
ATOM     21  O   UNL     1      45.718 -52.199  51.852  0.00  0.00    +0.000 OA
ATOM     22  H   UNL     1      44.794 -52.446  52.054  0.00  0.00    +0.000 HD
ENDBRANCH   9  21
TORSDOF 1
ENDMDL
MODEL 8
REMARK VINA RESULT:      -5.6     16.550     18.522
REMARK  Name = Testosterone.pdbqt.pdb
REMARK  1 active torsions:
REMARK  status: ('A' for Active; 'I' for Inactive)
REMARK    1  A    between atoms: C_9  and  O_21
REMARK                            x       y       z     vdW  Elec       q    Type
REMARK                         _______ _______ _______ _____ _____    ______ ____
ROOT
ATOM      1  O   UNL     1      40.355 -59.017  56.861  0.00  0.00    +0.000 OA
ATOM      2  C   UNL     1      46.539 -54.506  57.017  0.00  0.00    +0.000 C 
ATOM      3  C   UNL     1      47.247 -53.990  55.676  0.00  0.00    +0.000 C 
ATOM      4  C   UNL     1      45.101 -54.842  57.052  0.00  0.00    +0.000 C 
ATOM      5  C   UNL     1      44.213 -55.056  55.857  0.00  0.00    +0.000 C 
ATOM      6  C   UNL     1      42.693 -55.317  55.948  0.00  0.00    +0.000 C 
ATOM      7  C   UNL     1      46.365 -54.393  54.579  0.00  0.00    +0.000 C 
ATOM      8  C   UNL     1      44.934 -54.868  54.646  0.00  0.00    +0.000 C 
ATOM      9  C   UNL     1      48.592 -54.755  55.657  0.00  0.00    +0.000 C 
ATOM     10  C   UNL     1      47.481 -55.363  57.674  0.00  0.00    +0.000 C 
ATOM     11  C   UNL     1      44.453 -55.149  58.271  0.00  0.00    +0.000 C 
ATOM     12  C   UNL     1      48.711 -55.560  56.822  0.00  0.00    +0.000 C 
ATOM     13  C   UNL     1      42.159 -55.868  57.415  0.00  0.00    +0.000 C 
ATOM     14  C   UNL     1      43.054 -55.639  58.489  0.00  0.00    +0.000 C 
ATOM     15  C   UNL     1      47.485 -52.462  55.747  0.00  0.00    +0.000 C 
ATOM     16  C   UNL     1      42.298 -56.422  55.013  0.00  0.00    +0.000 C 
ATOM     17  C   UNL     1      41.917 -54.005  55.648  0.00  0.00    +0.000 C 
ATOM     18  C   UNL     1      41.481 -57.720  55.211  0.00  0.00    +0.000 C 
ATOM     19  C   UNL     1      41.448 -56.976  57.430  0.00  0.00    +0.000 C 
ATOM     20  C   UNL     1      40.991 -58.032  56.539  0.00  0.00    +0.000 C 
ENDROOT
BRANCH   9  21
ATOM     21  O   UNL     1      49.723 -54.243  55.046  0.00  0.00    +0.000 OA
ATOM     22  H   UNL     1      49.695 -53.267  55.008  0.00  0.00    +0.000 HD
ENDBRANCH   9  21
TORSDOF 1
ENDMDL
MODEL 9
REMARK VINA RESULT:      -5.6     16.808     19.553
REMARK  Name = Testosterone.pdbqt.pdb
REMARK  1 active torsions:
REMARK  status: ('A' for Active; 'I' for Inactive)
REMARK    1  A    between atoms: C_9  and  O_21
REMARK                            x       y       z     vdW  Elec       q    Type
REMARK                         _______ _______ _______ _____ _____    ______ ____
ROOT
ATOM      1  O   UNL     1      31.052 -31.064  53.964  0.00  0.00    +0.000 OA
ATOM      2  C   UNL     1      37.304 -27.278  56.241  0.00  0.00    +0.000 C 
ATOM      3  C   UNL     1      37.898 -26.043  55.411  0.00  0.00    +0.000 C 
ATOM      4  C   UNL     1      35.870 -27.626  56.190  0.00  0.00    +0.000 C 
ATOM      5  C   UNL     1      34.874 -27.127  55.180  0.00  0.00    +0.000 C 
ATOM      6  C   UNL     1      33.364 -27.451  55.225  0.00  0.00    +0.000 C 
ATOM      7  C   UNL     1      36.913 -25.754  54.367  0.00  0.00    +0.000 C 
ATOM      8  C   UNL     1      35.486 -26.233  54.259  0.00  0.00    +0.000 C 
ATOM      9  C   UNL     1      39.222 -26.596  54.832  0.00  0.00    +0.000 C 
ATOM     10  C   UNL     1      38.287 -28.320  56.183  0.00  0.00    +0.000 C 
ATOM     11  C   UNL     1      35.329 -28.618  57.041  0.00  0.00    +0.000 C 
ATOM     12  C   UNL     1      39.431 -27.928  55.281  0.00  0.00    +0.000 C 
ATOM     13  C   UNL     1      32.955 -28.782  56.121  0.00  0.00    +0.000 C 
ATOM     14  C   UNL     1      33.947 -29.197  57.043  0.00  0.00    +0.000 C 
ATOM     15  C   UNL     1      38.169 -24.843  56.353  0.00  0.00    +0.000 C 
ATOM     16  C   UNL     1      32.866 -27.805  53.855  0.00  0.00    +0.000 C 
ATOM     17  C   UNL     1      32.588 -26.246  55.825  0.00  0.00    +0.000 C 
ATOM     18  C   UNL     1      32.048 -29.001  53.314  0.00  0.00    +0.000 C 
ATOM     19  C   UNL     1      32.228 -29.712  55.537  0.00  0.00    +0.000 C 
ATOM     20  C   UNL     1      31.674 -30.055  54.236  0.00  0.00    +0.000 C 
ENDROOT
BRANCH   9  21
ATOM     21  O   UNL     1      40.301 -25.779  54.551  0.00  0.00    +0.000 OA
ATOM     22  H   UNL     1      40.961 -25.802  55.271  0.00  0.00    +0.000 HD
ENDBRANCH   9  21
TORSDOF 1
ENDMDL
