MODEL 1
REMARK VINA RESULT:      -3.6      0.000      0.000
REMARK  Name = Tetrachloroethylene.pdbqt.pdb
REMARK  0 active torsions:
REMARK  status: ('A' for Active; 'I' for Inactive)
REMARK                            x       y       z     vdW  Elec       q    Type
REMARK                         _______ _______ _______ _____ _____    ______ ____
ROOT
ATOM      1 CL   UNL     1      46.762 -36.802  51.082  0.00  0.00    +0.000 Cl
ATOM      2 CL   UNL     1      47.786 -35.287  53.369  0.00  0.00    +0.000 Cl
ATOM      3 CL   UNL     1      50.642 -36.735  53.048  0.00  0.00    +0.000 Cl
ATOM      4 CL   UNL     1      49.618 -38.249  50.761  0.00  0.00    +0.000 Cl
ATOM      5  C   UNL     1      48.106 -36.466  52.132  0.00  0.00    +0.000 C 
ATOM      6  C   UNL     1      49.299 -37.070  51.998  0.00  0.00    +0.000 C 
ENDROOT
TORSDOF 0
ENDMDL
MODEL 2
REMARK VINA RESULT:      -3.6      0.967      2.233
REMARK  Name = Tetrachloroethylene.pdbqt.pdb
REMARK  0 active torsions:
REMARK  status: ('A' for Active; 'I' for Inactive)
REMARK                            x       y       z     vdW  Elec       q    Type
REMARK                         _______ _______ _______ _____ _____    ______ ____
ROOT
ATOM      1 CL   UNL     1      48.009 -38.571  50.806  0.00  0.00    +0.000 Cl
ATOM      2 CL   UNL     1      46.155 -36.331  51.147  0.00  0.00    +0.000 Cl
ATOM      3 CL   UNL     1      48.268 -34.877  53.090  0.00  0.00    +0.000 Cl
ATOM      4 CL   UNL     1      50.123 -37.118  52.749  0.00  0.00    +0.000 Cl
ATOM      5  C   UNL     1      47.697 -37.028  51.542  0.00  0.00    +0.000 C 
ATOM      6  C   UNL     1      48.580 -36.421  52.354  0.00  0.00    +0.000 C 
ENDROOT
TORSDOF 0
ENDMDL
MODEL 3
REMARK VINA RESULT:      -3.6      0.077      2.740
REMARK  Name = Tetrachloroethylene.pdbqt.pdb
REMARK  0 active torsions:
REMARK  status: ('A' for Active; 'I' for Inactive)
REMARK                            x       y       z     vdW  Elec       q    Type
REMARK                         _______ _______ _______ _____ _____    ______ ____
ROOT
ATOM      1 CL   UNL     1      49.529 -38.232  50.701  0.00  0.00    +0.000 Cl
ATOM      2 CL   UNL     1      50.598 -36.791  53.015  0.00  0.00    +0.000 Cl
ATOM      3 CL   UNL     1      47.783 -35.273  53.371  0.00  0.00    +0.000 Cl
ATOM      4 CL   UNL     1      46.714 -36.715  51.058  0.00  0.00    +0.000 Cl
ATOM      5  C   UNL     1      49.244 -37.070  51.962  0.00  0.00    +0.000 C 
ATOM      6  C   UNL     1      48.068 -36.436  52.111  0.00  0.00    +0.000 C 
ENDROOT
TORSDOF 0
ENDMDL
MODEL 4
REMARK VINA RESULT:      -3.5      0.753      2.854
REMARK  Name = Tetrachloroethylene.pdbqt.pdb
REMARK  0 active torsions:
REMARK  status: ('A' for Active; 'I' for Inactive)
REMARK                            x       y       z     vdW  Elec       q    Type
REMARK                         _______ _______ _______ _____ _____    ______ ____
ROOT
ATOM      1 CL   UNL     1      47.928 -35.142  53.478  0.00  0.00    +0.000 Cl
ATOM      2 CL   UNL     1      50.223 -36.846  52.841  0.00  0.00    +0.000 Cl
ATOM      3 CL   UNL     1      48.560 -38.186  50.434  0.00  0.00    +0.000 Cl
ATOM      4 CL   UNL     1      46.265 -36.483  51.071  0.00  0.00    +0.000 Cl
ATOM      5  C   UNL     1      48.591 -36.384  52.459  0.00  0.00    +0.000 C 
ATOM      6  C   UNL     1      47.896 -36.944  51.453  0.00  0.00    +0.000 C 
ENDROOT
TORSDOF 0
ENDMDL
MODEL 5
REMARK VINA RESULT:      -2.7     16.364     16.908
REMARK  Name = Tetrachloroethylene.pdbqt.pdb
REMARK  0 active torsions:
REMARK  status: ('A' for Active; 'I' for Inactive)
REMARK                            x       y       z     vdW  Elec       q    Type
REMARK                         _______ _______ _______ _____ _____    ______ ____
ROOT
ATOM      1 CL   UNL     1      58.627 -48.648  60.890  0.00  0.00    +0.000 Cl
ATOM      2 CL   UNL     1      58.832 -45.953  62.016  0.00  0.00    +0.000 Cl
ATOM      3 CL   UNL     1      60.407 -44.973  59.387  0.00  0.00    +0.000 Cl
ATOM      4 CL   UNL     1      60.202 -47.668  58.260  0.00  0.00    +0.000 Cl
ATOM      5  C   UNL     1      59.188 -47.015  60.687  0.00  0.00    +0.000 C 
ATOM      6  C   UNL     1      59.846 -46.606  59.589  0.00  0.00    +0.000 C 
ENDROOT
TORSDOF 0
ENDMDL
MODEL 6
REMARK VINA RESULT:      -2.7      2.690      3.186
REMARK  Name = Tetrachloroethylene.pdbqt.pdb
REMARK  0 active torsions:
REMARK  status: ('A' for Active; 'I' for Inactive)
REMARK                            x       y       z     vdW  Elec       q    Type
REMARK                         _______ _______ _______ _____ _____    ______ ____
ROOT
ATOM      1 CL   UNL     1      49.285 -36.235  48.131  0.00  0.00    +0.000 Cl
ATOM      2 CL   UNL     1      47.605 -36.246  50.529  0.00  0.00    +0.000 Cl
ATOM      3 CL   UNL     1      48.380 -39.324  51.057  0.00  0.00    +0.000 Cl
ATOM      4 CL   UNL     1      50.060 -39.313  48.659  0.00  0.00    +0.000 Cl
ATOM      5  C   UNL     1      48.671 -37.137  49.483  0.00  0.00    +0.000 C 
ATOM      6  C   UNL     1      48.994 -38.422  49.704  0.00  0.00    +0.000 C 
ENDROOT
TORSDOF 0
ENDMDL
MODEL 7
REMARK VINA RESULT:      -2.7      2.734      3.948
REMARK  Name = Tetrachloroethylene.pdbqt.pdb
REMARK  0 active torsions:
REMARK  status: ('A' for Active; 'I' for Inactive)
REMARK                            x       y       z     vdW  Elec       q    Type
REMARK                         _______ _______ _______ _____ _____    ______ ____
ROOT
ATOM      1 CL   UNL     1      48.595 -36.347  50.487  0.00  0.00    +0.000 Cl
ATOM      2 CL   UNL     1      50.104 -36.960  48.054  0.00  0.00    +0.000 Cl
ATOM      3 CL   UNL     1      49.794 -40.106  48.655  0.00  0.00    +0.000 Cl
ATOM      4 CL   UNL     1      48.285 -39.493  51.088  0.00  0.00    +0.000 Cl
ATOM      5  C   UNL     1      49.259 -37.569  49.446  0.00  0.00    +0.000 C 
ATOM      6  C   UNL     1      49.130 -38.883  49.697  0.00  0.00    +0.000 C 
ENDROOT
TORSDOF 0
ENDMDL
MODEL 8
REMARK VINA RESULT:      -2.7      2.619      4.006
REMARK  Name = Tetrachloroethylene.pdbqt.pdb
REMARK  0 active torsions:
REMARK  status: ('A' for Active; 'I' for Inactive)
REMARK                            x       y       z     vdW  Elec       q    Type
REMARK                         _______ _______ _______ _____ _____    ______ ____
ROOT
ATOM      1 CL   UNL     1      49.840 -40.374  48.589  0.00  0.00    +0.000 Cl
ATOM      2 CL   UNL     1      49.868 -37.467  48.938  0.00  0.00    +0.000 Cl
ATOM      3 CL   UNL     1      48.125 -37.773  51.625  0.00  0.00    +0.000 Cl
ATOM      4 CL   UNL     1      48.097 -40.680  51.277  0.00  0.00    +0.000 Cl
ATOM      5  C   UNL     1      49.346 -39.010  49.546  0.00  0.00    +0.000 C 
ATOM      6  C   UNL     1      48.618 -39.137  50.669  0.00  0.00    +0.000 C 
ENDROOT
TORSDOF 0
ENDMDL
MODEL 9
REMARK VINA RESULT:      -2.6     12.440     13.892
REMARK  Name = Tetrachloroethylene.pdbqt.pdb
REMARK  0 active torsions:
REMARK  status: ('A' for Active; 'I' for Inactive)
REMARK                            x       y       z     vdW  Elec       q    Type
REMARK                         _______ _______ _______ _____ _____    ______ ____
ROOT
ATOM      1 CL   UNL     1      36.967 -26.697  55.206  0.00  0.00    +0.000 Cl
ATOM      2 CL   UNL     1      36.703 -29.411  56.271  0.00  0.00    +0.000 Cl
ATOM      3 CL   UNL     1      39.837 -29.921  55.749  0.00  0.00    +0.000 Cl
ATOM      4 CL   UNL     1      40.101 -27.207  54.683  0.00  0.00    +0.000 Cl
ATOM      5  C   UNL     1      37.747 -28.203  55.587  0.00  0.00    +0.000 C 
ATOM      6  C   UNL     1      39.056 -28.416  55.368  0.00  0.00    +0.000 C 
ENDROOT
TORSDOF 0
ENDMDL
