MODEL 1
REMARK VINA RESULT:      -7.4      0.000      0.000
REMARK  Name = Thalidomide.pdbqt.pdb
REMARK  1 active torsions:
REMARK  status: ('A' for Active; 'I' for Inactive)
REMARK    1  A    between atoms: N_3  and  C_12
REMARK                            x       y       z     vdW  Elec       q    Type
REMARK                         _______ _______ _______ _____ _____    ______ ____
ROOT
ATOM      1  O   UNL     1      46.783 -40.473  50.765  0.00  0.00    +0.000 OA
ATOM      2  O   UNL     1      49.734 -38.033  48.215  0.00  0.00    +0.000 OA
ATOM      3  N   UNL     1      48.390 -38.982  49.902  0.00  0.00    +0.000 N 
ATOM      4  C   UNL     1      47.616 -40.119  49.952  0.00  0.00    +0.000 C 
ATOM      5  C   UNL     1      49.130 -38.949  48.740  0.00  0.00    +0.000 C 
ATOM      6  C   UNL     1      47.982 -40.930  48.797  0.00  0.00    +0.000 A 
ATOM      7  C   UNL     1      48.918 -40.226  48.069  0.00  0.00    +0.000 A 
ATOM      8  C   UNL     1      47.522 -42.169  48.400  0.00  0.00    +0.000 A 
ATOM      9  C   UNL     1      49.446 -40.707  46.890  0.00  0.00    +0.000 A 
ATOM     10  C   UNL     1      48.053 -42.684  47.217  0.00  0.00    +0.000 A 
ATOM     11  C   UNL     1      49.002 -41.963  46.471  0.00  0.00    +0.000 A 
ENDROOT
BRANCH   3  12
ATOM     12  C   UNL     1      48.337 -37.959  50.817  0.00  0.00    +0.000 C 
ATOM     13  C   UNL     1      47.158 -37.232  51.097  0.00  0.00    +0.000 C 
ATOM     14  C   UNL     1      47.160 -36.017  51.972  0.00  0.00    +0.000 C 
ATOM     15  C   UNL     1      48.347 -35.544  52.621  0.00  0.00    +0.000 C 
ATOM     16  O   UNL     1      48.332 -34.600  53.393  0.00  0.00    +0.000 OA
ATOM     17  N   UNL     1      49.472 -36.308  52.320  0.00  0.00    +0.000 N 
ATOM     18  C   UNL     1      49.547 -37.535  51.644  0.00  0.00    +0.000 C 
ATOM     19  H   UNL     1      50.289 -36.082  52.867  0.00  0.00    +0.000 HD
ATOM     20  O   UNL     1      50.502 -38.282  51.835  0.00  0.00    +0.000 OA
ENDBRANCH   3  12
TORSDOF 1
ENDMDL
MODEL 2
REMARK VINA RESULT:      -7.0      2.994      4.154
REMARK  Name = Thalidomide.pdbqt.pdb
REMARK  1 active torsions:
REMARK  status: ('A' for Active; 'I' for Inactive)
REMARK    1  A    between atoms: N_3  and  C_12
REMARK                            x       y       z     vdW  Elec       q    Type
REMARK                         _______ _______ _______ _____ _____    ______ ____
ROOT
ATOM      1  O   UNL     1      47.560 -41.967  52.525  0.00  0.00    +0.000 OA
ATOM      2  O   UNL     1      49.325 -42.679  48.337  0.00  0.00    +0.000 OA
ATOM      3  N   UNL     1      48.625 -41.845  50.427  0.00  0.00    +0.000 N 
ATOM      4  C   UNL     1      48.093 -42.449  51.543  0.00  0.00    +0.000 C 
ATOM      5  C   UNL     1      49.036 -42.792  49.513  0.00  0.00    +0.000 C 
ATOM      6  C   UNL     1      48.292 -43.885  51.383  0.00  0.00    +0.000 A 
ATOM      7  C   UNL     1      48.885 -44.092  50.155  0.00  0.00    +0.000 A 
ATOM      8  C   UNL     1      47.966 -44.927  52.227  0.00  0.00    +0.000 A 
ATOM      9  C   UNL     1      49.177 -45.354  49.682  0.00  0.00    +0.000 A 
ATOM     10  C   UNL     1      48.267 -46.214  51.778  0.00  0.00    +0.000 A 
ATOM     11  C   UNL     1      48.864 -46.425  50.522  0.00  0.00    +0.000 A 
ENDROOT
BRANCH   3  12
ATOM     12  C   UNL     1      48.627 -40.492  50.196  0.00  0.00    +0.000 C 
ATOM     13  C   UNL     1      49.775 -39.780  49.783  0.00  0.00    +0.000 C 
ATOM     14  C   UNL     1      49.797 -38.285  49.698  0.00  0.00    +0.000 C 
ATOM     15  C   UNL     1      48.642 -37.486  49.979  0.00  0.00    +0.000 C 
ATOM     16  O   UNL     1      48.640 -36.274  49.836  0.00  0.00    +0.000 OA
ATOM     17  N   UNL     1      47.538 -38.243  50.365  0.00  0.00    +0.000 N 
ATOM     18  C   UNL     1      47.372 -39.635  50.331  0.00  0.00    +0.000 C 
ATOM     19  H   UNL     1      46.678 -37.721  50.437  0.00  0.00    +0.000 HD
ATOM     20  O   UNL     1      46.243 -40.116  50.278  0.00  0.00    +0.000 OA
ENDBRANCH   3  12
TORSDOF 1
ENDMDL
MODEL 3
REMARK VINA RESULT:      -6.6      5.955      8.976
REMARK  Name = Thalidomide.pdbqt.pdb
REMARK  1 active torsions:
REMARK  status: ('A' for Active; 'I' for Inactive)
REMARK    1  A    between atoms: N_3  and  C_12
REMARK                            x       y       z     vdW  Elec       q    Type
REMARK                         _______ _______ _______ _____ _____    ______ ____
ROOT
ATOM      1  O   UNL     1      48.750 -45.357  48.736  0.00  0.00    +0.000 OA
ATOM      2  O   UNL     1      47.771 -44.710  53.184  0.00  0.00    +0.000 OA
ATOM      3  N   UNL     1      48.486 -45.478  51.074  0.00  0.00    +0.000 N 
ATOM      4  C   UNL     1      48.566 -44.877  49.838  0.00  0.00    +0.000 C 
ATOM      5  C   UNL     1      48.163 -44.553  52.043  0.00  0.00    +0.000 C 
ATOM      6  C   UNL     1      48.404 -43.443  50.054  0.00  0.00    +0.000 A 
ATOM      7  C   UNL     1      48.178 -43.245  51.400  0.00  0.00    +0.000 A 
ATOM      8  C   UNL     1      48.429 -42.401  49.151  0.00  0.00    +0.000 A 
ATOM      9  C   UNL     1      47.949 -41.993  51.931  0.00  0.00    +0.000 A 
ATOM     10  C   UNL     1      48.216 -41.121  49.666  0.00  0.00    +0.000 A 
ATOM     11  C   UNL     1      47.978 -40.919  51.037  0.00  0.00    +0.000 A 
ENDROOT
BRANCH   3  12
ATOM     12  C   UNL     1      48.584 -46.830  51.294  0.00  0.00    +0.000 C 
ATOM     13  C   UNL     1      49.812 -47.488  51.527  0.00  0.00    +0.000 C 
ATOM     14  C   UNL     1      49.915 -48.980  51.599  0.00  0.00    +0.000 C 
ATOM     15  C   UNL     1      48.768 -49.832  51.487  0.00  0.00    +0.000 C 
ATOM     16  O   UNL     1      48.842 -51.042  51.622  0.00  0.00    +0.000 OA
ATOM     17  N   UNL     1      47.586 -49.126  51.275  0.00  0.00    +0.000 N 
ATOM     18  C   UNL     1      47.363 -47.743  51.342  0.00  0.00    +0.000 C 
ATOM     19  H   UNL     1      46.749 -49.688  51.328  0.00  0.00    +0.000 HD
ATOM     20  O   UNL     1      46.234 -47.315  51.565  0.00  0.00    +0.000 OA
ENDBRANCH   3  12
TORSDOF 1
ENDMDL
MODEL 4
REMARK VINA RESULT:      -6.5      3.288      4.854
REMARK  Name = Thalidomide.pdbqt.pdb
REMARK  1 active torsions:
REMARK  status: ('A' for Active; 'I' for Inactive)
REMARK    1  A    between atoms: N_3  and  C_12
REMARK                            x       y       z     vdW  Elec       q    Type
REMARK                         _______ _______ _______ _____ _____    ______ ____
ROOT
ATOM      1  O   UNL     1      50.026 -43.028  48.042  0.00  0.00    +0.000 OA
ATOM      2  O   UNL     1      47.942 -40.855  51.522  0.00  0.00    +0.000 OA
ATOM      3  N   UNL     1      48.877 -41.549  49.472  0.00  0.00    +0.000 N 
ATOM      4  C   UNL     1      49.372 -42.755  49.032  0.00  0.00    +0.000 C 
ATOM      5  C   UNL     1      48.277 -41.693  50.705  0.00  0.00    +0.000 C 
ATOM      6  C   UNL     1      48.950 -43.764  49.997  0.00  0.00    +0.000 A 
ATOM      7  C   UNL     1      48.265 -43.119  51.005  0.00  0.00    +0.000 A 
ATOM      8  C   UNL     1      49.161 -45.127  50.007  0.00  0.00    +0.000 A 
ATOM      9  C   UNL     1      47.760 -43.792  52.098  0.00  0.00    +0.000 A 
ATOM     10  C   UNL     1      48.645 -45.833  51.095  0.00  0.00    +0.000 A 
ATOM     11  C   UNL     1      47.953 -45.175  52.127  0.00  0.00    +0.000 A 
ENDROOT
BRANCH   3  12
ATOM     12  C   UNL     1      49.066 -40.347  48.837  0.00  0.00    +0.000 C 
ATOM     13  C   UNL     1      49.999 -39.380  49.274  0.00  0.00    +0.000 C 
ATOM     14  C   UNL     1      50.072 -38.013  48.668  0.00  0.00    +0.000 C 
ATOM     15  C   UNL     1      49.237 -37.616  47.573  0.00  0.00    +0.000 C 
ATOM     16  O   UNL     1      49.349 -36.529  47.032  0.00  0.00    +0.000 OA
ATOM     17  N   UNL     1      48.350 -38.614  47.177  0.00  0.00    +0.000 N 
ATOM     18  C   UNL     1      48.306 -39.959  47.572  0.00  0.00    +0.000 C 
ATOM     19  H   UNL     1      47.848 -38.412  46.326  0.00  0.00    +0.000 HD
ATOM     20  O   UNL     1      47.783 -40.796  46.842  0.00  0.00    +0.000 OA
ENDBRANCH   3  12
TORSDOF 1
ENDMDL
MODEL 5
REMARK VINA RESULT:      -6.4      3.062      5.515
REMARK  Name = Thalidomide.pdbqt.pdb
REMARK  1 active torsions:
REMARK  status: ('A' for Active; 'I' for Inactive)
REMARK    1  A    between atoms: N_3  and  C_12
REMARK                            x       y       z     vdW  Elec       q    Type
REMARK                         _______ _______ _______ _____ _____    ______ ____
ROOT
ATOM      1  O   UNL     1      50.546 -38.995  50.108  0.00  0.00    +0.000 OA
ATOM      2  O   UNL     1      47.864 -40.671  46.768  0.00  0.00    +0.000 OA
ATOM      3  N   UNL     1      49.016 -40.178  48.764  0.00  0.00    +0.000 N 
ATOM      4  C   UNL     1      49.809 -39.122  49.148  0.00  0.00    +0.000 C 
ATOM      5  C   UNL     1      48.424 -39.922  47.545  0.00  0.00    +0.000 C 
ATOM      6  C   UNL     1      49.612 -38.064  48.164  0.00  0.00    +0.000 A 
ATOM      7  C   UNL     1      48.753 -38.544  47.198  0.00  0.00    +0.000 A 
ATOM      8  C   UNL     1      50.152 -36.796  48.102  0.00  0.00    +0.000 A 
ATOM      9  C   UNL     1      48.388 -37.795  46.100  0.00  0.00    +0.000 A 
ATOM     10  C   UNL     1      49.785 -36.012  47.007  0.00  0.00    +0.000 A 
ATOM     11  C   UNL     1      48.915 -36.504  46.019  0.00  0.00    +0.000 A 
ENDROOT
BRANCH   3  12
ATOM     12  C   UNL     1      48.927 -41.374  49.432  0.00  0.00    +0.000 C 
ATOM     13  C   UNL     1      49.722 -42.498  49.115  0.00  0.00    +0.000 C 
ATOM     14  C   UNL     1      49.494 -43.838  49.744  0.00  0.00    +0.000 C 
ATOM     15  C   UNL     1      48.491 -44.052  50.745  0.00  0.00    +0.000 C 
ATOM     16  O   UNL     1      48.357 -45.124  51.311  0.00  0.00    +0.000 OA
ATOM     17  N   UNL     1      47.752 -42.906  51.027  0.00  0.00    +0.000 N 
ATOM     18  C   UNL     1      47.982 -41.586  50.610  0.00  0.00    +0.000 C 
ATOM     19  H   UNL     1      47.134 -42.992  51.820  0.00  0.00    +0.000 HD
ATOM     20  O   UNL     1      47.535 -40.650  51.267  0.00  0.00    +0.000 OA
ENDBRANCH   3  12
TORSDOF 1
ENDMDL
MODEL 6
REMARK VINA RESULT:      -6.4      3.402      4.847
REMARK  Name = Thalidomide.pdbqt.pdb
REMARK  1 active torsions:
REMARK  status: ('A' for Active; 'I' for Inactive)
REMARK    1  A    between atoms: N_3  and  C_12
REMARK                            x       y       z     vdW  Elec       q    Type
REMARK                         _______ _______ _______ _____ _____    ______ ____
ROOT
ATOM      1  O   UNL     1      46.489 -41.522  47.460  0.00  0.00    +0.000 OA
ATOM      2  O   UNL     1      50.365 -39.589  49.011  0.00  0.00    +0.000 OA
ATOM      3  N   UNL     1      48.514 -40.966  48.528  0.00  0.00    +0.000 N 
ATOM      4  C   UNL     1      47.538 -40.913  47.559  0.00  0.00    +0.000 C 
ATOM      5  C   UNL     1      49.487 -40.020  48.287  0.00  0.00    +0.000 C 
ATOM      6  C   UNL     1      47.984 -39.948  46.561  0.00  0.00    +0.000 A 
ATOM      7  C   UNL     1      49.181 -39.419  46.994  0.00  0.00    +0.000 A 
ATOM      8  C   UNL     1      47.387 -39.548  45.383  0.00  0.00    +0.000 A 
ATOM      9  C   UNL     1      49.854 -38.445  46.287  0.00  0.00    +0.000 A 
ATOM     10  C   UNL     1      48.057 -38.574  44.641  0.00  0.00    +0.000 A 
ATOM     11  C   UNL     1      49.274 -38.029  45.087  0.00  0.00    +0.000 A 
ENDROOT
BRANCH   3  12
ATOM     12  C   UNL     1      48.462 -41.757  49.648  0.00  0.00    +0.000 C 
ATOM     13  C   UNL     1      48.958 -43.079  49.685  0.00  0.00    +0.000 C 
ATOM     14  C   UNL     1      48.743 -43.979  50.863  0.00  0.00    +0.000 C 
ATOM     15  C   UNL     1      48.066 -43.539  52.047  0.00  0.00    +0.000 C 
ATOM     16  O   UNL     1      47.957 -44.248  53.034  0.00  0.00    +0.000 OA
ATOM     17  N   UNL     1      47.614 -42.225  51.958  0.00  0.00    +0.000 N 
ATOM     18  C   UNL     1      47.892 -41.264  50.975  0.00  0.00    +0.000 C 
ATOM     19  H   UNL     1      47.256 -41.847  52.823  0.00  0.00    +0.000 HD
ATOM     20  O   UNL     1      47.799 -40.069  51.243  0.00  0.00    +0.000 OA
ENDBRANCH   3  12
TORSDOF 1
ENDMDL
MODEL 7
REMARK VINA RESULT:      -6.3      3.157      4.454
REMARK  Name = Thalidomide.pdbqt.pdb
REMARK  1 active torsions:
REMARK  status: ('A' for Active; 'I' for Inactive)
REMARK    1  A    between atoms: N_3  and  C_12
REMARK                            x       y       z     vdW  Elec       q    Type
REMARK                         _______ _______ _______ _____ _____    ______ ____
ROOT
ATOM      1  O   UNL     1      47.298 -40.146  50.445  0.00  0.00    +0.000 OA
ATOM      2  O   UNL     1      49.883 -42.528  47.476  0.00  0.00    +0.000 OA
ATOM      3  N   UNL     1      48.797 -40.901  48.791  0.00  0.00    +0.000 N 
ATOM      4  C   UNL     1      48.002 -40.984  49.912  0.00  0.00    +0.000 C 
ATOM      5  C   UNL     1      49.340 -42.132  48.490  0.00  0.00    +0.000 C 
ATOM      6  C   UNL     1      48.147 -42.338  50.435  0.00  0.00    +0.000 A 
ATOM      7  C   UNL     1      48.978 -43.030  49.580  0.00  0.00    +0.000 A 
ATOM      8  C   UNL     1      47.586 -42.924  51.551  0.00  0.00    +0.000 A 
ATOM      9  C   UNL     1      49.292 -44.359  49.775  0.00  0.00    +0.000 A 
ATOM     10  C   UNL     1      47.902 -44.264  51.779  0.00  0.00    +0.000 A 
ATOM     11  C   UNL     1      48.743 -44.973  50.903  0.00  0.00    +0.000 A 
ENDROOT
BRANCH   3  12
ATOM     12  C   UNL     1      48.928 -39.783  48.006  0.00  0.00    +0.000 C 
ATOM     13  C   UNL     1      48.136 -39.546  46.860  0.00  0.00    +0.000 C 
ATOM     14  C   UNL     1      48.407 -38.406  45.927  0.00  0.00    +0.000 C 
ATOM     15  C   UNL     1      49.452 -37.455  46.165  0.00  0.00    +0.000 C 
ATOM     16  O   UNL     1      49.622 -36.484  45.445  0.00  0.00    +0.000 OA
ATOM     17  N   UNL     1      50.186 -37.731  47.315  0.00  0.00    +0.000 N 
ATOM     18  C   UNL     1      49.922 -38.671  48.323  0.00  0.00    +0.000 C 
ATOM     19  H   UNL     1      50.836 -37.006  47.579  0.00  0.00    +0.000 HD
ATOM     20  O   UNL     1      50.382 -38.506  49.449  0.00  0.00    +0.000 OA
ENDBRANCH   3  12
TORSDOF 1
ENDMDL
MODEL 8
REMARK VINA RESULT:      -6.2      3.159      6.664
REMARK  Name = Thalidomide.pdbqt.pdb
REMARK  1 active torsions:
REMARK  status: ('A' for Active; 'I' for Inactive)
REMARK    1  A    between atoms: N_3  and  C_12
REMARK                            x       y       z     vdW  Elec       q    Type
REMARK                         _______ _______ _______ _____ _____    ______ ____
ROOT
ATOM      1  O   UNL     1      49.811 -41.301  47.451  0.00  0.00    +0.000 OA
ATOM      2  O   UNL     1      47.131 -41.311  51.190  0.00  0.00    +0.000 OA
ATOM      3  N   UNL     1      48.559 -41.805  49.382  0.00  0.00    +0.000 N 
ATOM      4  C   UNL     1      49.245 -41.013  48.489  0.00  0.00    +0.000 C 
ATOM      5  C   UNL     1      47.990 -41.036  50.374  0.00  0.00    +0.000 C 
ATOM      6  C   UNL     1      49.215 -39.655  49.018  0.00  0.00    +0.000 A 
ATOM      7  C   UNL     1      48.468 -39.673  50.177  0.00  0.00    +0.000 A 
ATOM      8  C   UNL     1      49.774 -38.496  48.522  0.00  0.00    +0.000 A 
ATOM      9  C   UNL     1      48.217 -38.531  50.909  0.00  0.00    +0.000 A 
ATOM     10  C   UNL     1      49.548 -37.328  49.253  0.00  0.00    +0.000 A 
ATOM     11  C   UNL     1      48.780 -37.345  50.431  0.00  0.00    +0.000 A 
ENDROOT
BRANCH   3  12
ATOM     12  C   UNL     1      48.358 -43.155  49.235  0.00  0.00    +0.000 C 
ATOM     13  C   UNL     1      47.175 -43.707  48.693  0.00  0.00    +0.000 C 
ATOM     14  C   UNL     1      46.909 -45.180  48.697  0.00  0.00    +0.000 C 
ATOM     15  C   UNL     1      47.859 -46.128  49.201  0.00  0.00    +0.000 C 
ATOM     16  O   UNL     1      47.673 -47.331  49.134  0.00  0.00    +0.000 OA
ATOM     17  N   UNL     1      49.009 -45.527  49.707  0.00  0.00    +0.000 N 
ATOM     18  C   UNL     1      49.415 -44.188  49.614  0.00  0.00    +0.000 C 
ATOM     19  H   UNL     1      49.748 -46.173  49.942  0.00  0.00    +0.000 HD
ATOM     20  O   UNL     1      50.605 -43.901  49.707  0.00  0.00    +0.000 OA
ENDBRANCH   3  12
TORSDOF 1
ENDMDL
MODEL 9
REMARK VINA RESULT:      -6.1     23.401     25.358
REMARK  Name = Thalidomide.pdbqt.pdb
REMARK  1 active torsions:
REMARK  status: ('A' for Active; 'I' for Inactive)
REMARK    1  A    between atoms: N_3  and  C_12
REMARK                            x       y       z     vdW  Elec       q    Type
REMARK                         _______ _______ _______ _____ _____    ______ ____
ROOT
ATOM      1  O   UNL     1      50.928 -39.331  75.616  0.00  0.00    +0.000 OA
ATOM      2  O   UNL     1      50.207 -35.088  73.990  0.00  0.00    +0.000 OA
ATOM      3  N   UNL     1      50.070 -37.254  74.908  0.00  0.00    +0.000 N 
ATOM      4  C   UNL     1      51.023 -38.151  75.334  0.00  0.00    +0.000 C 
ATOM      5  C   UNL     1      50.647 -36.039  74.608  0.00  0.00    +0.000 C 
ATOM      6  C   UNL     1      52.280 -37.418  75.431  0.00  0.00    +0.000 A 
ATOM      7  C   UNL     1      52.046 -36.126  75.007  0.00  0.00    +0.000 A 
ATOM      8  C   UNL     1      53.528 -37.844  75.834  0.00  0.00    +0.000 A 
ATOM      9  C   UNL     1      53.047 -35.180  74.944  0.00  0.00    +0.000 A 
ATOM     10  C   UNL     1      54.556 -36.900  75.794  0.00  0.00    +0.000 A 
ATOM     11  C   UNL     1      54.319 -35.585  75.355  0.00  0.00    +0.000 A 
ENDROOT
BRANCH   3  12
ATOM     12  C   UNL     1      48.750 -37.562  74.686  0.00  0.00    +0.000 C 
ATOM     13  C   UNL     1      47.760 -37.489  75.691  0.00  0.00    +0.000 C 
ATOM     14  C   UNL     1      46.364 -37.986  75.472  0.00  0.00    +0.000 C 
ATOM     15  C   UNL     1      45.931 -38.519  74.215  0.00  0.00    +0.000 C 
ATOM     16  O   UNL     1      44.775 -38.853  74.015  0.00  0.00    +0.000 OA
ATOM     17  N   UNL     1      46.945 -38.551  73.260  0.00  0.00    +0.000 N 
ATOM     18  C   UNL     1      48.224 -37.979  73.316  0.00  0.00    +0.000 C 
ATOM     19  H   UNL     1      46.635 -38.793  72.331  0.00  0.00    +0.000 HD
ATOM     20  O   UNL     1      48.821 -37.711  72.278  0.00  0.00    +0.000 OA
ENDBRANCH   3  12
TORSDOF 1
ENDMDL
