MODEL 1
REMARK VINA RESULT:      -7.5      0.000      0.000
REMARK  Name = Thapsigargin.pdbqt.pdb
REMARK  10 active torsions:
REMARK  status: ('A' for Active; 'I' for Inactive)
REMARK    1  A    between atoms: O_2  and  C_24
REMARK    2  A    between atoms: C_17  and  O_43
REMARK    3  A    between atoms: C_19  and  C_24
REMARK    4  A    between atoms: C_19  and  O_47
REMARK    5  A    between atoms: C_27  and  C_35
REMARK    6  A    between atoms: C_35  and  C_36
REMARK    7  A    between atoms: C_37  and  C_38
REMARK    8  A    between atoms: C_39  and  C_40
REMARK    9  A    between atoms: C_42  and  O_43
REMARK   10  A    between atoms: C_42  and  C_44
REMARK                            x       y       z     vdW  Elec       q    Type
REMARK                         _______ _______ _______ _____ _____    ______ ____
ROOT
ATOM      1  O   UNL     1      43.775 -55.376  57.497  0.00  0.00    +0.000 OA
ATOM      2  O   UNL     1      49.139 -53.769  55.187  0.00  0.00    +0.000 OA
ATOM      3  O   UNL     1      49.344 -56.308  55.417  0.00  0.00    +0.000 OA
ATOM      4  O   UNL     1      48.680 -54.917  59.297  0.00  0.00    +0.000 OA
ATOM      5  O   UNL     1      41.569 -55.925  57.257  0.00  0.00    +0.000 OA
ATOM      6  O   UNL     1      48.717 -55.938  54.136  0.00  0.00    +0.000 OA
ATOM      7  O   UNL     1      51.599 -56.654  56.306  0.00  0.00    +0.000 OA
ATOM      8  O   UNL     1      47.021 -56.627  60.021  0.00  0.00    +0.000 OA
ATOM      9  C   UNL     1      47.032 -53.407  56.557  0.00  0.00    +0.000 C 
ATOM     10  C   UNL     1      44.045 -54.170  55.531  0.00  0.00    +0.000 C 
ATOM     11  C   UNL     1      44.653 -54.597  56.755  0.00  0.00    +0.000 C 
ATOM     12  C   UNL     1      46.909 -52.685  55.257  0.00  0.00    +0.000 C 
ATOM     13  C   UNL     1      45.892 -54.264  57.179  0.00  0.00    +0.000 C 
ATOM     14  C   UNL     1      44.697 -53.331  54.793  0.00  0.00    +0.000 C 
ATOM     15  C   UNL     1      45.816 -52.529  54.487  0.00  0.00    +0.000 C 
ATOM     16  C   UNL     1      47.972 -53.228  57.639  0.00  0.00    +0.000 C 
ATOM     17  C   UNL     1      42.680 -54.718  55.442  0.00  0.00    +0.000 C 
ATOM     18  C   UNL     1      47.691 -54.169  58.650  0.00  0.00    +0.000 C 
ATOM     19  C   UNL     1      46.447 -54.665  58.476  0.00  0.00    +0.000 C 
ATOM     20  C   UNL     1      47.714 -53.918  55.334  0.00  0.00    +0.000 C 
ATOM     21  C   UNL     1      42.588 -55.414  56.802  0.00  0.00    +0.000 C 
ATOM     22  C   UNL     1      46.296 -55.818  59.257  0.00  0.00    +0.000 C 
ATOM     23  C   UNL     1      48.457 -54.508  54.165  0.00  0.00    +0.000 C 
ATOM     24  C   UNL     1      50.723 -56.466  55.244  0.00  0.00    +0.000 C 
ATOM     25  C   UNL     1      48.353 -56.279  59.649  0.00  0.00    +0.000 C 
ATOM     26  C   UNL     1      48.530 -53.836  52.787  0.00  0.00    +0.000 C 
ATOM     27  C   UNL     1      49.240 -57.257  59.373  0.00  0.00    +0.000 C 
ATOM     28  C   UNL     1      48.943 -58.709  59.674  0.00  0.00    +0.000 C 
ATOM     29  C   UNL     1      50.294 -57.025  58.443  0.00  0.00    +0.000 C 
ATOM     30  C   UNL     1      50.962 -56.843  57.460  0.00  0.00    +0.000 C 
ENDROOT
BRANCH  17  31
ATOM     31  O   UNL     1      41.729 -53.679  55.286  0.00  0.00    +0.000 OA
ATOM     32  H   UNL     1      40.900 -54.023  55.669  0.00  0.00    +0.000 HD
ENDBRANCH  17  31
BRANCH  17  33
ATOM     33  C   UNL     1      42.570 -55.666  54.319  0.00  0.00    +0.000 C 
BRANCH  33  34
ATOM     34  O   UNL     1      42.495 -56.526  53.304  0.00  0.00    +0.000 OA
ATOM     35  H   UNL     1      42.570 -57.447  53.618  0.00  0.00    +0.000 HD
ENDBRANCH  33  34
ENDBRANCH  17  33
BRANCH  24  36
ATOM     36  C   UNL     1      51.290 -56.260  54.093  0.00  0.00    +0.000 C 
BRANCH  36  37
ATOM     37  C   UNL     1      51.962 -55.968  52.747  0.00  0.00    +0.000 C 
ATOM     38  C   UNL     1      52.466 -55.763  51.677  0.00  0.00    +0.000 C 
BRANCH  38  39
ATOM     39  C   UNL     1      53.091 -55.519  50.300  0.00  0.00    +0.000 C 
ATOM     40  C   UNL     1      53.571 -55.317  49.218  0.00  0.00    +0.000 C 
BRANCH  40  41
ATOM     41  C   UNL     1      54.179 -55.053  47.838  0.00  0.00    +0.000 C 
ATOM     42  C   UNL     1      54.708 -54.825  46.636  0.00  0.00    +0.000 C 
ENDBRANCH  40  41
ENDBRANCH  38  39
ENDBRANCH  36  37
ENDBRANCH  24  36
BRANCH  15  43
ATOM     43  O   UNL     1      45.700 -51.432  53.625  0.00  0.00    +0.000 OA
BRANCH  43  45
ATOM     44  O   UNL     1      46.273 -49.649  55.010  0.00  0.00    +0.000 OA
ATOM     45  C   UNL     1      46.426 -50.339  54.012  0.00  0.00    +0.000 C 
BRANCH  45  46
ATOM     46  C   UNL     1      47.461 -50.033  53.073  0.00  0.00    +0.000 C 
ATOM     47  C   UNL     1      48.330 -49.774  52.291  0.00  0.00    +0.000 C 
ATOM     48  C   UNL     1      49.433 -49.449  51.281  0.00  0.00    +0.000 C 
ENDBRANCH  45  46
ENDBRANCH  43  45
ENDBRANCH  15  43
TORSDOF 10
ENDMDL
MODEL 2
REMARK VINA RESULT:      -7.2      8.313     11.438
REMARK  Name = Thapsigargin.pdbqt.pdb
REMARK  10 active torsions:
REMARK  status: ('A' for Active; 'I' for Inactive)
REMARK    1  A    between atoms: O_2  and  C_24
REMARK    2  A    between atoms: C_17  and  O_43
REMARK    3  A    between atoms: C_19  and  C_24
REMARK    4  A    between atoms: C_19  and  O_47
REMARK    5  A    between atoms: C_27  and  C_35
REMARK    6  A    between atoms: C_35  and  C_36
REMARK    7  A    between atoms: C_37  and  C_38
REMARK    8  A    between atoms: C_39  and  C_40
REMARK    9  A    between atoms: C_42  and  O_43
REMARK   10  A    between atoms: C_42  and  C_44
REMARK                            x       y       z     vdW  Elec       q    Type
REMARK                         _______ _______ _______ _____ _____    ______ ____
ROOT
ATOM      1  O   UNL     1      47.355 -43.305  50.881  0.00  0.00    +0.000 OA
ATOM      2  O   UNL     1      49.555 -48.586  48.888  0.00  0.00    +0.000 OA
ATOM      3  O   UNL     1      47.139 -48.609  48.047  0.00  0.00    +0.000 OA
ATOM      4  O   UNL     1      46.840 -48.354  52.204  0.00  0.00    +0.000 OA
ATOM      5  O   UNL     1      47.041 -41.051  50.663  0.00  0.00    +0.000 OA
ATOM      6  O   UNL     1      48.026 -47.917  47.097  0.00  0.00    +0.000 OA
ATOM      7  O   UNL     1      46.370 -50.892  48.486  0.00  0.00    +0.000 OA
ATOM      8  O   UNL     1      45.051 -46.627  52.337  0.00  0.00    +0.000 OA
ATOM      9  C   UNL     1      49.406 -46.623  50.493  0.00  0.00    +0.000 C 
ATOM     10  C   UNL     1      49.251 -43.517  49.555  0.00  0.00    +0.000 C 
ATOM     11  C   UNL     1      48.335 -44.182  50.433  0.00  0.00    +0.000 C 
ATOM     12  C   UNL     1      50.602 -46.459  49.617  0.00  0.00    +0.000 C 
ATOM     13  C   UNL     1      48.415 -45.471  50.827  0.00  0.00    +0.000 C 
ATOM     14  C   UNL     1      50.291 -44.174  49.158  0.00  0.00    +0.000 C 
ATOM     15  C   UNL     1      51.104 -45.325  49.091  0.00  0.00    +0.000 C 
ATOM     16  C   UNL     1      49.087 -47.655  51.453  0.00  0.00    +0.000 C 
ATOM     17  C   UNL     1      48.842 -42.111  49.391  0.00  0.00    +0.000 C 
ATOM     18  C   UNL     1      47.826 -47.379  52.020  0.00  0.00    +0.000 C 
ATOM     19  C   UNL     1      47.495 -46.091  51.786  0.00  0.00    +0.000 C 
ATOM     20  C   UNL     1      49.415 -47.169  49.106  0.00  0.00    +0.000 C 
ATOM     21  C   UNL     1      47.653 -42.069  50.354  0.00  0.00    +0.000 C 
ATOM     22  C   UNL     1      46.130 -45.911  52.044  0.00  0.00    +0.000 C 
ATOM     23  C   UNL     1      49.328 -47.772  47.728  0.00  0.00    +0.000 C 
ATOM     24  C   UNL     1      47.011 -49.955  47.686  0.00  0.00    +0.000 C 
ATOM     25  C   UNL     1      45.468 -47.950  52.005  0.00  0.00    +0.000 C 
ATOM     26  C   UNL     1      50.503 -47.792  46.741  0.00  0.00    +0.000 C 
ATOM     27  C   UNL     1      44.654 -48.735  51.268  0.00  0.00    +0.000 C 
ATOM     28  C   UNL     1      43.220 -48.349  50.984  0.00  0.00    +0.000 C 
ATOM     29  C   UNL     1      45.206 -49.729  50.410  0.00  0.00    +0.000 C 
ATOM     30  C   UNL     1      45.748 -50.332  49.523  0.00  0.00    +0.000 C 
ENDROOT
BRANCH  17  31
ATOM     31  O   UNL     1      49.890 -41.234  49.766  0.00  0.00    +0.000 OA
ATOM     32  H   UNL     1      49.547 -40.334  49.611  0.00  0.00    +0.000 HD
ENDBRANCH  17  31
BRANCH  17  33
ATOM     33  C   UNL     1      48.443 -41.842  47.997  0.00  0.00    +0.000 C 
BRANCH  33  34
ATOM     34  O   UNL     1      48.106 -41.604  46.731  0.00  0.00    +0.000 OA
ATOM     35  H   UNL     1      47.532 -40.818  46.662  0.00  0.00    +0.000 HD
ENDBRANCH  33  34
ENDBRANCH  17  33
BRANCH  24  36
ATOM     36  C   UNL     1      47.649 -50.447  46.666  0.00  0.00    +0.000 C 
BRANCH  36  37
ATOM     37  C   UNL     1      48.437 -50.991  45.470  0.00  0.00    +0.000 C 
ATOM     38  C   UNL     1      49.075 -51.435  44.556  0.00  0.00    +0.000 C 
BRANCH  38  39
ATOM     39  C   UNL     1      49.905 -52.018  43.407  0.00  0.00    +0.000 C 
ATOM     40  C   UNL     1      50.566 -52.467  42.512  0.00  0.00    +0.000 C 
BRANCH  40  41
ATOM     41  C   UNL     1      51.417 -53.038  41.373  0.00  0.00    +0.000 C 
ATOM     42  C   UNL     1      52.157 -53.532  40.381  0.00  0.00    +0.000 C 
ENDBRANCH  40  41
ENDBRANCH  38  39
ENDBRANCH  36  37
ENDBRANCH  24  36
BRANCH  15  43
ATOM     43  O   UNL     1      52.461 -45.229  48.764  0.00  0.00    +0.000 OA
BRANCH  43  45
ATOM     44  O   UNL     1      52.330 -44.447  46.574  0.00  0.00    +0.000 OA
ATOM     45  C   UNL     1      52.715 -45.242  47.420  0.00  0.00    +0.000 C 
BRANCH  45  46
ATOM     46  C   UNL     1      53.530 -46.358  47.047  0.00  0.00    +0.000 C 
ATOM     47  C   UNL     1      54.207 -47.293  46.731  0.00  0.00    +0.000 C 
ATOM     48  C   UNL     1      55.082 -48.486  46.339  0.00  0.00    +0.000 C 
ENDBRANCH  45  46
ENDBRANCH  43  45
ENDBRANCH  15  43
TORSDOF 10
ENDMDL
MODEL 3
REMARK VINA RESULT:      -7.1      2.725      9.510
REMARK  Name = Thapsigargin.pdbqt.pdb
REMARK  10 active torsions:
REMARK  status: ('A' for Active; 'I' for Inactive)
REMARK    1  A    between atoms: O_2  and  C_24
REMARK    2  A    between atoms: C_17  and  O_43
REMARK    3  A    between atoms: C_19  and  C_24
REMARK    4  A    between atoms: C_19  and  O_47
REMARK    5  A    between atoms: C_27  and  C_35
REMARK    6  A    between atoms: C_35  and  C_36
REMARK    7  A    between atoms: C_37  and  C_38
REMARK    8  A    between atoms: C_39  and  C_40
REMARK    9  A    between atoms: C_42  and  O_43
REMARK   10  A    between atoms: C_42  and  C_44
REMARK                            x       y       z     vdW  Elec       q    Type
REMARK                         _______ _______ _______ _____ _____    ______ ____
ROOT
ATOM      1  O   UNL     1      49.590 -54.544  52.581  0.00  0.00    +0.000 OA
ATOM      2  O   UNL     1      46.149 -53.987  57.536  0.00  0.00    +0.000 OA
ATOM      3  O   UNL     1      44.611 -55.205  55.895  0.00  0.00    +0.000 OA
ATOM      4  O   UNL     1      45.520 -51.576  54.042  0.00  0.00    +0.000 OA
ATOM      5  O   UNL     1      51.183 -55.633  51.356  0.00  0.00    +0.000 OA
ATOM      6  O   UNL     1      45.463 -56.155  56.631  0.00  0.00    +0.000 OA
ATOM      7  O   UNL     1      42.439 -54.111  56.178  0.00  0.00    +0.000 OA
ATOM      8  O   UNL     1      45.942 -52.434  51.742  0.00  0.00    +0.000 OA
ATOM      9  C   UNL     1      47.981 -53.280  55.925  0.00  0.00    +0.000 C 
ATOM     10  C   UNL     1      50.196 -55.309  54.689  0.00  0.00    +0.000 C 
ATOM     11  C   UNL     1      49.336 -54.440  53.943  0.00  0.00    +0.000 C 
ATOM     12  C   UNL     1      48.595 -53.908  57.130  0.00  0.00    +0.000 C 
ATOM     13  C   UNL     1      48.426 -53.591  54.467  0.00  0.00    +0.000 C 
ATOM     14  C   UNL     1      50.164 -55.228  55.979  0.00  0.00    +0.000 C 
ATOM     15  C   UNL     1      49.675 -54.709  57.197  0.00  0.00    +0.000 C 
ATOM     16  C   UNL     1      47.175 -52.086  55.803  0.00  0.00    +0.000 C 
ATOM     17  C   UNL     1      51.066 -56.055  53.762  0.00  0.00    +0.000 C 
ATOM     18  C   UNL     1      46.814 -51.914  54.451  0.00  0.00    +0.000 C 
ATOM     19  C   UNL     1      47.617 -52.665  53.667  0.00  0.00    +0.000 C 
ATOM     20  C   UNL     1      47.257 -54.339  56.684  0.00  0.00    +0.000 C 
ATOM     21  C   UNL     1      50.640 -55.421  52.436  0.00  0.00    +0.000 C 
ATOM     22  C   UNL     1      47.057 -52.758  52.387  0.00  0.00    +0.000 C 
ATOM     23  C   UNL     1      46.435 -55.385  57.390  0.00  0.00    +0.000 C 
ATOM     24  C   UNL     1      43.382 -55.062  56.548  0.00  0.00    +0.000 C 
ATOM     25  C   UNL     1      45.040 -52.168  52.815  0.00  0.00    +0.000 C 
ATOM     26  C   UNL     1      46.866 -56.051  58.703  0.00  0.00    +0.000 C 
ATOM     27  C   UNL     1      43.802 -52.705  52.787  0.00  0.00    +0.000 C 
ATOM     28  C   UNL     1      43.255 -53.379  51.549  0.00  0.00    +0.000 C 
ATOM     29  C   UNL     1      43.130 -53.012  54.005  0.00  0.00    +0.000 C 
ATOM     30  C   UNL     1      42.761 -53.493  55.043  0.00  0.00    +0.000 C 
ENDROOT
BRANCH  17  31
ATOM     31  O   UNL     1      52.433 -55.836  54.067  0.00  0.00    +0.000 OA
ATOM     32  H   UNL     1      52.585 -56.281  54.922  0.00  0.00    +0.000 HD
ENDBRANCH  17  31
BRANCH  17  33
ATOM     33  C   UNL     1      50.769 -57.498  53.815  0.00  0.00    +0.000 C 
BRANCH  33  34
ATOM     34  O   UNL     1      50.520 -58.806  53.848  0.00  0.00    +0.000 OA
ATOM     35  H   UNL     1      51.231 -59.287  54.311  0.00  0.00    +0.000 HD
ENDBRANCH  33  34
ENDBRANCH  17  33
BRANCH  24  36
ATOM     36  C   UNL     1      43.128 -55.686  57.659  0.00  0.00    +0.000 C 
BRANCH  36  37
ATOM     37  C   UNL     1      42.829 -56.378  58.993  0.00  0.00    +0.000 C 
ATOM     38  C   UNL     1      42.581 -56.888  60.051  0.00  0.00    +0.000 C 
BRANCH  38  39
ATOM     39  C   UNL     1      42.252 -57.515  61.409  0.00  0.00    +0.000 C 
ATOM     40  C   UNL     1      41.986 -57.996  62.476  0.00  0.00    +0.000 C 
BRANCH  40  41
ATOM     41  C   UNL     1      41.639 -58.605  63.838  0.00  0.00    +0.000 C 
ATOM     42  C   UNL     1      41.339 -59.134  65.024  0.00  0.00    +0.000 C 
ENDBRANCH  40  41
ENDBRANCH  38  39
ENDBRANCH  36  37
ENDBRANCH  24  36
BRANCH  15  43
ATOM     43  O   UNL     1      50.439 -54.782  58.367  0.00  0.00    +0.000 OA
BRANCH  43  45
ATOM     44  O   UNL     1      50.201 -56.877  59.358  0.00  0.00    +0.000 OA
ATOM     45  C   UNL     1      50.824 -56.050  58.705  0.00  0.00    +0.000 C 
BRANCH  45  46
ATOM     46  C   UNL     1      52.126 -56.361  58.200  0.00  0.00    +0.000 C 
ATOM     47  C   UNL     1      53.217 -56.622  57.782  0.00  0.00    +0.000 C 
ATOM     48  C   UNL     1      54.609 -56.948  57.236  0.00  0.00    +0.000 C 
ENDBRANCH  45  46
ENDBRANCH  43  45
ENDBRANCH  15  43
TORSDOF 10
ENDMDL
MODEL 4
REMARK VINA RESULT:      -6.9      8.859     14.304
REMARK  Name = Thapsigargin.pdbqt.pdb
REMARK  10 active torsions:
REMARK  status: ('A' for Active; 'I' for Inactive)
REMARK    1  A    between atoms: O_2  and  C_24
REMARK    2  A    between atoms: C_17  and  O_43
REMARK    3  A    between atoms: C_19  and  C_24
REMARK    4  A    between atoms: C_19  and  O_47
REMARK    5  A    between atoms: C_27  and  C_35
REMARK    6  A    between atoms: C_35  and  C_36
REMARK    7  A    between atoms: C_37  and  C_38
REMARK    8  A    between atoms: C_39  and  C_40
REMARK    9  A    between atoms: C_42  and  O_43
REMARK   10  A    between atoms: C_42  and  C_44
REMARK                            x       y       z     vdW  Elec       q    Type
REMARK                         _______ _______ _______ _____ _____    ______ ____
ROOT
ATOM      1  O   UNL     1      48.027 -47.894  50.107  0.00  0.00    +0.000 OA
ATOM      2  O   UNL     1      50.330 -43.055  47.281  0.00  0.00    +0.000 OA
ATOM      3  O   UNL     1      49.038 -44.251  45.425  0.00  0.00    +0.000 OA
ATOM      4  O   UNL     1      51.910 -47.002  46.695  0.00  0.00    +0.000 OA
ATOM      5  O   UNL     1      46.421 -48.893  51.390  0.00  0.00    +0.000 OA
ATOM      6  O   UNL     1      48.159 -43.348  46.188  0.00  0.00    +0.000 OA
ATOM      7  O   UNL     1      50.523 -44.132  43.482  0.00  0.00    +0.000 OA
ATOM      8  O   UNL     1      50.469 -49.033  46.759  0.00  0.00    +0.000 OA
ATOM      9  C   UNL     1      50.308 -44.890  49.036  0.00  0.00    +0.000 C 
ATOM     10  C   UNL     1      47.695 -45.698  50.788  0.00  0.00    +0.000 C 
ATOM     11  C   UNL     1      48.494 -46.590  50.003  0.00  0.00    +0.000 C 
ATOM     12  C   UNL     1      49.889 -43.602  49.660  0.00  0.00    +0.000 C 
ATOM     13  C   UNL     1      49.587 -46.246  49.287  0.00  0.00    +0.000 C 
ATOM     14  C   UNL     1      48.085 -44.470  50.892  0.00  0.00    +0.000 C 
ATOM     15  C   UNL     1      48.955 -43.396  50.607  0.00  0.00    +0.000 C 
ATOM     16  C   UNL     1      51.558 -45.263  48.413  0.00  0.00    +0.000 C 
ATOM     17  C   UNL     1      46.612 -46.454  51.441  0.00  0.00    +0.000 C 
ATOM     18  C   UNL     1      51.462 -46.593  47.955  0.00  0.00    +0.000 C 
ATOM     19  C   UNL     1      50.420 -47.206  48.555  0.00  0.00    +0.000 C 
ATOM     20  C   UNL     1      49.601 -43.851  48.235  0.00  0.00    +0.000 C 
ATOM     21  C   UNL     1      46.974 -47.872  50.991  0.00  0.00    +0.000 C 
ATOM     22  C   UNL     1      50.122 -48.390  47.868  0.00  0.00    +0.000 C 
ATOM     23  C   UNL     1      48.910 -42.861  47.334  0.00  0.00    +0.000 C 
ATOM     24  C   UNL     1      49.541 -43.588  44.300  0.00  0.00    +0.000 C 
ATOM     25  C   UNL     1      51.133 -48.013  46.015  0.00  0.00    +0.000 C 
ATOM     26  C   UNL     1      48.512 -41.449  47.783  0.00  0.00    +0.000 C 
ATOM     27  C   UNL     1      50.826 -47.836  44.713  0.00  0.00    +0.000 C 
ATOM     28  C   UNL     1      49.979 -48.834  43.954  0.00  0.00    +0.000 C 
ATOM     29  C   UNL     1      50.937 -46.546  44.121  0.00  0.00    +0.000 C 
ATOM     30  C   UNL     1      50.788 -45.402  43.784  0.00  0.00    +0.000 C 
ENDROOT
BRANCH  17  31
ATOM     31  O   UNL     1      46.659 -46.290  52.848  0.00  0.00    +0.000 OA
ATOM     32  H   UNL     1      45.904 -45.714  53.070  0.00  0.00    +0.000 HD
ENDBRANCH  17  31
BRANCH  17  33
ATOM     33  C   UNL     1      45.296 -46.025  50.934  0.00  0.00    +0.000 C 
BRANCH  33  34
ATOM     34  O   UNL     1      44.100 -45.632  50.499  0.00  0.00    +0.000 OA
ATOM     35  H   UNL     1      43.487 -46.388  50.424  0.00  0.00    +0.000 HD
ENDBRANCH  33  34
ENDBRANCH  17  33
BRANCH  24  36
ATOM     36  C   UNL     1      49.252 -42.343  44.061  0.00  0.00    +0.000 C 
BRANCH  36  37
ATOM     37  C   UNL     1      48.863 -40.888  43.780  0.00  0.00    +0.000 C 
ATOM     38  C   UNL     1      48.567 -39.753  43.525  0.00  0.00    +0.000 C 
BRANCH  38  39
ATOM     39  C   UNL     1      48.194 -38.310  43.173  0.00  0.00    +0.000 C 
ATOM     40  C   UNL     1      47.912 -37.179  42.886  0.00  0.00    +0.000 C 
BRANCH  40  41
ATOM     41  C   UNL     1      47.556 -35.737  42.513  0.00  0.00    +0.000 C 
ATOM     42  C   UNL     1      47.243 -34.483  42.188  0.00  0.00    +0.000 C 
ENDBRANCH  40  41
ENDBRANCH  38  39
ENDBRANCH  36  37
ENDBRANCH  24  36
BRANCH  15  43
ATOM     43  O   UNL     1      49.034 -42.289  51.459  0.00  0.00    +0.000 OA
BRANCH  43  45
ATOM     44  O   UNL     1      46.773 -41.836  51.792  0.00  0.00    +0.000 OA
ATOM     45  C   UNL     1      47.908 -41.512  51.471  0.00  0.00    +0.000 C 
BRANCH  45  46
ATOM     46  C   UNL     1      48.183 -40.177  51.034  0.00  0.00    +0.000 C 
ATOM     47  C   UNL     1      48.408 -39.061  50.664  0.00  0.00    +0.000 C 
ATOM     48  C   UNL     1      48.710 -37.634  50.200  0.00  0.00    +0.000 C 
ENDBRANCH  45  46
ENDBRANCH  43  45
ENDBRANCH  15  43
TORSDOF 10
ENDMDL
MODEL 5
REMARK VINA RESULT:      -6.8      9.682     15.326
REMARK  Name = Thapsigargin.pdbqt.pdb
REMARK  10 active torsions:
REMARK  status: ('A' for Active; 'I' for Inactive)
REMARK    1  A    between atoms: O_2  and  C_24
REMARK    2  A    between atoms: C_17  and  O_43
REMARK    3  A    between atoms: C_19  and  C_24
REMARK    4  A    between atoms: C_19  and  O_47
REMARK    5  A    between atoms: C_27  and  C_35
REMARK    6  A    between atoms: C_35  and  C_36
REMARK    7  A    between atoms: C_37  and  C_38
REMARK    8  A    between atoms: C_39  and  C_40
REMARK    9  A    between atoms: C_42  and  O_43
REMARK   10  A    between atoms: C_42  and  C_44
REMARK                            x       y       z     vdW  Elec       q    Type
REMARK                         _______ _______ _______ _____ _____    ______ ____
ROOT
ATOM      1  O   UNL     1      45.736 -46.095  50.435  0.00  0.00    +0.000 OA
ATOM      2  O   UNL     1      48.017 -43.060  45.715  0.00  0.00    +0.000 OA
ATOM      3  O   UNL     1      46.060 -41.590  46.459  0.00  0.00    +0.000 OA
ATOM      4  O   UNL     1      44.340 -45.258  45.449  0.00  0.00    +0.000 OA
ATOM      5  O   UNL     1      45.721 -46.635  52.656  0.00  0.00    +0.000 OA
ATOM      6  O   UNL     1      47.283 -41.270  47.215  0.00  0.00    +0.000 OA
ATOM      7  O   UNL     1      44.985 -40.911  44.366  0.00  0.00    +0.000 OA
ATOM      8  O   UNL     1      42.780 -45.475  47.378  0.00  0.00    +0.000 OA
ATOM      9  C   UNL     1      47.488 -45.149  47.058  0.00  0.00    +0.000 C 
ATOM     10  C   UNL     1      47.950 -45.414  50.262  0.00  0.00    +0.000 C 
ATOM     11  C   UNL     1      46.729 -45.671  49.561  0.00  0.00    +0.000 C 
ATOM     12  C   UNL     1      48.925 -44.794  47.238  0.00  0.00    +0.000 C 
ATOM     13  C   UNL     1      46.550 -45.570  48.226  0.00  0.00    +0.000 C 
ATOM     14  C   UNL     1      49.001 -45.134  49.563  0.00  0.00    +0.000 C 
ATOM     15  C   UNL     1      49.679 -44.895  48.349  0.00  0.00    +0.000 C 
ATOM     16  C   UNL     1      46.760 -45.523  45.866  0.00  0.00    +0.000 C 
ATOM     17  C   UNL     1      47.753 -45.663  51.702  0.00  0.00    +0.000 C 
ATOM     18  C   UNL     1      45.411 -45.747  46.205  0.00  0.00    +0.000 C 
ATOM     19  C   UNL     1      45.299 -45.914  47.540  0.00  0.00    +0.000 C 
ATOM     20  C   UNL     1      47.936 -43.729  46.988  0.00  0.00    +0.000 C 
ATOM     21  C   UNL     1      46.310 -46.172  51.684  0.00  0.00    +0.000 C 
ATOM     22  C   UNL     1      43.953 -45.801  47.910  0.00  0.00    +0.000 C 
ATOM     23  C   UNL     1      48.286 -42.268  46.880  0.00  0.00    +0.000 C 
ATOM     24  C   UNL     1      45.948 -40.740  45.353  0.00  0.00    +0.000 C 
ATOM     25  C   UNL     1      43.168 -44.822  46.171  0.00  0.00    +0.000 C 
ATOM     26  C   UNL     1      49.727 -41.741  46.929  0.00  0.00    +0.000 C 
ATOM     27  C   UNL     1      42.600 -43.642  45.845  0.00  0.00    +0.000 C 
ATOM     28  C   UNL     1      41.397 -43.106  46.589  0.00  0.00    +0.000 C 
ATOM     29  C   UNL     1      43.327 -42.687  45.079  0.00  0.00    +0.000 C 
ATOM     30  C   UNL     1      44.091 -41.845  44.687  0.00  0.00    +0.000 C 
ENDROOT
BRANCH  17  31
ATOM     31  O   UNL     1      48.675 -46.627  52.178  0.00  0.00    +0.000 OA
ATOM     32  H   UNL     1      49.544 -46.184  52.172  0.00  0.00    +0.000 HD
ENDBRANCH  17  31
BRANCH  17  33
ATOM     33  C   UNL     1      47.896 -44.414  52.472  0.00  0.00    +0.000 C 
BRANCH  33  34
ATOM     34  O   UNL     1      48.005 -43.277  53.158  0.00  0.00    +0.000 OA
ATOM     35  H   UNL     1      47.176 -43.070  53.629  0.00  0.00    +0.000 HD
ENDBRANCH  33  34
ENDBRANCH  17  33
BRANCH  24  36
ATOM     36  C   UNL     1      46.858 -39.851  45.086  0.00  0.00    +0.000 C 
BRANCH  36  37
ATOM     37  C   UNL     1      47.895 -38.767  44.777  0.00  0.00    +0.000 C 
ATOM     38  C   UNL     1      48.683 -37.901  44.513  0.00  0.00    +0.000 C 
BRANCH  38  39
ATOM     39  C   UNL     1      49.670 -36.783  44.162  0.00  0.00    +0.000 C 
ATOM     40  C   UNL     1      50.451 -35.916  43.880  0.00  0.00    +0.000 C 
BRANCH  40  41
ATOM     41  C   UNL     1      51.451 -34.816  43.514  0.00  0.00    +0.000 C 
ATOM     42  C   UNL     1      52.323 -33.860  43.193  0.00  0.00    +0.000 C 
ENDBRANCH  40  41
ENDBRANCH  38  39
ENDBRANCH  36  37
ENDBRANCH  24  36
BRANCH  15  43
ATOM     43  O   UNL     1      51.067 -45.047  48.259  0.00  0.00    +0.000 OA
BRANCH  43  45
ATOM     44  O   UNL     1      52.164 -46.535  49.676  0.00  0.00    +0.000 OA
ATOM     45  C   UNL     1      51.523 -46.270  48.669  0.00  0.00    +0.000 C 
BRANCH  45  46
ATOM     46  C   UNL     1      51.168 -47.303  47.744  0.00  0.00    +0.000 C 
ATOM     47  C   UNL     1      50.865 -48.167  46.973  0.00  0.00    +0.000 C 
ATOM     48  C   UNL     1      50.493 -49.275  45.985  0.00  0.00    +0.000 C 
ENDBRANCH  45  46
ENDBRANCH  43  45
ENDBRANCH  15  43
TORSDOF 10
ENDMDL
MODEL 6
REMARK VINA RESULT:      -6.7     11.160     15.127
REMARK  Name = Thapsigargin.pdbqt.pdb
REMARK  10 active torsions:
REMARK  status: ('A' for Active; 'I' for Inactive)
REMARK    1  A    between atoms: O_2  and  C_24
REMARK    2  A    between atoms: C_17  and  O_43
REMARK    3  A    between atoms: C_19  and  C_24
REMARK    4  A    between atoms: C_19  and  O_47
REMARK    5  A    between atoms: C_27  and  C_35
REMARK    6  A    between atoms: C_35  and  C_36
REMARK    7  A    between atoms: C_37  and  C_38
REMARK    8  A    between atoms: C_39  and  C_40
REMARK    9  A    between atoms: C_42  and  O_43
REMARK   10  A    between atoms: C_42  and  C_44
REMARK                            x       y       z     vdW  Elec       q    Type
REMARK                         _______ _______ _______ _____ _____    ______ ____
ROOT
ATOM      1  O   UNL     1      61.595 -50.325  64.768  0.00  0.00    +0.000 OA
ATOM      2  O   UNL     1      57.072 -51.550  60.928  0.00  0.00    +0.000 OA
ATOM      3  O   UNL     1      59.146 -51.657  59.435  0.00  0.00    +0.000 OA
ATOM      4  O   UNL     1      59.090 -47.762  60.938  0.00  0.00    +0.000 OA
ATOM      5  O   UNL     1      63.122 -50.971  66.341  0.00  0.00    +0.000 OA
ATOM      6  O   UNL     1      58.896 -52.952  60.092  0.00  0.00    +0.000 OA
ATOM      7  O   UNL     1      58.474 -50.498  57.385  0.00  0.00    +0.000 OA
ATOM      8  O   UNL     1      61.509 -47.547  61.490  0.00  0.00    +0.000 OA
ATOM      9  C   UNL     1      58.107 -50.475  62.983  0.00  0.00    +0.000 C 
ATOM     10  C   UNL     1      60.052 -52.036  65.065  0.00  0.00    +0.000 C 
ATOM     11  C   UNL     1      60.348 -50.808  64.390  0.00  0.00    +0.000 C 
ATOM     12  C   UNL     1      57.303 -51.662  63.395  0.00  0.00    +0.000 C 
ATOM     13  C   UNL     1      59.527 -50.160  63.535  0.00  0.00    +0.000 C 
ATOM     14  C   UNL     1      58.871 -52.540  64.911  0.00  0.00    +0.000 C 
ATOM     15  C   UNL     1      57.571 -52.557  64.364  0.00  0.00    +0.000 C 
ATOM     16  C   UNL     1      57.698 -49.249  62.336  0.00  0.00    +0.000 C 
ATOM     17  C   UNL     1      61.184 -52.407  65.932  0.00  0.00    +0.000 C 
ATOM     18  C   UNL     1      58.833 -48.437  62.136  0.00  0.00    +0.000 C 
ATOM     19  C   UNL     1      59.843 -48.865  62.923  0.00  0.00    +0.000 C 
ATOM     20  C   UNL     1      57.947 -51.641  62.069  0.00  0.00    +0.000 C 
ATOM     21  C   UNL     1      62.087 -51.189  65.719  0.00  0.00    +0.000 C 
ATOM     22  C   UNL     1      61.043 -48.289  62.489  0.00  0.00    +0.000 C 
ATOM     23  C   UNL     1      57.832 -52.758  61.065  0.00  0.00    +0.000 C 
ATOM     24  C   UNL     1      58.547 -51.642  58.170  0.00  0.00    +0.000 C 
ATOM     25  C   UNL     1      60.469 -47.662  60.520  0.00  0.00    +0.000 C 
ATOM     26  C   UNL     1      56.956 -53.999  61.281  0.00  0.00    +0.000 C 
ATOM     27  C   UNL     1      60.786 -47.938  59.238  0.00  0.00    +0.000 C 
ATOM     28  C   UNL     1      62.216 -47.895  58.746  0.00  0.00    +0.000 C 
ATOM     29  C   UNL     1      59.872 -48.656  58.415  0.00  0.00    +0.000 C 
ATOM     30  C   UNL     1      59.186 -49.492  57.889  0.00  0.00    +0.000 C 
ENDROOT
BRANCH  17  31
ATOM     31  O   UNL     1      60.762 -52.554  67.277  0.00  0.00    +0.000 OA
ATOM     32  H   UNL     1      59.943 -53.082  67.238  0.00  0.00    +0.000 HD
ENDBRANCH  17  31
BRANCH  17  33
ATOM     33  C   UNL     1      61.811 -53.657  65.468  0.00  0.00    +0.000 C 
BRANCH  33  34
ATOM     34  O   UNL     1      62.376 -54.796  65.071  0.00  0.00    +0.000 OA
ATOM     35  H   UNL     1      61.717 -55.394  64.670  0.00  0.00    +0.000 HD
ENDBRANCH  33  34
ENDBRANCH  17  33
BRANCH  24  36
ATOM     36  C   UNL     1      57.857 -52.653  57.735  0.00  0.00    +0.000 C 
BRANCH  36  37
ATOM     37  C   UNL     1      57.004 -53.829  57.248  0.00  0.00    +0.000 C 
ATOM     38  C   UNL     1      56.305 -54.730  56.871  0.00  0.00    +0.000 C 
BRANCH  38  39
ATOM     39  C   UNL     1      55.392 -55.862  56.392  0.00  0.00    +0.000 C 
ATOM     40  C   UNL     1      54.666 -56.746  56.026  0.00  0.00    +0.000 C 
BRANCH  40  41
ATOM     41  C   UNL     1      53.734 -57.869  55.563  0.00  0.00    +0.000 C 
ATOM     42  C   UNL     1      52.923 -58.846  55.158  0.00  0.00    +0.000 C 
ENDBRANCH  40  41
ENDBRANCH  38  39
ENDBRANCH  36  37
ENDBRANCH  24  36
BRANCH  15  43
ATOM     43  O   UNL     1      56.537 -53.261  64.992  0.00  0.00    +0.000 OA
BRANCH  43  45
ATOM     44  O   UNL     1      57.288 -54.537  66.790  0.00  0.00    +0.000 OA
ATOM     45  C   UNL     1      56.942 -54.404  65.625  0.00  0.00    +0.000 C 
BRANCH  45  46
ATOM     46  C   UNL     1      56.936 -55.528  64.739  0.00  0.00    +0.000 C 
ATOM     47  C   UNL     1      56.929 -56.473  64.004  0.00  0.00    +0.000 C 
ATOM     48  C   UNL     1      56.928 -57.672  63.053  0.00  0.00    +0.000 C 
ENDBRANCH  45  46
ENDBRANCH  43  45
ENDBRANCH  15  43
TORSDOF 10
ENDMDL
MODEL 7
REMARK VINA RESULT:      -6.6      2.828      4.150
REMARK  Name = Thapsigargin.pdbqt.pdb
REMARK  10 active torsions:
REMARK  status: ('A' for Active; 'I' for Inactive)
REMARK    1  A    between atoms: O_2  and  C_24
REMARK    2  A    between atoms: C_17  and  O_43
REMARK    3  A    between atoms: C_19  and  C_24
REMARK    4  A    between atoms: C_19  and  O_47
REMARK    5  A    between atoms: C_27  and  C_35
REMARK    6  A    between atoms: C_35  and  C_36
REMARK    7  A    between atoms: C_37  and  C_38
REMARK    8  A    between atoms: C_39  and  C_40
REMARK    9  A    between atoms: C_42  and  O_43
REMARK   10  A    between atoms: C_42  and  C_44
REMARK                            x       y       z     vdW  Elec       q    Type
REMARK                         _______ _______ _______ _____ _____    ______ ____
ROOT
ATOM      1  O   UNL     1      44.375 -55.101  53.661  0.00  0.00    +0.000 OA
ATOM      2  O   UNL     1      49.735 -53.766  56.150  0.00  0.00    +0.000 OA
ATOM      3  O   UNL     1      49.397 -56.222  56.782  0.00  0.00    +0.000 OA
ATOM      4  O   UNL     1      46.174 -54.204  58.506  0.00  0.00    +0.000 OA
ATOM      5  O   UNL     1      43.093 -55.744  51.882  0.00  0.00    +0.000 OA
ATOM      6  O   UNL     1      50.018 -56.095  55.452  0.00  0.00    +0.000 OA
ATOM      7  O   UNL     1      50.112 -56.347  59.120  0.00  0.00    +0.000 OA
ATOM      8  O   UNL     1      44.369 -55.809  57.900  0.00  0.00    +0.000 OA
ATOM      9  C   UNL     1      47.391 -53.233  55.330  0.00  0.00    +0.000 C 
ATOM     10  C   UNL     1      46.187 -54.243  52.487  0.00  0.00    +0.000 C 
ATOM     11  C   UNL     1      45.590 -54.437  53.775  0.00  0.00    +0.000 C 
ATOM     12  C   UNL     1      48.388 -52.749  54.332  0.00  0.00    +0.000 C 
ATOM     13  C   UNL     1      46.092 -54.002  54.950  0.00  0.00    +0.000 C 
ATOM     14  C   UNL     1      47.260 -53.526  52.421  0.00  0.00    +0.000 C 
ATOM     15  C   UNL     1      48.299 -52.758  52.989  0.00  0.00    +0.000 C 
ATOM     16  C   UNL     1      47.183 -52.845  56.707  0.00  0.00    +0.000 C 
ATOM     17  C   UNL     1      45.323 -54.836  51.450  0.00  0.00    +0.000 C 
ATOM     18  C   UNL     1      46.124 -53.606  57.242  0.00  0.00    +0.000 C 
ATOM     19  C   UNL     1      45.410 -54.159  56.239  0.00  0.00    +0.000 C 
ATOM     20  C   UNL     1      48.698 -53.928  55.162  0.00  0.00    +0.000 C 
ATOM     21  C   UNL     1      44.147 -55.291  52.318  0.00  0.00    +0.000 C 
ATOM     22  C   UNL     1      44.585 -55.164  56.759  0.00  0.00    +0.000 C 
ATOM     23  C   UNL     1      49.996 -54.689  55.083  0.00  0.00    +0.000 C 
ATOM     24  C   UNL     1      50.388 -56.369  57.758  0.00  0.00    +0.000 C 
ATOM     25  C   UNL     1      45.541 -55.494  58.650  0.00  0.00    +0.000 C 
ATOM     26  C   UNL     1      51.171 -54.262  54.194  0.00  0.00    +0.000 C 
ATOM     27  C   UNL     1      46.203 -56.480  59.290  0.00  0.00    +0.000 C 
ATOM     28  C   UNL     1      45.616 -57.866  59.438  0.00  0.00    +0.000 C 
ATOM     29  C   UNL     1      47.609 -56.381  59.493  0.00  0.00    +0.000 C 
ATOM     30  C   UNL     1      48.805 -56.353  59.373  0.00  0.00    +0.000 C 
ENDROOT
BRANCH  17  31
ATOM     31  O   UNL     1      44.957 -53.867  50.484  0.00  0.00    +0.000 OA
ATOM     32  H   UNL     1      45.580 -53.987  49.743  0.00  0.00    +0.000 HD
ENDBRANCH  17  31
BRANCH  17  33
ATOM     33  C   UNL     1      46.001 -55.966  50.790  0.00  0.00    +0.000 C 
BRANCH  33  34
ATOM     34  O   UNL     1      46.628 -56.990  50.212  0.00  0.00    +0.000 OA
ATOM     35  H   UNL     1      46.796 -56.811  49.268  0.00  0.00    +0.000 HD
ENDBRANCH  33  34
ENDBRANCH  17  33
BRANCH  24  36
ATOM     36  C   UNL     1      51.650 -56.348  57.452  0.00  0.00    +0.000 C 
BRANCH  36  37
ATOM     37  C   UNL     1      53.150 -56.339  57.138  0.00  0.00    +0.000 C 
ATOM     38  C   UNL     1      54.331 -56.318  56.925  0.00  0.00    +0.000 C 
BRANCH  38  39
ATOM     39  C   UNL     1      55.843 -56.284  56.679  0.00  0.00    +0.000 C 
ATOM     40  C   UNL     1      57.030 -56.265  56.499  0.00  0.00    +0.000 C 
BRANCH  40  41
ATOM     41  C   UNL     1      58.544 -56.247  56.275  0.00  0.00    +0.000 C 
ATOM     42  C   UNL     1      59.862 -56.229  56.080  0.00  0.00    +0.000 C 
ENDBRANCH  40  41
ENDBRANCH  38  39
ENDBRANCH  36  37
ENDBRANCH  24  36
BRANCH  15  43
ATOM     43  O   UNL     1      49.008 -51.829  52.219  0.00  0.00    +0.000 OA
BRANCH  43  45
ATOM     44  O   UNL     1      47.145 -50.436  52.117  0.00  0.00    +0.000 OA
ATOM     45  C   UNL     1      48.344 -50.651  52.012  0.00  0.00    +0.000 C 
BRANCH  45  46
ATOM     46  C   UNL     1      49.236 -49.603  51.623  0.00  0.00    +0.000 C 
ATOM     47  C   UNL     1      49.978 -48.721  51.298  0.00  0.00    +0.000 C 
ATOM     48  C   UNL     1      50.936 -47.605  50.877  0.00  0.00    +0.000 C 
ENDBRANCH  45  46
ENDBRANCH  43  45
ENDBRANCH  15  43
TORSDOF 10
ENDMDL
MODEL 8
REMARK VINA RESULT:      -6.4      7.246     12.375
REMARK  Name = Thapsigargin.pdbqt.pdb
REMARK  10 active torsions:
REMARK  status: ('A' for Active; 'I' for Inactive)
REMARK    1  A    between atoms: O_2  and  C_24
REMARK    2  A    between atoms: C_17  and  O_43
REMARK    3  A    between atoms: C_19  and  C_24
REMARK    4  A    between atoms: C_19  and  O_47
REMARK    5  A    between atoms: C_27  and  C_35
REMARK    6  A    between atoms: C_35  and  C_36
REMARK    7  A    between atoms: C_37  and  C_38
REMARK    8  A    between atoms: C_39  and  C_40
REMARK    9  A    between atoms: C_42  and  O_43
REMARK   10  A    between atoms: C_42  and  C_44
REMARK                            x       y       z     vdW  Elec       q    Type
REMARK                         _______ _______ _______ _____ _____    ______ ____
ROOT
ATOM      1  O   UNL     1      41.983 -44.354  46.798  0.00  0.00    +0.000 OA
ATOM      2  O   UNL     1      45.554 -48.642  49.156  0.00  0.00    +0.000 OA
ATOM      3  O   UNL     1      45.934 -46.649  50.713  0.00  0.00    +0.000 OA
ATOM      4  O   UNL     1      47.135 -45.322  46.941  0.00  0.00    +0.000 OA
ATOM      5  O   UNL     1      39.947 -43.341  46.568  0.00  0.00    +0.000 OA
ATOM      6  O   UNL     1      44.763 -47.437  51.134  0.00  0.00    +0.000 OA
ATOM      7  O   UNL     1      48.352 -46.635  51.098  0.00  0.00    +0.000 OA
ATOM      8  O   UNL     1      46.078 -43.068  46.991  0.00  0.00    +0.000 OA
ATOM      9  C   UNL     1      44.334 -47.455  47.271  0.00  0.00    +0.000 C 
ATOM     10  C   UNL     1      41.247 -46.459  47.449  0.00  0.00    +0.000 C 
ATOM     11  C   UNL     1      42.377 -45.652  47.098  0.00  0.00    +0.000 C 
ATOM     12  C   UNL     1      43.586 -48.689  47.647  0.00  0.00    +0.000 C 
ATOM     13  C   UNL     1      43.655 -46.079  47.014  0.00  0.00    +0.000 C 
ATOM     14  C   UNL     1      41.442 -47.724  47.630  0.00  0.00    +0.000 C 
ATOM     15  C   UNL     1      42.253 -48.876  47.700  0.00  0.00    +0.000 C 
ATOM     16  C   UNL     1      45.668 -47.299  46.737  0.00  0.00    +0.000 C 
ATOM     17  C   UNL     1      40.023 -45.640  47.400  0.00  0.00    +0.000 C 
ATOM     18  C   UNL     1      45.932 -45.925  46.561  0.00  0.00    +0.000 C 
ATOM     19  C   UNL     1      44.772 -45.234  46.579  0.00  0.00    +0.000 C 
ATOM     20  C   UNL     1      44.375 -47.974  48.667  0.00  0.00    +0.000 C 
ATOM     21  C   UNL     1      40.611 -44.321  46.893  0.00  0.00    +0.000 C 
ATOM     22  C   UNL     1      45.050 -43.870  46.742  0.00  0.00    +0.000 C 
ATOM     23  C   UNL     1      44.497 -48.424  50.100  0.00  0.00    +0.000 C 
ATOM     24  C   UNL     1      47.072 -47.081  51.403  0.00  0.00    +0.000 C 
ATOM     25  C   UNL     1      47.063 -43.981  47.472  0.00  0.00    +0.000 C 
ATOM     26  C   UNL     1      43.885 -49.728  50.629  0.00  0.00    +0.000 C 
ATOM     27  C   UNL     1      47.748 -43.684  48.596  0.00  0.00    +0.000 C 
ATOM     28  C   UNL     1      47.681 -42.313  49.229  0.00  0.00    +0.000 C 
ATOM     29  C   UNL     1      48.228 -44.729  49.437  0.00  0.00    +0.000 C 
ATOM     30  C   UNL     1      48.344 -45.636  50.217  0.00  0.00    +0.000 C 
ENDROOT
BRANCH  17  31
ATOM     31  O   UNL     1      39.074 -46.203  46.511  0.00  0.00    +0.000 OA
ATOM     32  H   UNL     1      39.471 -47.037  46.199  0.00  0.00    +0.000 HD
ENDBRANCH  17  31
BRANCH  17  33
ATOM     33  C   UNL     1      39.429 -45.508  48.743  0.00  0.00    +0.000 C 
BRANCH  33  34
ATOM     34  O   UNL     1      38.907 -45.407  49.964  0.00  0.00    +0.000 OA
ATOM     35  H   UNL     1      37.932 -45.436  49.933  0.00  0.00    +0.000 HD
ENDBRANCH  33  34
ENDBRANCH  17  33
BRANCH  24  36
ATOM     36  C   UNL     1      47.019 -48.068  52.247  0.00  0.00    +0.000 C 
BRANCH  36  37
ATOM     37  C   UNL     1      46.933 -49.259  53.207  0.00  0.00    +0.000 C 
ATOM     38  C   UNL     1      46.902 -50.189  53.965  0.00  0.00    +0.000 C 
BRANCH  38  39
ATOM     39  C   UNL     1      46.888 -51.372  54.939  0.00  0.00    +0.000 C 
ATOM     40  C   UNL     1      46.871 -52.290  55.712  0.00  0.00    +0.000 C 
BRANCH  40  41
ATOM     41  C   UNL     1      46.845 -53.456  56.704  0.00  0.00    +0.000 C 
ATOM     42  C   UNL     1      46.820 -54.472  57.566  0.00  0.00    +0.000 C 
ENDBRANCH  40  41
ENDBRANCH  38  39
ENDBRANCH  36  37
ENDBRANCH  24  36
BRANCH  15  43
ATOM     43  O   UNL     1      41.704 -50.153  47.537  0.00  0.00    +0.000 OA
BRANCH  43  45
ATOM     44  O   UNL     1      39.433 -50.602  47.282  0.00  0.00    +0.000 OA
ATOM     45  C   UNL     1      40.402 -50.257  47.944  0.00  0.00    +0.000 C 
BRANCH  45  46
ATOM     46  C   UNL     1      40.247 -49.893  49.319  0.00  0.00    +0.000 C 
ATOM     47  C   UNL     1      40.121 -49.584  50.468  0.00  0.00    +0.000 C 
ATOM     48  C   UNL     1      39.955 -49.202  51.941  0.00  0.00    +0.000 C 
ENDBRANCH  45  46
ENDBRANCH  43  45
ENDBRANCH  15  43
TORSDOF 10
ENDMDL
MODEL 9
REMARK VINA RESULT:      -6.3      3.187      7.511
REMARK  Name = Thapsigargin.pdbqt.pdb
REMARK  10 active torsions:
REMARK  status: ('A' for Active; 'I' for Inactive)
REMARK    1  A    between atoms: O_2  and  C_24
REMARK    2  A    between atoms: C_17  and  O_43
REMARK    3  A    between atoms: C_19  and  C_24
REMARK    4  A    between atoms: C_19  and  O_47
REMARK    5  A    between atoms: C_27  and  C_35
REMARK    6  A    between atoms: C_35  and  C_36
REMARK    7  A    between atoms: C_37  and  C_38
REMARK    8  A    between atoms: C_39  and  C_40
REMARK    9  A    between atoms: C_42  and  O_43
REMARK   10  A    between atoms: C_42  and  C_44
REMARK                            x       y       z     vdW  Elec       q    Type
REMARK                         _______ _______ _______ _____ _____    ______ ____
ROOT
ATOM      1  O   UNL     1      48.251 -58.348  57.723  0.00  0.00    +0.000 OA
ATOM      2  O   UNL     1      45.748 -53.140  55.904  0.00  0.00    +0.000 OA
ATOM      3  O   UNL     1      46.742 -54.090  53.748  0.00  0.00    +0.000 OA
ATOM      4  O   UNL     1      49.995 -53.605  56.320  0.00  0.00    +0.000 OA
ATOM      5  O   UNL     1      48.112 -60.573  58.228  0.00  0.00    +0.000 OA
ATOM      6  O   UNL     1      45.389 -54.620  53.989  0.00  0.00    +0.000 OA
ATOM      7  O   UNL     1      47.770 -52.156  52.654  0.00  0.00    +0.000 OA
ATOM      8  O   UNL     1      51.145 -55.767  55.870  0.00  0.00    +0.000 OA
ATOM      9  C   UNL     1      46.871 -54.682  57.581  0.00  0.00    +0.000 C 
ATOM     10  C   UNL     1      46.022 -57.782  58.051  0.00  0.00    +0.000 C 
ATOM     11  C   UNL     1      47.339 -57.302  57.755  0.00  0.00    +0.000 C 
ATOM     12  C   UNL     1      45.411 -54.608  57.876  0.00  0.00    +0.000 C 
ATOM     13  C   UNL     1      47.684 -56.008  57.573  0.00  0.00    +0.000 C 
ATOM     14  C   UNL     1      45.089 -56.908  58.239  0.00  0.00    +0.000 C 
ATOM     15  C   UNL     1      44.592 -55.588  58.300  0.00  0.00    +0.000 C 
ATOM     16  C   UNL     1      47.880 -53.647  57.597  0.00  0.00    +0.000 C 
ATOM     17  C   UNL     1      46.057 -59.247  58.206  0.00  0.00    +0.000 C 
ATOM     18  C   UNL     1      49.118 -54.210  57.226  0.00  0.00    +0.000 C 
ATOM     19  C   UNL     1      49.060 -55.554  57.344  0.00  0.00    +0.000 C 
ATOM     20  C   UNL     1      45.885 -54.450  56.488  0.00  0.00    +0.000 C 
ATOM     21  C   UNL     1      47.560 -59.492  58.050  0.00  0.00    +0.000 C 
ATOM     22  C   UNL     1      50.147 -56.125  56.670  0.00  0.00    +0.000 C 
ATOM     23  C   UNL     1      44.974 -54.195  55.316  0.00  0.00    +0.000 C 
ATOM     24  C   UNL     1      46.672 -52.964  52.920  0.00  0.00    +0.000 C 
ATOM     25  C   UNL     1      50.730 -54.474  55.432  0.00  0.00    +0.000 C 
ATOM     26  C   UNL     1      43.461 -53.980  55.454  0.00  0.00    +0.000 C 
ATOM     27  C   UNL     1      50.794 -54.168  54.119  0.00  0.00    +0.000 C 
ATOM     28  C   UNL     1      51.510 -55.058  53.129  0.00  0.00    +0.000 C 
ATOM     29  C   UNL     1      49.874 -53.236  53.558  0.00  0.00    +0.000 C 
ATOM     30  C   UNL     1      48.906 -52.675  53.119  0.00  0.00    +0.000 C 
ENDROOT
BRANCH  17  31
ATOM     31  O   UNL     1      45.561 -59.631  59.477  0.00  0.00    +0.000 OA
ATOM     32  H   UNL     1      45.193 -60.526  59.354  0.00  0.00    +0.000 HD
ENDBRANCH  17  31
BRANCH  17  33
ATOM     33  C   UNL     1      45.270 -59.903  57.146  0.00  0.00    +0.000 C 
BRANCH  33  34
ATOM     34  O   UNL     1      44.547 -60.475  56.185  0.00  0.00    +0.000 OA
ATOM     35  H   UNL     1      43.843 -61.036  56.561  0.00  0.00    +0.000 HD
ENDBRANCH  33  34
ENDBRANCH  17  33
BRANCH  24  36
ATOM     36  C   UNL     1      45.533 -52.500  52.502  0.00  0.00    +0.000 C 
BRANCH  36  37
ATOM     37  C   UNL     1      44.203 -51.906  52.027  0.00  0.00    +0.000 C 
ATOM     38  C   UNL     1      43.174 -51.439  51.621  0.00  0.00    +0.000 C 
BRANCH  38  39
ATOM     39  C   UNL     1      41.871 -50.844  51.077  0.00  0.00    +0.000 C 
ATOM     40  C   UNL     1      40.858 -50.365  50.647  0.00  0.00    +0.000 C 
BRANCH  40  41
ATOM     41  C   UNL     1      39.569 -49.749  50.094  0.00  0.00    +0.000 C 
ATOM     42  C   UNL     1      38.449 -49.211  49.614  0.00  0.00    +0.000 C 
ENDBRANCH  40  41
ENDBRANCH  38  39
ENDBRANCH  36  37
ENDBRANCH  24  36
BRANCH  15  43
ATOM     43  O   UNL     1      43.436 -55.289  59.029  0.00  0.00    +0.000 OA
BRANCH  43  45
ATOM     44  O   UNL     1      42.296 -56.965  60.176  0.00  0.00    +0.000 OA
ATOM     45  C   UNL     1      42.571 -56.340  59.162  0.00  0.00    +0.000 C 
BRANCH  45  46
ATOM     46  C   UNL     1      41.965 -56.686  57.913  0.00  0.00    +0.000 C 
ATOM     47  C   UNL     1      41.463 -56.979  56.866  0.00  0.00    +0.000 C 
ATOM     48  C   UNL     1      40.811 -57.342  55.530  0.00  0.00    +0.000 C 
ENDBRANCH  45  46
ENDBRANCH  43  45
ENDBRANCH  15  43
TORSDOF 10
ENDMDL
