MODEL 1
REMARK VINA RESULT:      -6.2      0.000      0.000
REMARK  Name = Thioguanosine.pdbqt.pdb
REMARK  5 active torsions:
REMARK  status: ('A' for Active; 'I' for Inactive)
REMARK    1  A    between atoms: N_2  and  C1*_12
REMARK    2  A    between atoms: C4*_14  and  C5*_17
REMARK    3  A    between atoms: C3*_15  and  O3*_20
REMARK    4  A    between atoms: C2*_16  and  O2*_22
REMARK    5  A    between atoms: C5*_17  and  O5*_18
REMARK                            x       y       z     vdW  Elec       q    Type
REMARK                         _______ _______ _______ _____ _____    ______ ____
ROOT
ATOM      1  S   UNL     1      49.507 -47.776  49.221  0.00  0.00    +0.000 S 
ATOM      2  N   UNL     1      49.074 -42.910  49.572  0.00  0.00    +0.000 N 
ATOM      3  N   UNL     1      48.187 -44.172  51.490  0.00  0.00    +0.000 N 
ATOM      4  N   UNL     1      49.795 -44.708  48.401  0.00  0.00    +0.000 NA
ATOM      5  N   UNL     1      48.333 -46.541  51.351  0.00  0.00    +0.000 NA
ATOM      6  C   UNL     1      48.784 -44.041  50.292  0.00  0.00    +0.000 A 
ATOM      7  C   UNL     1      49.709 -43.393  48.439  0.00  0.00    +0.000 A 
ATOM      8  C   UNL     1      49.205 -45.127  49.568  0.00  0.00    +0.000 A 
ATOM      9  C   UNL     1      48.977 -46.467  50.114  0.00  0.00    +0.000 A 
ATOM     10  C   UNL     1      47.988 -45.442  51.957  0.00  0.00    +0.000 A 
ATOM     11  H   UNL     1      47.835 -43.378  52.021  0.00  0.00    +0.000 HD
ATOM     12  N   UNL     1      47.368 -45.487  53.161  0.00  0.00    +0.000 N 
ATOM     13  H   UNL     1      47.751 -44.856  53.852  0.00  0.00    +0.000 HD
ATOM     14  H   UNL     1      47.352 -46.440  53.517  0.00  0.00    +0.000 HD
ENDROOT
BRANCH   2  15
ATOM     15  C1* UNL     1      48.811 -41.579  49.835  0.00  0.00    +0.000 A 
ATOM     16  O4* UNL     1      49.197 -40.550  48.943  0.00  0.00    +0.000 OA
ATOM     17  C4* UNL     1      48.813 -39.308  49.474  0.00  0.00    +0.000 A 
ATOM     18  C3* UNL     1      48.160 -39.541  50.731  0.00  0.00    +0.000 A 
ATOM     19  C2* UNL     1      48.148 -40.954  50.952  0.00  0.00    +0.000 A 
BRANCH  18  20
ATOM     20  O3* UNL     1      48.227 -38.676  51.789  0.00  0.00    +0.000 OA
ATOM     21  H3* UNL     1      47.411 -38.148  51.873  0.00  0.00    +0.000 HD
ENDBRANCH  18  20
BRANCH  19  22
ATOM     22  O2* UNL     1      48.185 -41.463  52.222  0.00  0.00    +0.000 OA
ATOM     23  H2* UNL     1      49.114 -41.503  52.527  0.00  0.00    +0.000 HD
ENDBRANCH  19  22
BRANCH  17  24
ATOM     24  C5* UNL     1      49.270 -38.083  48.954  0.00  0.00    +0.000 C 
BRANCH  24  25
ATOM     25  O5* UNL     1      49.688 -36.929  48.444  0.00  0.00    +0.000 OA
ATOM     26  H5* UNL     1      50.448 -37.072  47.853  0.00  0.00    +0.000 HD
ENDBRANCH  24  25
ENDBRANCH  17  24
ENDBRANCH   2  15
TORSDOF 5
ENDMDL
MODEL 2
REMARK VINA RESULT:      -6.1     18.455     20.428
REMARK  Name = Thioguanosine.pdbqt.pdb
REMARK  5 active torsions:
REMARK  status: ('A' for Active; 'I' for Inactive)
REMARK    1  A    between atoms: N_2  and  C1*_12
REMARK    2  A    between atoms: C4*_14  and  C5*_17
REMARK    3  A    between atoms: C3*_15  and  O3*_20
REMARK    4  A    between atoms: C2*_16  and  O2*_22
REMARK    5  A    between atoms: C5*_17  and  O5*_18
REMARK                            x       y       z     vdW  Elec       q    Type
REMARK                         _______ _______ _______ _____ _____    ______ ____
ROOT
ATOM      1  S   UNL     1      35.316 -22.779  56.395  0.00  0.00    +0.000 S 
ATOM      2  N   UNL     1      37.998 -26.727  55.292  0.00  0.00    +0.000 N 
ATOM      3  N   UNL     1      38.461 -25.742  57.500  0.00  0.00    +0.000 N 
ATOM      4  N   UNL     1      36.370 -25.268  54.703  0.00  0.00    +0.000 NA
ATOM      5  N   UNL     1      37.217 -23.797  58.067  0.00  0.00    +0.000 NA
ATOM      6  C   UNL     1      37.830 -25.828  56.315  0.00  0.00    +0.000 A 
ATOM      7  C   UNL     1      37.059 -26.335  54.350  0.00  0.00    +0.000 A 
ATOM      8  C   UNL     1      36.857 -24.936  55.943  0.00  0.00    +0.000 A 
ATOM      9  C   UNL     1      36.513 -23.849  56.862  0.00  0.00    +0.000 A 
ATOM     10  C   UNL     1      38.113 -24.706  58.322  0.00  0.00    +0.000 A 
ATOM     11  H   UNL     1      39.211 -26.373  57.772  0.00  0.00    +0.000 HD
ATOM     12  N   UNL     1      38.805 -24.681  59.486  0.00  0.00    +0.000 N 
ATOM     13  H   UNL     1      38.859 -25.574  59.958  0.00  0.00    +0.000 HD
ATOM     14  H   UNL     1      38.428 -23.970  60.109  0.00  0.00    +0.000 HD
ENDROOT
BRANCH   2  15
ATOM     15  C1* UNL     1      38.882 -27.779  55.149  0.00  0.00    +0.000 A 
ATOM     16  O4* UNL     1      39.979 -27.719  54.257  0.00  0.00    +0.000 OA
ATOM     17  C4* UNL     1      40.689 -28.930  54.313  0.00  0.00    +0.000 A 
ATOM     18  C3* UNL     1      40.040 -29.785  55.265  0.00  0.00    +0.000 A 
ATOM     19  C2* UNL     1      38.922 -29.068  55.795  0.00  0.00    +0.000 A 
BRANCH  18  20
ATOM     20  O3* UNL     1      39.995 -31.148  55.149  0.00  0.00    +0.000 OA
ATOM     21  H3* UNL     1      40.391 -31.450  54.311  0.00  0.00    +0.000 HD
ENDBRANCH  18  20
BRANCH  19  22
ATOM     22  O2* UNL     1      37.799 -29.731  56.208  0.00  0.00    +0.000 OA
ATOM     23  H2* UNL     1      38.017 -30.672  56.363  0.00  0.00    +0.000 HD
ENDBRANCH  19  22
BRANCH  17  24
ATOM     24  C5* UNL     1      41.677 -29.278  53.374  0.00  0.00    +0.000 C 
BRANCH  24  25
ATOM     25  O5* UNL     1      42.596 -29.601  52.470  0.00  0.00    +0.000 OA
ATOM     26  H5* UNL     1      43.064 -28.806  52.159  0.00  0.00    +0.000 HD
ENDBRANCH  24  25
ENDBRANCH  17  24
ENDBRANCH   2  15
TORSDOF 5
ENDMDL
MODEL 3
REMARK VINA RESULT:      -5.9     19.153     21.170
REMARK  Name = Thioguanosine.pdbqt.pdb
REMARK  5 active torsions:
REMARK  status: ('A' for Active; 'I' for Inactive)
REMARK    1  A    between atoms: N_2  and  C1*_12
REMARK    2  A    between atoms: C4*_14  and  C5*_17
REMARK    3  A    between atoms: C3*_15  and  O3*_20
REMARK    4  A    between atoms: C2*_16  and  O2*_22
REMARK    5  A    between atoms: C5*_17  and  O5*_18
REMARK                            x       y       z     vdW  Elec       q    Type
REMARK                         _______ _______ _______ _____ _____    ______ ____
ROOT
ATOM      1  S   UNL     1      36.992 -21.046  56.589  0.00  0.00    +0.000 S 
ATOM      2  N   UNL     1      38.311 -25.589  55.319  0.00  0.00    +0.000 N 
ATOM      3  N   UNL     1      38.471 -25.097  57.725  0.00  0.00    +0.000 N 
ATOM      4  N   UNL     1      37.523 -23.559  54.699  0.00  0.00    +0.000 NA
ATOM      5  N   UNL     1      37.884 -22.890  58.390  0.00  0.00    +0.000 NA
ATOM      6  C   UNL     1      38.197 -24.807  56.440  0.00  0.00    +0.000 A 
ATOM      7  C   UNL     1      37.863 -24.768  54.296  0.00  0.00    +0.000 A 
ATOM      8  C   UNL     1      37.739 -23.573  56.055  0.00  0.00    +0.000 A 
ATOM      9  C   UNL     1      37.563 -22.539  57.077  0.00  0.00    +0.000 A 
ATOM     10  C   UNL     1      38.299 -24.097  58.644  0.00  0.00    +0.000 A 
ATOM     11  H   UNL     1      38.848 -25.994  58.020  0.00  0.00    +0.000 HD
ATOM     12  N   UNL     1      38.611 -24.465  59.910  0.00  0.00    +0.000 N 
ATOM     13  H   UNL     1      38.218 -25.352  60.196  0.00  0.00    +0.000 HD
ATOM     14  H   UNL     1      38.354 -23.732  60.567  0.00  0.00    +0.000 HD
ENDROOT
BRANCH   2  15
ATOM     15  C1* UNL     1      38.772 -26.882  55.161  0.00  0.00    +0.000 A 
ATOM     16  O4* UNL     1      39.228 -27.366  53.912  0.00  0.00    +0.000 OA
ATOM     17  C4* UNL     1      39.620 -28.708  54.049  0.00  0.00    +0.000 A 
ATOM     18  C3* UNL     1      39.419 -29.095  55.417  0.00  0.00    +0.000 A 
ATOM     19  C2* UNL     1      38.902 -27.957  56.113  0.00  0.00    +0.000 A 
BRANCH  18  20
ATOM     20  O3* UNL     1      39.064 -30.360  55.801  0.00  0.00    +0.000 OA
ATOM     21  H3* UNL     1      38.399 -30.345  56.513  0.00  0.00    +0.000 HD
ENDBRANCH  18  20
BRANCH  19  22
ATOM     22  O2* UNL     1      38.061 -28.114  57.181  0.00  0.00    +0.000 OA
ATOM     23  H2* UNL     1      38.433 -28.783  57.791  0.00  0.00    +0.000 HD
ENDBRANCH  19  22
BRANCH  17  24
ATOM     24  C5* UNL     1      39.882 -29.543  52.947  0.00  0.00    +0.000 C 
BRANCH  24  25
ATOM     25  O5* UNL     1      40.152 -30.333  51.914  0.00  0.00    +0.000 OA
ATOM     26  H5* UNL     1      39.724 -31.200  52.024  0.00  0.00    +0.000 HD
ENDBRANCH  24  25
ENDBRANCH  17  24
ENDBRANCH   2  15
TORSDOF 5
ENDMDL
MODEL 4
REMARK VINA RESULT:      -5.6     14.761     16.082
REMARK  Name = Thioguanosine.pdbqt.pdb
REMARK  5 active torsions:
REMARK  status: ('A' for Active; 'I' for Inactive)
REMARK    1  A    between atoms: N_2  and  C1*_12
REMARK    2  A    between atoms: C4*_14  and  C5*_17
REMARK    3  A    between atoms: C3*_15  and  O3*_20
REMARK    4  A    between atoms: C2*_16  and  O2*_22
REMARK    5  A    between atoms: C5*_17  and  O5*_18
REMARK                            x       y       z     vdW  Elec       q    Type
REMARK                         _______ _______ _______ _____ _____    ______ ____
ROOT
ATOM      1  S   UNL     1      56.596 -52.711  63.498  0.00  0.00    +0.000 S 
ATOM      2  N   UNL     1      58.919 -49.107  61.128  0.00  0.00    +0.000 N 
ATOM      3  N   UNL     1      58.300 -51.038  59.732  0.00  0.00    +0.000 N 
ATOM      4  N   UNL     1      58.035 -49.899  63.056  0.00  0.00    +0.000 NA
ATOM      5  N   UNL     1      57.209 -52.835  60.843  0.00  0.00    +0.000 NA
ATOM      6  C   UNL     1      58.366 -50.338  60.879  0.00  0.00    +0.000 A 
ATOM      7  C   UNL     1      58.660 -48.896  62.474  0.00  0.00    +0.000 A 
ATOM      8  C   UNL     1      57.851 -50.821  62.055  0.00  0.00    +0.000 A 
ATOM      9  C   UNL     1      57.229 -52.146  62.057  0.00  0.00    +0.000 A 
ATOM     10  C   UNL     1      57.717 -52.274  59.784  0.00  0.00    +0.000 A 
ATOM     11  H   UNL     1      58.712 -50.710  58.861  0.00  0.00    +0.000 HD
ATOM     12  N   UNL     1      57.705 -52.919  58.592  0.00  0.00    +0.000 N 
ATOM     13  H   UNL     1      57.390 -52.353  57.815  0.00  0.00    +0.000 HD
ATOM     14  H   UNL     1      57.158 -53.774  58.656  0.00  0.00    +0.000 HD
ENDROOT
BRANCH   2  15
ATOM     15  C1* UNL     1      59.602 -48.239  60.300  0.00  0.00    +0.000 A 
ATOM     16  O4* UNL     1      59.145 -46.921  60.058  0.00  0.00    +0.000 OA
ATOM     17  C4* UNL     1      60.027 -46.280  59.171  0.00  0.00    +0.000 A 
ATOM     18  C3* UNL     1      61.077 -47.201  58.841  0.00  0.00    +0.000 A 
ATOM     19  C2* UNL     1      60.821 -48.416  59.550  0.00  0.00    +0.000 A 
BRANCH  18  20
ATOM     20  O3* UNL     1      61.703 -47.230  57.624  0.00  0.00    +0.000 OA
ATOM     21  H3* UNL     1      62.217 -46.417  57.466  0.00  0.00    +0.000 HD
ENDBRANCH  18  20
BRANCH  19  22
ATOM     22  O2* UNL     1      61.211 -49.622  59.034  0.00  0.00    +0.000 OA
ATOM     23  H2* UNL     1      60.774 -50.343  59.532  0.00  0.00    +0.000 HD
ENDBRANCH  19  22
BRANCH  17  24
ATOM     24  C5* UNL     1      59.722 -45.059  58.543  0.00  0.00    +0.000 C 
BRANCH  24  25
ATOM     25  O5* UNL     1      59.429 -43.917  57.929  0.00  0.00    +0.000 OA
ATOM     26  H5* UNL     1      60.142 -43.664  57.317  0.00  0.00    +0.000 HD
ENDBRANCH  24  25
ENDBRANCH  17  24
ENDBRANCH   2  15
TORSDOF 5
ENDMDL
MODEL 5
REMARK VINA RESULT:      -5.5      2.784      3.623
REMARK  Name = Thioguanosine.pdbqt.pdb
REMARK  5 active torsions:
REMARK  status: ('A' for Active; 'I' for Inactive)
REMARK    1  A    between atoms: N_2  and  C1*_12
REMARK    2  A    between atoms: C4*_14  and  C5*_17
REMARK    3  A    between atoms: C3*_15  and  O3*_20
REMARK    4  A    between atoms: C2*_16  and  O2*_22
REMARK    5  A    between atoms: C5*_17  and  O5*_18
REMARK                            x       y       z     vdW  Elec       q    Type
REMARK                         _______ _______ _______ _____ _____    ______ ____
ROOT
ATOM      1  S   UNL     1      45.622 -50.121  50.726  0.00  0.00    +0.000 S 
ATOM      2  N   UNL     1      47.394 -45.554  50.748  0.00  0.00    +0.000 N 
ATOM      3  N   UNL     1      44.992 -45.738  51.258  0.00  0.00    +0.000 N 
ATOM      4  N   UNL     1      47.770 -47.774  50.505  0.00  0.00    +0.000 NA
ATOM      5  N   UNL     1      44.072 -47.931  51.217  0.00  0.00    +0.000 NA
ATOM      6  C   UNL     1      46.212 -46.220  50.955  0.00  0.00    +0.000 A 
ATOM      7  C   UNL     1      48.305 -46.569  50.499  0.00  0.00    +0.000 A 
ATOM      8  C   UNL     1      46.442 -47.561  50.786  0.00  0.00    +0.000 A 
ATOM      9  C   UNL     1      45.318 -48.489  50.924  0.00  0.00    +0.000 A 
ATOM     10  C   UNL     1      43.971 -46.642  51.369  0.00  0.00    +0.000 A 
ATOM     11  H   UNL     1      44.799 -44.744  51.348  0.00  0.00    +0.000 HD
ATOM     12  N   UNL     1      42.775 -46.076  51.660  0.00  0.00    +0.000 N 
ATOM     13  H   UNL     1      42.805 -45.402  52.414  0.00  0.00    +0.000 HD
ATOM     14  H   UNL     1      42.079 -46.793  51.850  0.00  0.00    +0.000 HD
ENDROOT
BRANCH   2  15
ATOM     15  C1* UNL     1      47.683 -44.203  50.749  0.00  0.00    +0.000 A 
ATOM     16  O4* UNL     1      48.035 -43.513  49.565  0.00  0.00    +0.000 OA
ATOM     17  C4* UNL     1      48.286 -42.165  49.871  0.00  0.00    +0.000 A 
ATOM     18  C3* UNL     1      48.084 -41.981  51.280  0.00  0.00    +0.000 A 
ATOM     19  C2* UNL     1      47.698 -43.245  51.827  0.00  0.00    +0.000 A 
BRANCH  18  20
ATOM     20  O3* UNL     1      48.796 -41.090  52.036  0.00  0.00    +0.000 OA
ATOM     21  H3* UNL     1      49.305 -41.539  52.736  0.00  0.00    +0.000 HD
ENDBRANCH  18  20
BRANCH  19  22
ATOM     22  O2* UNL     1      48.018 -43.577  53.115  0.00  0.00    +0.000 OA
ATOM     23  H2* UNL     1      47.973 -42.776  53.676  0.00  0.00    +0.000 HD
ENDBRANCH  19  22
BRANCH  17  24
ATOM     24  C5* UNL     1      48.895 -41.278  48.965  0.00  0.00    +0.000 C 
BRANCH  24  25
ATOM     25  O5* UNL     1      49.484 -40.433  48.126  0.00  0.00    +0.000 OA
ATOM     26  H5* UNL     1      50.278 -40.043  48.533  0.00  0.00    +0.000 HD
ENDBRANCH  24  25
ENDBRANCH  17  24
ENDBRANCH   2  15
TORSDOF 5
ENDMDL
MODEL 6
REMARK VINA RESULT:      -5.5     24.043     25.069
REMARK  Name = Thioguanosine.pdbqt.pdb
REMARK  5 active torsions:
REMARK  status: ('A' for Active; 'I' for Inactive)
REMARK    1  A    between atoms: N_2  and  C1*_12
REMARK    2  A    between atoms: C4*_14  and  C5*_17
REMARK    3  A    between atoms: C3*_15  and  O3*_20
REMARK    4  A    between atoms: C2*_16  and  O2*_22
REMARK    5  A    between atoms: C5*_17  and  O5*_18
REMARK                            x       y       z     vdW  Elec       q    Type
REMARK                         _______ _______ _______ _____ _____    ______ ____
ROOT
ATOM      1  S   UNL     1      61.503 -37.112  72.270  0.00  0.00    +0.000 S 
ATOM      2  N   UNL     1      63.790 -40.795  69.989  0.00  0.00    +0.000 N 
ATOM      3  N   UNL     1      61.404 -41.184  70.456  0.00  0.00    +0.000 N 
ATOM      4  N   UNL     1      63.879 -38.709  70.865  0.00  0.00    +0.000 NA
ATOM      5  N   UNL     1      60.257 -39.444  71.601  0.00  0.00    +0.000 NA
ATOM      6  C   UNL     1      62.544 -40.470  70.464  0.00  0.00    +0.000 A 
ATOM      7  C   UNL     1      64.548 -39.664  70.251  0.00  0.00    +0.000 A 
ATOM      8  C   UNL     1      62.610 -39.214  71.011  0.00  0.00    +0.000 A 
ATOM      9  C   UNL     1      61.404 -38.648  71.620  0.00  0.00    +0.000 A 
ATOM     10  C   UNL     1      60.305 -40.619  71.042  0.00  0.00    +0.000 A 
ATOM     11  H   UNL     1      61.350 -42.131  70.088  0.00  0.00    +0.000 HD
ATOM     12  N   UNL     1      59.205 -41.408  71.005  0.00  0.00    +0.000 N 
ATOM     13  H   UNL     1      59.016 -41.820  70.101  0.00  0.00    +0.000 HD
ATOM     14  H   UNL     1      58.391 -40.899  71.343  0.00  0.00    +0.000 HD
ENDROOT
BRANCH   2  15
ATOM     15  C1* UNL     1      64.259 -41.954  69.402  0.00  0.00    +0.000 A 
ATOM     16  O4* UNL     1      65.597 -42.077  68.956  0.00  0.00    +0.000 OA
ATOM     17  C4* UNL     1      65.782 -43.351  68.392  0.00  0.00    +0.000 A 
ATOM     18  C3* UNL     1      64.540 -44.065  68.483  0.00  0.00    +0.000 A 
ATOM     19  C2* UNL     1      63.594 -43.202  69.120  0.00  0.00    +0.000 A 
BRANCH  18  20
ATOM     20  O3* UNL     1      64.124 -44.979  67.553  0.00  0.00    +0.000 OA
ATOM     21  H3* UNL     1      63.282 -45.397  67.813  0.00  0.00    +0.000 HD
ENDBRANCH  18  20
BRANCH  19  22
ATOM     22  O2* UNL     1      62.261 -43.287  68.825  0.00  0.00    +0.000 OA
ATOM     23  H2* UNL     1      62.127 -43.953  68.121  0.00  0.00    +0.000 HD
ENDBRANCH  19  22
BRANCH  17  24
ATOM     24  C5* UNL     1      66.920 -43.693  67.640  0.00  0.00    +0.000 C 
BRANCH  24  25
ATOM     25  O5* UNL     1      67.998 -44.036  66.942  0.00  0.00    +0.000 OA
ATOM     26  H5* UNL     1      67.754 -44.608  66.193  0.00  0.00    +0.000 HD
ENDBRANCH  24  25
ENDBRANCH  17  24
ENDBRANCH   2  15
TORSDOF 5
ENDMDL
MODEL 7
REMARK VINA RESULT:      -5.4     15.432     15.988
REMARK  Name = Thioguanosine.pdbqt.pdb
REMARK  5 active torsions:
REMARK  status: ('A' for Active; 'I' for Inactive)
REMARK    1  A    between atoms: N_2  and  C1*_12
REMARK    2  A    between atoms: C4*_14  and  C5*_17
REMARK    3  A    between atoms: C3*_15  and  O3*_20
REMARK    4  A    between atoms: C2*_16  and  O2*_22
REMARK    5  A    between atoms: C5*_17  and  O5*_18
REMARK                            x       y       z     vdW  Elec       q    Type
REMARK                         _______ _______ _______ _____ _____    ______ ____
ROOT
ATOM      1  S   UNL     1      56.862 -52.773  62.131  0.00  0.00    +0.000 S 
ATOM      2  N   UNL     1      58.961 -48.619  60.604  0.00  0.00    +0.000 N 
ATOM      3  N   UNL     1      59.204 -50.530  59.070  0.00  0.00    +0.000 N 
ATOM      4  N   UNL     1      57.738 -49.707  62.168  0.00  0.00    +0.000 NA
ATOM      5  N   UNL     1      58.240 -52.583  59.785  0.00  0.00    +0.000 NA
ATOM      6  C   UNL     1      58.780 -49.915  60.189  0.00  0.00    +0.000 A 
ATOM      7  C   UNL     1      58.280 -48.560  61.810  0.00  0.00    +0.000 A 
ATOM      8  C   UNL     1      58.055 -50.573  61.150  0.00  0.00    +0.000 A 
ATOM      9  C   UNL     1      57.755 -51.993  60.954  0.00  0.00    +0.000 A 
ATOM     10  C   UNL     1      58.906 -51.858  58.933  0.00  0.00    +0.000 A 
ATOM     11  H   UNL     1      59.774 -50.065  58.368  0.00  0.00    +0.000 HD
ATOM     12  N   UNL     1      59.383 -52.405  57.789  0.00  0.00    +0.000 N 
ATOM     13  H   UNL     1      59.198 -51.860  56.957  0.00  0.00    +0.000 HD
ATOM     14  H   UNL     1      59.035 -53.355  57.678  0.00  0.00    +0.000 HD
ENDROOT
BRANCH   2  15
ATOM     15  C1* UNL     1      59.658 -47.575  60.028  0.00  0.00    +0.000 A 
ATOM     16  O4* UNL     1      60.771 -47.795  59.181  0.00  0.00    +0.000 OA
ATOM     17  C4* UNL     1      61.283 -46.558  58.758  0.00  0.00    +0.000 A 
ATOM     18  C3* UNL     1      60.480 -45.519  59.337  0.00  0.00    +0.000 A 
ATOM     19  C2* UNL     1      59.462 -46.149  60.119  0.00  0.00    +0.000 A 
BRANCH  18  20
ATOM     20  O3* UNL     1      60.975 -44.296  59.703  0.00  0.00    +0.000 OA
ATOM     21  H3* UNL     1      61.825 -44.107  59.264  0.00  0.00    +0.000 HD
ENDBRANCH  18  20
BRANCH  19  22
ATOM     22  O2* UNL     1      58.955 -45.536  61.232  0.00  0.00    +0.000 OA
ATOM     23  H2* UNL     1      59.406 -44.677  61.362  0.00  0.00    +0.000 HD
ENDBRANCH  19  22
BRANCH  17  24
ATOM     24  C5* UNL     1      62.528 -46.428  58.115  0.00  0.00    +0.000 C 
BRANCH  24  25
ATOM     25  O5* UNL     1      63.712 -46.322  57.521  0.00  0.00    +0.000 OA
ATOM     26  H5* UNL     1      63.605 -46.220  56.559  0.00  0.00    +0.000 HD
ENDBRANCH  24  25
ENDBRANCH  17  24
ENDBRANCH   2  15
TORSDOF 5
ENDMDL
MODEL 8
REMARK VINA RESULT:      -5.3      4.797      6.793
REMARK  Name = Thioguanosine.pdbqt.pdb
REMARK  5 active torsions:
REMARK  status: ('A' for Active; 'I' for Inactive)
REMARK    1  A    between atoms: N_2  and  C1*_12
REMARK    2  A    between atoms: C4*_14  and  C5*_17
REMARK    3  A    between atoms: C3*_15  and  O3*_20
REMARK    4  A    between atoms: C2*_16  and  O2*_22
REMARK    5  A    between atoms: C5*_17  and  O5*_18
REMARK                            x       y       z     vdW  Elec       q    Type
REMARK                         _______ _______ _______ _____ _____    ______ ____
ROOT
ATOM      1  S   UNL     1      47.478 -40.693  41.449  0.00  0.00    +0.000 S 
ATOM      2  N   UNL     1      48.366 -40.347  46.254  0.00  0.00    +0.000 N 
ATOM      3  N   UNL     1      50.372 -40.512  44.837  0.00  0.00    +0.000 N 
ATOM      4  N   UNL     1      46.860 -40.398  44.564  0.00  0.00    +0.000 NA
ATOM      5  N   UNL     1      49.995 -40.727  42.499  0.00  0.00    +0.000 NA
ATOM      6  C   UNL     1      49.048 -40.450  45.068  0.00  0.00    +0.000 A 
ATOM      7  C   UNL     1      47.036 -40.299  45.867  0.00  0.00    +0.000 A 
ATOM      8  C   UNL     1      48.130 -40.501  44.051  0.00  0.00    +0.000 A 
ATOM      9  C   UNL     1      48.612 -40.645  42.676  0.00  0.00    +0.000 A 
ATOM     10  C   UNL     1      50.776 -40.654  43.538  0.00  0.00    +0.000 A 
ATOM     11  H   UNL     1      51.063 -40.515  45.584  0.00  0.00    +0.000 HD
ATOM     12  N   UNL     1      52.121 -40.725  43.393  0.00  0.00    +0.000 N 
ATOM     13  H   UNL     1      52.633 -40.017  43.903  0.00  0.00    +0.000 HD
ATOM     14  H   UNL     1      52.374 -40.708  42.407  0.00  0.00    +0.000 HD
ENDROOT
BRANCH   2  15
ATOM     15  C1* UNL     1      48.820 -40.315  47.558  0.00  0.00    +0.000 A 
ATOM     16  O4* UNL     1      48.138 -40.981  48.605  0.00  0.00    +0.000 OA
ATOM     17  C4* UNL     1      48.818 -40.762  49.814  0.00  0.00    +0.000 A 
ATOM     18  C3* UNL     1      49.966 -39.945  49.541  0.00  0.00    +0.000 A 
ATOM     19  C2* UNL     1      49.975 -39.674  48.137  0.00  0.00    +0.000 A 
BRANCH  18  20
ATOM     20  O3* UNL     1      50.469 -39.029  50.425  0.00  0.00    +0.000 OA
ATOM     21  H3* UNL     1      50.910 -38.291  49.965  0.00  0.00    +0.000 HD
ENDBRANCH  18  20
BRANCH  19  22
ATOM     22  O2* UNL     1      50.501 -38.507  47.654  0.00  0.00    +0.000 OA
ATOM     23  H2* UNL     1      50.716 -38.617  46.705  0.00  0.00    +0.000 HD
ENDBRANCH  19  22
BRANCH  17  24
ATOM     24  C5* UNL     1      48.264 -41.079  51.068  0.00  0.00    +0.000 C 
BRANCH  24  25
ATOM     25  O5* UNL     1      47.727 -41.359  52.251  0.00  0.00    +0.000 OA
ATOM     26  H5* UNL     1      48.109 -40.791  52.944  0.00  0.00    +0.000 HD
ENDBRANCH  24  25
ENDBRANCH  17  24
ENDBRANCH   2  15
TORSDOF 5
ENDMDL
MODEL 9
REMARK VINA RESULT:      -5.1     24.911     27.100
REMARK  Name = Thioguanosine.pdbqt.pdb
REMARK  5 active torsions:
REMARK  status: ('A' for Active; 'I' for Inactive)
REMARK    1  A    between atoms: N_2  and  C1*_12
REMARK    2  A    between atoms: C4*_14  and  C5*_17
REMARK    3  A    between atoms: C3*_15  and  O3*_20
REMARK    4  A    between atoms: C2*_16  and  O2*_22
REMARK    5  A    between atoms: C5*_17  and  O5*_18
REMARK                            x       y       z     vdW  Elec       q    Type
REMARK                         _______ _______ _______ _____ _____    ______ ____
ROOT
ATOM      1  S   UNL     1      55.911 -48.491  79.088  0.00  0.00    +0.000 S 
ATOM      2  N   UNL     1      52.641 -50.488  76.035  0.00  0.00    +0.000 N 
ATOM      3  N   UNL     1      54.952 -50.432  75.189  0.00  0.00    +0.000 N 
ATOM      4  N   UNL     1      53.086 -49.540  78.042  0.00  0.00    +0.000 NA
ATOM      5  N   UNL     1      56.572 -49.432  76.614  0.00  0.00    +0.000 NA
ATOM      6  C   UNL     1      53.984 -50.214  76.097  0.00  0.00    +0.000 A 
ATOM      7  C   UNL     1      52.161 -50.069  77.266  0.00  0.00    +0.000 A 
ATOM      8  C   UNL     1      54.243 -49.621  77.307  0.00  0.00    +0.000 A 
ATOM      9  C   UNL     1      55.614 -49.200  77.603  0.00  0.00    +0.000 A 
ATOM     10  C   UNL     1      56.216 -50.016  75.506  0.00  0.00    +0.000 A 
ATOM     11  H   UNL     1      54.769 -50.835  74.273  0.00  0.00    +0.000 HD
ATOM     12  N   UNL     1      57.127 -50.258  74.534  0.00  0.00    +0.000 N 
ATOM     13  H   UNL     1      57.092 -51.194  74.153  0.00  0.00    +0.000 HD
ATOM     14  H   UNL     1      58.065 -50.041  74.863  0.00  0.00    +0.000 HD
ENDROOT
BRANCH   2  15
ATOM     15  C1* UNL     1      51.875 -51.030  75.021  0.00  0.00    +0.000 A 
ATOM     16  O4* UNL     1      52.447 -51.463  73.801  0.00  0.00    +0.000 OA
ATOM     17  C4* UNL     1      51.433 -51.951  72.961  0.00  0.00    +0.000 A 
ATOM     18  C3* UNL     1      50.183 -51.836  73.656  0.00  0.00    +0.000 A 
ATOM     19  C2* UNL     1      50.456 -51.274  74.942  0.00  0.00    +0.000 A 
BRANCH  18  20
ATOM     20  O3* UNL     1      48.991 -51.586  73.031  0.00  0.00    +0.000 OA
ATOM     21  H3* UNL     1      48.928 -50.658  72.737  0.00  0.00    +0.000 HD
ENDBRANCH  18  20
BRANCH  19  22
ATOM     22  O2* UNL     1      49.528 -50.492  75.575  0.00  0.00    +0.000 OA
ATOM     23  H2* UNL     1      48.666 -50.583  75.121  0.00  0.00    +0.000 HD
ENDBRANCH  19  22
BRANCH  17  24
ATOM     24  C5* UNL     1      51.639 -52.222  71.596  0.00  0.00    +0.000 C 
BRANCH  24  25
ATOM     25  O5* UNL     1      51.833 -52.501  70.311  0.00  0.00    +0.000 OA
ATOM     26  H5* UNL     1      50.984 -52.545  69.838  0.00  0.00    +0.000 HD
ENDBRANCH  24  25
ENDBRANCH  17  24
ENDBRANCH   2  15
TORSDOF 5
ENDMDL
