MODEL 1
REMARK VINA RESULT:      -6.9      0.000      0.000
REMARK  Name = Trichostatin_A.pdbqt.pdb
REMARK  6 active torsions:
REMARK  status: ('A' for Active; 'I' for Inactive)
REMARK    1  A    between atoms: C_1  and  C_15
REMARK    2  A    between atoms: C_4  and  C_6
REMARK    3  A    between atoms: C_7  and  C_10
REMARK    4  A    between atoms: N_9  and  O_12
REMARK    5  A    between atoms: C_15  and  C_16
REMARK    6  A    between atoms: C_17  and  N_22
REMARK                            x       y       z     vdW  Elec       q    Type
REMARK                         _______ _______ _______ _____ _____    ______ ____
ROOT
ATOM      1  C   UNL     1      49.344 -47.599  51.084  0.00  0.00    +0.000 C 
ATOM      2  C   UNL     1      50.623 -47.947  51.817  0.00  0.00    +0.000 C 
ATOM      3  C   UNL     1      49.360 -46.388  50.352  0.00  0.00    +0.000 C 
ATOM      4  C   UNL     1      49.320 -45.288  49.674  0.00  0.00    +0.000 C 
ATOM      5  C   UNL     1      49.580 -45.322  48.199  0.00  0.00    +0.000 C 
ENDROOT
BRANCH   4   6
ATOM      6  C   UNL     1      48.842 -44.101  50.275  0.00  0.00    +0.000 C 
ATOM      7  C   UNL     1      48.438 -43.091  50.786  0.00  0.00    +0.000 C 
BRANCH   7  10
ATOM      8  O   UNL     1      46.881 -41.877  51.989  0.00  0.00    +0.000 OA
ATOM      9  N   UNL     1      48.743 -40.774  51.249  0.00  0.00    +0.000 N 
ATOM     10  C   UNL     1      47.951 -41.879  51.391  0.00  0.00    +0.000 C 
ATOM     11  H   UNL     1      49.625 -40.757  50.752  0.00  0.00    +0.000 HD
BRANCH   9  12
ATOM     12  O   UNL     1      48.291 -39.567  51.822  0.00  0.00    +0.000 OA
ATOM     13  H   UNL     1      48.378 -38.928  51.082  0.00  0.00    +0.000 HD
ENDBRANCH   9  12
ENDBRANCH   7  10
ENDBRANCH   4   6
BRANCH   1  15
ATOM     14  O   UNL     1      47.007 -47.904  50.780  0.00  0.00    +0.000 OA
ATOM     15  C   UNL     1      48.044 -48.301  51.312  0.00  0.00    +0.000 C 
BRANCH  15  16
ATOM     16  C   UNL     1      47.985 -49.497  52.177  0.00  0.00    +0.000 A 
ATOM     17  C   UNL     1      47.689 -51.787  53.813  0.00  0.00    +0.000 A 
ATOM     18  C   UNL     1      48.576 -50.701  51.808  0.00  0.00    +0.000 A 
ATOM     19  C   UNL     1      47.223 -49.433  53.341  0.00  0.00    +0.000 A 
ATOM     20  C   UNL     1      48.436 -51.823  52.625  0.00  0.00    +0.000 A 
ATOM     21  C   UNL     1      47.092 -50.562  54.150  0.00  0.00    +0.000 A 
BRANCH  17  22
ATOM     22  N   UNL     1      47.566 -52.926  54.647  0.00  0.00    +0.000 N 
ATOM     23  C   UNL     1      47.050 -52.809  56.001  0.00  0.00    +0.000 C 
ATOM     24  C   UNL     1      48.325 -54.137  54.378  0.00  0.00    +0.000 C 
ENDBRANCH  17  22
ENDBRANCH  15  16
ENDBRANCH   1  15
TORSDOF 6
ENDMDL
MODEL 2
REMARK VINA RESULT:      -6.7      3.218      4.389
REMARK  Name = Trichostatin_A.pdbqt.pdb
REMARK  6 active torsions:
REMARK  status: ('A' for Active; 'I' for Inactive)
REMARK    1  A    between atoms: C_1  and  C_15
REMARK    2  A    between atoms: C_4  and  C_6
REMARK    3  A    between atoms: C_7  and  C_10
REMARK    4  A    between atoms: N_9  and  O_12
REMARK    5  A    between atoms: C_15  and  C_16
REMARK    6  A    between atoms: C_17  and  N_22
REMARK                            x       y       z     vdW  Elec       q    Type
REMARK                         _______ _______ _______ _____ _____    ______ ____
ROOT
ATOM      1  C   UNL     1      49.112 -47.775  51.289  0.00  0.00    +0.000 C 
ATOM      2  C   UNL     1      50.563 -48.058  51.622  0.00  0.00    +0.000 C 
ATOM      3  C   UNL     1      48.876 -46.657  50.454  0.00  0.00    +0.000 C 
ATOM      4  C   UNL     1      48.605 -45.643  49.700  0.00  0.00    +0.000 C 
ATOM      5  C   UNL     1      48.393 -45.851  48.232  0.00  0.00    +0.000 C 
ENDROOT
BRANCH   4   6
ATOM      6  C   UNL     1      48.314 -44.386  50.279  0.00  0.00    +0.000 C 
ATOM      7  C   UNL     1      48.068 -43.316  50.768  0.00  0.00    +0.000 C 
BRANCH   7  10
ATOM      8  O   UNL     1      46.755 -41.892  52.030  0.00  0.00    +0.000 OA
ATOM      9  N   UNL     1      48.660 -41.033  51.102  0.00  0.00    +0.000 N 
ATOM     10  C   UNL     1      47.766 -42.036  51.353  0.00  0.00    +0.000 C 
ATOM     11  H   UNL     1      49.497 -41.133  50.539  0.00  0.00    +0.000 HD
BRANCH   9  12
ATOM     12  O   UNL     1      48.390 -39.763  51.653  0.00  0.00    +0.000 OA
ATOM     13  H   UNL     1      47.602 -39.931  52.213  0.00  0.00    +0.000 HD
ENDBRANCH   9  12
ENDBRANCH   7  10
ENDBRANCH   4   6
BRANCH   1  15
ATOM     14  O   UNL     1      48.148 -49.296  52.838  0.00  0.00    +0.000 OA
ATOM     15  C   UNL     1      47.962 -48.423  51.990  0.00  0.00    +0.000 C 
BRANCH  15  16
ATOM     16  C   UNL     1      46.576 -48.014  51.684  0.00  0.00    +0.000 A 
ATOM     17  C   UNL     1      43.864 -47.389  51.172  0.00  0.00    +0.000 A 
ATOM     18  C   UNL     1      45.997 -46.888  52.261  0.00  0.00    +0.000 A 
ATOM     19  C   UNL     1      45.806 -48.847  50.876  0.00  0.00    +0.000 A 
ATOM     20  C   UNL     1      44.663 -46.579  51.995  0.00  0.00    +0.000 A 
ATOM     21  C   UNL     1      44.473 -48.526  50.617  0.00  0.00    +0.000 A 
BRANCH  17  22
ATOM     22  N   UNL     1      42.515 -47.058  50.892  0.00  0.00    +0.000 N 
ATOM     23  C   UNL     1      41.423 -47.711  51.597  0.00  0.00    +0.000 C 
ATOM     24  C   UNL     1      42.145 -46.415  49.642  0.00  0.00    +0.000 C 
ENDBRANCH  17  22
ENDBRANCH  15  16
ENDBRANCH   1  15
TORSDOF 6
ENDMDL
MODEL 3
REMARK VINA RESULT:      -6.6      3.984      6.120
REMARK  Name = Trichostatin_A.pdbqt.pdb
REMARK  6 active torsions:
REMARK  status: ('A' for Active; 'I' for Inactive)
REMARK    1  A    between atoms: C_1  and  C_15
REMARK    2  A    between atoms: C_4  and  C_6
REMARK    3  A    between atoms: C_7  and  C_10
REMARK    4  A    between atoms: N_9  and  O_12
REMARK    5  A    between atoms: C_15  and  C_16
REMARK    6  A    between atoms: C_17  and  N_22
REMARK                            x       y       z     vdW  Elec       q    Type
REMARK                         _______ _______ _______ _____ _____    ______ ____
ROOT
ATOM      1  C   UNL     1      47.324 -48.209  50.142  0.00  0.00    +0.000 C 
ATOM      2  C   UNL     1      46.347 -48.589  49.048  0.00  0.00    +0.000 C 
ATOM      3  C   UNL     1      46.919 -47.152  50.993  0.00  0.00    +0.000 C 
ATOM      4  C   UNL     1      46.601 -46.189  51.793  0.00  0.00    +0.000 C 
ATOM      5  C   UNL     1      45.990 -46.507  53.123  0.00  0.00    +0.000 C 
ENDROOT
BRANCH   4   6
ATOM      6  C   UNL     1      47.006 -44.865  51.506  0.00  0.00    +0.000 C 
ATOM      7  C   UNL     1      47.348 -43.738  51.266  0.00  0.00    +0.000 C 
BRANCH   7  10
ATOM      8  O   UNL     1      47.612 -41.925  49.856  0.00  0.00    +0.000 OA
ATOM      9  N   UNL     1      48.326 -41.701  52.017  0.00  0.00    +0.000 N 
ATOM     10  C   UNL     1      47.765 -42.391  50.979  0.00  0.00    +0.000 C 
ATOM     11  H   UNL     1      48.467 -42.073  52.949  0.00  0.00    +0.000 HD
BRANCH   9  12
ATOM     12  O   UNL     1      48.754 -40.380  51.769  0.00  0.00    +0.000 OA
ATOM     13  H   UNL     1      49.637 -40.352  52.199  0.00  0.00    +0.000 HD
ENDBRANCH   9  12
ENDBRANCH   7  10
ENDBRANCH   4   6
BRANCH   1  15
ATOM     14  O   UNL     1      49.050 -49.681  50.845  0.00  0.00    +0.000 OA
ATOM     15  C   UNL     1      48.739 -48.688  50.188  0.00  0.00    +0.000 C 
BRANCH  15  16
ATOM     16  C   UNL     1      49.790 -47.979  49.431  0.00  0.00    +0.000 A 
ATOM     17  C   UNL     1      51.930 -46.711  48.081  0.00  0.00    +0.000 A 
ATOM     18  C   UNL     1      49.950 -48.148  48.059  0.00  0.00    +0.000 A 
ATOM     19  C   UNL     1      50.706 -47.205  50.140  0.00  0.00    +0.000 A 
ATOM     20  C   UNL     1      51.000 -47.510  47.398  0.00  0.00    +0.000 A 
ATOM     21  C   UNL     1      51.752 -46.572  49.467  0.00  0.00    +0.000 A 
BRANCH  17  22
ATOM     22  N   UNL     1      52.984 -46.052  47.399  0.00  0.00    +0.000 N 
ATOM     23  C   UNL     1      54.125 -45.518  48.125  0.00  0.00    +0.000 C 
ATOM     24  C   UNL     1      52.786 -45.502  46.068  0.00  0.00    +0.000 C 
ENDBRANCH  17  22
ENDBRANCH  15  16
ENDBRANCH   1  15
TORSDOF 6
ENDMDL
MODEL 4
REMARK VINA RESULT:      -6.5      5.171      8.512
REMARK  Name = Trichostatin_A.pdbqt.pdb
REMARK  6 active torsions:
REMARK  status: ('A' for Active; 'I' for Inactive)
REMARK    1  A    between atoms: C_1  and  C_15
REMARK    2  A    between atoms: C_4  and  C_6
REMARK    3  A    between atoms: C_7  and  C_10
REMARK    4  A    between atoms: N_9  and  O_12
REMARK    5  A    between atoms: C_15  and  C_16
REMARK    6  A    between atoms: C_17  and  N_22
REMARK                            x       y       z     vdW  Elec       q    Type
REMARK                         _______ _______ _______ _____ _____    ______ ____
ROOT
ATOM      1  C   UNL     1      51.298 -47.063  48.271  0.00  0.00    +0.000 C 
ATOM      2  C   UNL     1      50.620 -47.621  47.036  0.00  0.00    +0.000 C 
ATOM      3  C   UNL     1      50.550 -47.128  49.470  0.00  0.00    +0.000 C 
ATOM      4  C   UNL     1      49.906 -47.158  50.590  0.00  0.00    +0.000 C 
ATOM      5  C   UNL     1      50.156 -48.276  51.555  0.00  0.00    +0.000 C 
ENDROOT
BRANCH   4   6
ATOM      6  C   UNL     1      49.127 -46.048  50.991  0.00  0.00    +0.000 C 
ATOM      7  C   UNL     1      48.465 -45.103  51.328  0.00  0.00    +0.000 C 
BRANCH   7  10
ATOM      8  O   UNL     1      46.445 -44.028  51.654  0.00  0.00    +0.000 OA
ATOM      9  N   UNL     1      48.352 -42.885  52.188  0.00  0.00    +0.000 N 
ATOM     10  C   UNL     1      47.667 -43.976  51.732  0.00  0.00    +0.000 C 
ATOM     11  H   UNL     1      49.361 -42.822  52.251  0.00  0.00    +0.000 HD
BRANCH   9  12
ATOM     12  O   UNL     1      47.601 -41.758  52.583  0.00  0.00    +0.000 OA
ATOM     13  H   UNL     1      46.677 -42.040  52.408  0.00  0.00    +0.000 HD
ENDBRANCH   9  12
ENDBRANCH   7  10
ENDBRANCH   4   6
BRANCH   1  15
ATOM     14  O   UNL     1      52.769 -45.384  49.085  0.00  0.00    +0.000 OA
ATOM     15  C   UNL     1      52.544 -46.239  48.228  0.00  0.00    +0.000 C 
BRANCH  15  16
ATOM     16  C   UNL     1      53.539 -46.447  47.156  0.00  0.00    +0.000 A 
ATOM     17  C   UNL     1      55.539 -46.705  45.171  0.00  0.00    +0.000 A 
ATOM     18  C   UNL     1      54.284 -47.619  47.062  0.00  0.00    +0.000 A 
ATOM     19  C   UNL     1      53.803 -45.392  46.286  0.00  0.00    +0.000 A 
ATOM     20  C   UNL     1      55.260 -47.744  46.073  0.00  0.00    +0.000 A 
ATOM     21  C   UNL     1      54.782 -45.530  45.301  0.00  0.00    +0.000 A 
BRANCH  17  22
ATOM     22  N   UNL     1      56.520 -46.846  44.157  0.00  0.00    +0.000 N 
ATOM     23  C   UNL     1      56.144 -46.893  42.754  0.00  0.00    +0.000 C 
ATOM     24  C   UNL     1      57.840 -47.376  44.461  0.00  0.00    +0.000 C 
ENDBRANCH  17  22
ENDBRANCH  15  16
ENDBRANCH   1  15
TORSDOF 6
ENDMDL
MODEL 5
REMARK VINA RESULT:      -6.4      4.563      8.146
REMARK  Name = Trichostatin_A.pdbqt.pdb
REMARK  6 active torsions:
REMARK  status: ('A' for Active; 'I' for Inactive)
REMARK    1  A    between atoms: C_1  and  C_15
REMARK    2  A    between atoms: C_4  and  C_6
REMARK    3  A    between atoms: C_7  and  C_10
REMARK    4  A    between atoms: N_9  and  O_12
REMARK    5  A    between atoms: C_15  and  C_16
REMARK    6  A    between atoms: C_17  and  N_22
REMARK                            x       y       z     vdW  Elec       q    Type
REMARK                         _______ _______ _______ _____ _____    ______ ____
ROOT
ATOM      1  C   UNL     1      49.542 -47.214  50.618  0.00  0.00    +0.000 C 
ATOM      2  C   UNL     1      49.861 -48.274  51.653  0.00  0.00    +0.000 C 
ATOM      3  C   UNL     1      50.305 -47.264  49.427  0.00  0.00    +0.000 C 
ATOM      4  C   UNL     1      50.978 -47.261  48.324  0.00  0.00    +0.000 C 
ATOM      5  C   UNL     1      50.405 -47.924  47.108  0.00  0.00    +0.000 C 
ENDROOT
BRANCH   4   6
ATOM      6  C   UNL     1      52.146 -46.472  48.207  0.00  0.00    +0.000 C 
ATOM      7  C   UNL     1      53.140 -45.804  48.109  0.00  0.00    +0.000 C 
BRANCH   7  10
ATOM      8  O   UNL     1      54.999 -44.737  48.976  0.00  0.00    +0.000 OA
ATOM      9  N   UNL     1      54.642 -44.582  46.723  0.00  0.00    +0.000 N 
ATOM     10  C   UNL     1      54.330 -45.005  47.984  0.00  0.00    +0.000 C 
ATOM     11  H   UNL     1      54.097 -44.788  45.894  0.00  0.00    +0.000 HD
BRANCH   9  12
ATOM     12  O   UNL     1      55.798 -43.788  46.565  0.00  0.00    +0.000 OA
ATOM     13  H   UNL     1      56.505 -44.355  46.941  0.00  0.00    +0.000 HD
ENDBRANCH   9  12
ENDBRANCH   7  10
ENDBRANCH   4   6
BRANCH   1  15
ATOM     14  O   UNL     1      48.027 -45.938  51.929  0.00  0.00    +0.000 OA
ATOM     15  C   UNL     1      48.696 -46.015  50.898  0.00  0.00    +0.000 C 
BRANCH  15  16
ATOM     16  C   UNL     1      48.659 -44.889  49.942  0.00  0.00    +0.000 A 
ATOM     17  C   UNL     1      48.432 -42.679  48.190  0.00  0.00    +0.000 A 
ATOM     18  C   UNL     1      49.641 -43.903  49.930  0.00  0.00    +0.000 A 
ATOM     19  C   UNL     1      47.551 -44.767  49.109  0.00  0.00    +0.000 A 
ATOM     20  C   UNL     1      49.529 -42.823  49.055  0.00  0.00    +0.000 A 
ATOM     21  C   UNL     1      47.451 -43.682  48.238  0.00  0.00    +0.000 A 
BRANCH  17  22
ATOM     22  N   UNL     1      48.334 -41.587  47.291  0.00  0.00    +0.000 N 
ATOM     23  C   UNL     1      47.660 -41.731  46.011  0.00  0.00    +0.000 C 
ATOM     24  C   UNL     1      49.238 -40.453  47.389  0.00  0.00    +0.000 C 
ENDBRANCH  17  22
ENDBRANCH  15  16
ENDBRANCH   1  15
TORSDOF 6
ENDMDL
MODEL 6
REMARK VINA RESULT:      -6.3      3.600      4.661
REMARK  Name = Trichostatin_A.pdbqt.pdb
REMARK  6 active torsions:
REMARK  status: ('A' for Active; 'I' for Inactive)
REMARK    1  A    between atoms: C_1  and  C_15
REMARK    2  A    between atoms: C_4  and  C_6
REMARK    3  A    between atoms: C_7  and  C_10
REMARK    4  A    between atoms: N_9  and  O_12
REMARK    5  A    between atoms: C_15  and  C_16
REMARK    6  A    between atoms: C_17  and  N_22
REMARK                            x       y       z     vdW  Elec       q    Type
REMARK                         _______ _______ _______ _____ _____    ______ ____
ROOT
ATOM      1  C   UNL     1      49.707 -47.530  50.389  0.00  0.00    +0.000 C 
ATOM      2  C   UNL     1      50.538 -47.934  51.590  0.00  0.00    +0.000 C 
ATOM      3  C   UNL     1      49.892 -46.204  49.927  0.00  0.00    +0.000 C 
ATOM      4  C   UNL     1      50.018 -45.002  49.470  0.00  0.00    +0.000 C 
ATOM      5  C   UNL     1      50.932 -44.747  48.311  0.00  0.00    +0.000 C 
ENDROOT
BRANCH   4   6
ATOM      6  C   UNL     1      49.157 -43.977  49.924  0.00  0.00    +0.000 C 
ATOM      7  C   UNL     1      48.424 -43.107  50.312  0.00  0.00    +0.000 C 
BRANCH   7  10
ATOM      8  O   UNL     1      47.069 -42.119  51.903  0.00  0.00    +0.000 OA
ATOM      9  N   UNL     1      47.315 -41.040  49.902  0.00  0.00    +0.000 N 
ATOM     10  C   UNL     1      47.553 -42.061  50.778  0.00  0.00    +0.000 C 
ATOM     11  H   UNL     1      47.700 -40.980  48.967  0.00  0.00    +0.000 HD
BRANCH   9  12
ATOM     12  O   UNL     1      46.457 -40.002  50.323  0.00  0.00    +0.000 OA
ATOM     13  H   UNL     1      45.705 -40.072  49.695  0.00  0.00    +0.000 HD
ENDBRANCH   9  12
ENDBRANCH   7  10
ENDBRANCH   4   6
BRANCH   1  15
ATOM     14  O   UNL     1      48.748 -49.410  49.300  0.00  0.00    +0.000 OA
ATOM     15  C   UNL     1      48.560 -48.334  49.869  0.00  0.00    +0.000 C 
BRANCH  15  16
ATOM     16  C   UNL     1      47.174 -47.855  50.043  0.00  0.00    +0.000 A 
ATOM     17  C   UNL     1      44.461 -47.091  50.294  0.00  0.00    +0.000 A 
ATOM     18  C   UNL     1      46.616 -47.662  51.303  0.00  0.00    +0.000 A 
ATOM     19  C   UNL     1      46.383 -47.698  48.908  0.00  0.00    +0.000 A 
ATOM     20  C   UNL     1      45.281 -47.274  51.419  0.00  0.00    +0.000 A 
ATOM     21  C   UNL     1      45.049 -47.308  49.038  0.00  0.00    +0.000 A 
BRANCH  17  22
ATOM     22  N   UNL     1      43.111 -46.679  50.419  0.00  0.00    +0.000 N 
ATOM     23  C   UNL     1      42.285 -46.454  49.244  0.00  0.00    +0.000 C 
ATOM     24  C   UNL     1      42.628 -46.055  51.641  0.00  0.00    +0.000 C 
ENDBRANCH  17  22
ENDBRANCH  15  16
ENDBRANCH   1  15
TORSDOF 6
ENDMDL
MODEL 7
REMARK VINA RESULT:      -6.3     15.302     19.596
REMARK  Name = Trichostatin_A.pdbqt.pdb
REMARK  6 active torsions:
REMARK  status: ('A' for Active; 'I' for Inactive)
REMARK    1  A    between atoms: C_1  and  C_15
REMARK    2  A    between atoms: C_4  and  C_6
REMARK    3  A    between atoms: C_7  and  C_10
REMARK    4  A    between atoms: N_9  and  O_12
REMARK    5  A    between atoms: C_15  and  C_16
REMARK    6  A    between atoms: C_17  and  N_22
REMARK                            x       y       z     vdW  Elec       q    Type
REMARK                         _______ _______ _______ _____ _____    ______ ____
ROOT
ATOM      1  C   UNL     1      51.482 -27.562  46.448  0.00  0.00    +0.000 C 
ATOM      2  C   UNL     1      52.023 -26.575  45.433  0.00  0.00    +0.000 C 
ATOM      3  C   UNL     1      50.523 -27.053  47.356  0.00  0.00    +0.000 C 
ATOM      4  C   UNL     1      49.649 -26.636  48.212  0.00  0.00    +0.000 C 
ATOM      5  C   UNL     1      48.192 -26.857  47.946  0.00  0.00    +0.000 C 
ENDROOT
BRANCH   4   6
ATOM      6  C   UNL     1      50.066 -26.159  49.476  0.00  0.00    +0.000 C 
ATOM      7  C   UNL     1      50.421 -25.757  50.552  0.00  0.00    +0.000 C 
BRANCH   7  10
ATOM      8  O   UNL     1      50.635 -24.111  52.161  0.00  0.00    +0.000 OA
ATOM      9  N   UNL     1      51.498 -26.176  52.634  0.00  0.00    +0.000 N 
ATOM     10  C   UNL     1      50.852 -25.273  51.837  0.00  0.00    +0.000 C 
ATOM     11  H   UNL     1      51.692 -27.137  52.379  0.00  0.00    +0.000 HD
BRANCH   9  12
ATOM     12  O   UNL     1      51.943 -25.732  53.897  0.00  0.00    +0.000 OA
ATOM     13  H   UNL     1      51.614 -24.808  53.933  0.00  0.00    +0.000 HD
ENDBRANCH   9  12
ENDBRANCH   7  10
ENDBRANCH   4   6
BRANCH   1  15
ATOM     14  O   UNL     1      53.230 -29.014  47.141  0.00  0.00    +0.000 OA
ATOM     15  C   UNL     1      52.087 -28.906  46.697  0.00  0.00    +0.000 C 
BRANCH  15  16
ATOM     16  C   UNL     1      51.312 -30.134  46.424  0.00  0.00    +0.000 A 
ATOM     17  C   UNL     1      49.797 -32.499  46.082  0.00  0.00    +0.000 A 
ATOM     18  C   UNL     1      50.153 -30.117  45.655  0.00  0.00    +0.000 A 
ATOM     19  C   UNL     1      51.707 -31.315  47.048  0.00  0.00    +0.000 A 
ATOM     20  C   UNL     1      49.418 -31.289  45.480  0.00  0.00    +0.000 A 
ATOM     21  C   UNL     1      50.962 -32.481  46.865  0.00  0.00    +0.000 A 
BRANCH  17  22
ATOM     22  N   UNL     1      49.054 -33.690  45.886  0.00  0.00    +0.000 N 
ATOM     23  C   UNL     1      49.510 -34.955  46.439  0.00  0.00    +0.000 C 
ATOM     24  C   UNL     1      48.089 -33.802  44.804  0.00  0.00    +0.000 C 
ENDBRANCH  17  22
ENDBRANCH  15  16
ENDBRANCH   1  15
TORSDOF 6
ENDMDL
MODEL 8
REMARK VINA RESULT:      -6.2     20.349     24.761
REMARK  Name = Trichostatin_A.pdbqt.pdb
REMARK  6 active torsions:
REMARK  status: ('A' for Active; 'I' for Inactive)
REMARK    1  A    between atoms: C_1  and  C_15
REMARK    2  A    between atoms: C_4  and  C_6
REMARK    3  A    between atoms: C_7  and  C_10
REMARK    4  A    between atoms: N_9  and  O_12
REMARK    5  A    between atoms: C_15  and  C_16
REMARK    6  A    between atoms: C_17  and  N_22
REMARK                            x       y       z     vdW  Elec       q    Type
REMARK                         _______ _______ _______ _____ _____    ______ ____
ROOT
ATOM      1  C   UNL     1      37.677 -25.271  57.383  0.00  0.00    +0.000 C 
ATOM      2  C   UNL     1      38.309 -24.996  58.733  0.00  0.00    +0.000 C 
ATOM      3  C   UNL     1      37.753 -26.608  56.925  0.00  0.00    +0.000 C 
ATOM      4  C   UNL     1      37.801 -27.812  56.458  0.00  0.00    +0.000 C 
ATOM      5  C   UNL     1      36.627 -28.724  56.647  0.00  0.00    +0.000 C 
ENDROOT
BRANCH   4   6
ATOM      6  C   UNL     1      38.862 -28.202  55.608  0.00  0.00    +0.000 C 
ATOM      7  C   UNL     1      39.760 -28.535  54.883  0.00  0.00    +0.000 C 
BRANCH   7  10
ATOM      8  O   UNL     1      41.944 -28.408  54.133  0.00  0.00    +0.000 OA
ATOM      9  N   UNL     1      40.545 -29.880  53.081  0.00  0.00    +0.000 N 
ATOM     10  C   UNL     1      40.839 -28.925  54.014  0.00  0.00    +0.000 C 
ATOM     11  H   UNL     1      39.637 -30.313  52.965  0.00  0.00    +0.000 HD
BRANCH   9  12
ATOM     12  O   UNL     1      41.577 -30.280  52.207  0.00  0.00    +0.000 OA
ATOM     13  H   UNL     1      41.116 -30.353  51.343  0.00  0.00    +0.000 HD
ENDBRANCH   9  12
ENDBRANCH   7  10
ENDBRANCH   4   6
BRANCH   1  15
ATOM     14  O   UNL     1      36.614 -23.218  56.839  0.00  0.00    +0.000 OA
ATOM     15  C   UNL     1      37.246 -24.196  56.439  0.00  0.00    +0.000 C 
BRANCH  15  16
ATOM     16  C   UNL     1      37.585 -24.284  55.004  0.00  0.00    +0.000 A 
ATOM     17  C   UNL     1      38.113 -24.317  52.224  0.00  0.00    +0.000 A 
ATOM     18  C   UNL     1      38.864 -24.009  54.532  0.00  0.00    +0.000 A 
ATOM     19  C   UNL     1      36.559 -24.547  54.099  0.00  0.00    +0.000 A 
ATOM     20  C   UNL     1      39.121 -24.039  53.161  0.00  0.00    +0.000 A 
ATOM     21  C   UNL     1      36.829 -24.575  52.730  0.00  0.00    +0.000 A 
BRANCH  17  22
ATOM     22  N   UNL     1      38.385 -24.364  50.834  0.00  0.00    +0.000 N 
ATOM     23  C   UNL     1      37.928 -25.478  50.019  0.00  0.00    +0.000 C 
ATOM     24  C   UNL     1      39.461 -23.576  50.254  0.00  0.00    +0.000 C 
ENDBRANCH  17  22
ENDBRANCH  15  16
ENDBRANCH   1  15
TORSDOF 6
ENDMDL
MODEL 9
REMARK VINA RESULT:      -6.1     16.858     19.795
REMARK  Name = Trichostatin_A.pdbqt.pdb
REMARK  6 active torsions:
REMARK  status: ('A' for Active; 'I' for Inactive)
REMARK    1  A    between atoms: C_1  and  C_15
REMARK    2  A    between atoms: C_4  and  C_6
REMARK    3  A    between atoms: C_7  and  C_10
REMARK    4  A    between atoms: N_9  and  O_12
REMARK    5  A    between atoms: C_15  and  C_16
REMARK    6  A    between atoms: C_17  and  N_22
REMARK                            x       y       z     vdW  Elec       q    Type
REMARK                         _______ _______ _______ _____ _____    ______ ____
ROOT
ATOM      1  C   UNL     1      48.535 -53.975  72.271  0.00  0.00    +0.000 C 
ATOM      2  C   UNL     1      49.381 -53.432  73.405  0.00  0.00    +0.000 C 
ATOM      3  C   UNL     1      49.209 -54.793  71.333  0.00  0.00    +0.000 C 
ATOM      4  C   UNL     1      49.779 -55.540  70.446  0.00  0.00    +0.000 C 
ATOM      5  C   UNL     1      49.694 -57.030  70.573  0.00  0.00    +0.000 C 
ENDROOT
BRANCH   4   6
ATOM      6  C   UNL     1      50.302 -54.965  69.265  0.00  0.00    +0.000 C 
ATOM      7  C   UNL     1      50.743 -54.477  68.259  0.00  0.00    +0.000 C 
BRANCH   7  10
ATOM      8  O   UNL     1      52.418 -54.141  66.701  0.00  0.00    +0.000 OA
ATOM      9  N   UNL     1      50.436 -53.048  66.379  0.00  0.00    +0.000 N 
ATOM     10  C   UNL     1      51.274 -53.886  67.059  0.00  0.00    +0.000 C 
ATOM     11  H   UNL     1      49.491 -52.820  66.664  0.00  0.00    +0.000 HD
BRANCH   9  12
ATOM     12  O   UNL     1      50.927 -52.443  65.203  0.00  0.00    +0.000 OA
ATOM     13  H   UNL     1      50.114 -52.308  64.670  0.00  0.00    +0.000 HD
ENDBRANCH   9  12
ENDBRANCH   7  10
ENDBRANCH   4   6
BRANCH   1  15
ATOM     14  O   UNL     1      46.715 -52.463  72.485  0.00  0.00    +0.000 OA
ATOM     15  C   UNL     1      47.157 -53.486  71.962  0.00  0.00    +0.000 C 
BRANCH  15  16
ATOM     16  C   UNL     1      46.303 -54.221  71.007  0.00  0.00    +0.000 A 
ATOM     17  C   UNL     1      44.521 -55.589  69.285  0.00  0.00    +0.000 A 
ATOM     18  C   UNL     1      46.150 -53.807  69.688  0.00  0.00    +0.000 A 
ATOM     19  C   UNL     1      45.553 -55.294  71.483  0.00  0.00    +0.000 A 
ATOM     20  C   UNL     1      45.279 -54.494  68.841  0.00  0.00    +0.000 A 
ATOM     21  C   UNL     1      44.686 -55.972  70.626  0.00  0.00    +0.000 A 
BRANCH  17  22
ATOM     22  N   UNL     1      43.652 -56.292  68.414  0.00  0.00    +0.000 N 
ATOM     23  C   UNL     1      43.058 -55.635  67.261  0.00  0.00    +0.000 C 
ATOM     24  C   UNL     1      42.984 -57.509  68.844  0.00  0.00    +0.000 C 
ENDBRANCH  17  22
ENDBRANCH  15  16
ENDBRANCH   1  15
TORSDOF 6
ENDMDL
