MODEL 1
REMARK VINA RESULT:      -6.5      0.000      0.000
REMARK  Name = Trifluridine.pdbqt.pdb
REMARK  5 active torsions:
REMARK  status: ('A' for Active; 'I' for Inactive)
REMARK    1  A    between atoms: N_3  and  C1*_10
REMARK    2  A    between atoms: C_7  and  C_20
REMARK    3  A    between atoms: C4*_12  and  C5*_15
REMARK    4  A    between atoms: C3*_13  and  O3*_18
REMARK    5  A    between atoms: C5*_15  and  O5*_16
REMARK                            x       y       z     vdW  Elec       q    Type
REMARK                         _______ _______ _______ _____ _____    ______ ____
ROOT
ATOM      1  O   UNL     1      48.880 -40.379  47.460  0.00  0.00    +0.000 OA
ATOM      2  O   UNL     1      48.720 -35.964  48.703  0.00  0.00    +0.000 OA
ATOM      3  N   UNL     1      48.504 -39.878  49.745  0.00  0.00    +0.000 N 
ATOM      4  N   UNL     1      48.781 -38.189  48.142  0.00  0.00    +0.000 N 
ATOM      5  C   UNL     1      48.375 -38.829  50.580  0.00  0.00    +0.000 A 
ATOM      6  C   UNL     1      48.731 -39.583  48.381  0.00  0.00    +0.000 A 
ATOM      7  C   UNL     1      48.409 -37.543  50.460  0.00  0.00    +0.000 A 
ATOM      8  C   UNL     1      48.646 -37.134  49.053  0.00  0.00    +0.000 A 
ATOM      9  H   UNL     1      48.943 -37.925  47.181  0.00  0.00    +0.000 HD
ENDROOT
BRANCH   3  10
ATOM     10  C1* UNL     1      48.419 -41.144  50.248  0.00  0.00    +0.000 A 
ATOM     11  O4* UNL     1      49.158 -42.207  49.717  0.00  0.00    +0.000 OA
ATOM     12  C4* UNL     1      48.810 -43.351  50.447  0.00  0.00    +0.000 A 
ATOM     13  C3* UNL     1      47.840 -42.992  51.451  0.00  0.00    +0.000 A 
ATOM     14  C2* UNL     1      47.606 -41.613  51.299  0.00  0.00    +0.000 A 
BRANCH  13  15
ATOM     15  O3* UNL     1      46.897 -43.887  51.870  0.00  0.00    +0.000 OA
ATOM     16  H3* UNL     1      46.193 -43.443  52.373  0.00  0.00    +0.000 HD
ENDBRANCH  13  15
BRANCH  12  17
ATOM     17  C5* UNL     1      49.202 -44.646  50.055  0.00  0.00    +0.000 C 
BRANCH  17  18
ATOM     18  O5* UNL     1      49.570 -45.870  49.689  0.00  0.00    +0.000 OA
ATOM     19  H5* UNL     1      50.525 -45.987  49.823  0.00  0.00    +0.000 HD
ENDBRANCH  17  18
ENDBRANCH  12  17
ENDBRANCH   3  10
BRANCH   7  20
ATOM     20  C   UNL     1      48.278 -36.494  51.481  0.00  0.00    +0.000 C 
ATOM     21  F   UNL     1      47.279 -35.620  51.203  0.00  0.00    +0.000 F 
ATOM     22  F   UNL     1      47.991 -37.017  52.705  0.00  0.00    +0.000 F 
ATOM     23  F   UNL     1      49.417 -35.775  51.636  0.00  0.00    +0.000 F 
ENDBRANCH   7  20
TORSDOF 5
ENDMDL
MODEL 2
REMARK VINA RESULT:      -6.4      3.723      6.648
REMARK  Name = Trifluridine.pdbqt.pdb
REMARK  5 active torsions:
REMARK  status: ('A' for Active; 'I' for Inactive)
REMARK    1  A    between atoms: N_3  and  C1*_10
REMARK    2  A    between atoms: C_7  and  C_20
REMARK    3  A    between atoms: C4*_12  and  C5*_15
REMARK    4  A    between atoms: C3*_13  and  O3*_18
REMARK    5  A    between atoms: C5*_15  and  O5*_16
REMARK                            x       y       z     vdW  Elec       q    Type
REMARK                         _______ _______ _______ _____ _____    ______ ____
ROOT
ATOM      1  O   UNL     1      47.499 -41.683  47.564  0.00  0.00    +0.000 OA
ATOM      2  O   UNL     1      47.145 -45.754  49.652  0.00  0.00    +0.000 OA
ATOM      3  N   UNL     1      47.875 -41.772  49.901  0.00  0.00    +0.000 N 
ATOM      4  N   UNL     1      47.345 -43.692  48.664  0.00  0.00    +0.000 N 
ATOM      5  C   UNL     1      47.896 -42.647  50.926  0.00  0.00    +0.000 A 
ATOM      6  C   UNL     1      47.574 -42.296  48.623  0.00  0.00    +0.000 A 
ATOM      7  C   UNL     1      47.700 -43.916  51.062  0.00  0.00    +0.000 A 
ATOM      8  C   UNL     1      47.374 -44.558  49.764  0.00  0.00    +0.000 A 
ATOM      9  H   UNL     1      47.124 -44.116  47.774  0.00  0.00    +0.000 HD
ENDROOT
BRANCH   3  10
ATOM     10  C1* UNL     1      48.131 -40.454  50.145  0.00  0.00    +0.000 A 
ATOM     11  O4* UNL     1      47.221 -39.632  50.818  0.00  0.00    +0.000 OA
ATOM     12  C4* UNL     1      47.788 -38.352  50.869  0.00  0.00    +0.000 A 
ATOM     13  C3* UNL     1      49.074 -38.380  50.218  0.00  0.00    +0.000 A 
ATOM     14  C2* UNL     1      49.260 -39.700  49.768  0.00  0.00    +0.000 A 
BRANCH  13  15
ATOM     15  O3* UNL     1      49.564 -37.276  49.580  0.00  0.00    +0.000 OA
ATOM     16  H3* UNL     1      49.567 -37.403  48.616  0.00  0.00    +0.000 HD
ENDBRANCH  13  15
BRANCH  12  17
ATOM     17  C5* UNL     1      47.062 -37.220  51.290  0.00  0.00    +0.000 C 
BRANCH  17  18
ATOM     18  O5* UNL     1      46.378 -36.154  51.693  0.00  0.00    +0.000 OA
ATOM     19  H5* UNL     1      45.424 -36.329  51.644  0.00  0.00    +0.000 HD
ENDBRANCH  17  18
ENDBRANCH  12  17
ENDBRANCH   3  10
BRANCH   7  20
ATOM     20  C   UNL     1      47.729 -44.754  52.269  0.00  0.00    +0.000 C 
ATOM     21  F   UNL     1      48.634 -45.760  52.183  0.00  0.00    +0.000 F 
ATOM     22  F   UNL     1      48.069 -44.034  53.373  0.00  0.00    +0.000 F 
ATOM     23  F   UNL     1      46.523 -45.313  52.542  0.00  0.00    +0.000 F 
ENDBRANCH   7  20
TORSDOF 5
ENDMDL
MODEL 3
REMARK VINA RESULT:      -6.4      4.093      6.980
REMARK  Name = Trifluridine.pdbqt.pdb
REMARK  5 active torsions:
REMARK  status: ('A' for Active; 'I' for Inactive)
REMARK    1  A    between atoms: N_3  and  C1*_10
REMARK    2  A    between atoms: C_7  and  C_20
REMARK    3  A    between atoms: C4*_12  and  C5*_15
REMARK    4  A    between atoms: C3*_13  and  O3*_18
REMARK    5  A    between atoms: C5*_15  and  O5*_16
REMARK                            x       y       z     vdW  Elec       q    Type
REMARK                         _______ _______ _______ _____ _____    ______ ____
ROOT
ATOM      1  O   UNL     1      46.918 -42.107  52.087  0.00  0.00    +0.000 OA
ATOM      2  O   UNL     1      48.861 -45.868  50.315  0.00  0.00    +0.000 OA
ATOM      3  N   UNL     1      48.475 -41.830  50.324  0.00  0.00    +0.000 N 
ATOM      4  N   UNL     1      47.917 -43.951  51.154  0.00  0.00    +0.000 N 
ATOM      5  C   UNL     1      49.272 -42.547  49.508  0.00  0.00    +0.000 A 
ATOM      6  C   UNL     1      47.700 -42.556  51.257  0.00  0.00    +0.000 A 
ATOM      7  C   UNL     1      49.538 -43.800  49.343  0.00  0.00    +0.000 A 
ATOM      8  C   UNL     1      48.768 -44.649  50.287  0.00  0.00    +0.000 A 
ATOM      9  H   UNL     1      47.387 -44.516  51.802  0.00  0.00    +0.000 HD
ENDROOT
BRANCH   3  10
ATOM     10  C1* UNL     1      48.461 -40.469  50.214  0.00  0.00    +0.000 A 
ATOM     11  O4* UNL     1      47.763 -39.658  51.115  0.00  0.00    +0.000 OA
ATOM     12  C4* UNL     1      47.940 -38.334  50.694  0.00  0.00    +0.000 A 
ATOM     13  C3* UNL     1      48.765 -38.323  49.513  0.00  0.00    +0.000 A 
ATOM     14  C2* UNL     1      49.069 -39.666  49.229  0.00  0.00    +0.000 A 
BRANCH  13  15
ATOM     15  O3* UNL     1      48.619 -37.353  48.562  0.00  0.00    +0.000 OA
ATOM     16  H3* UNL     1      49.104 -37.583  47.751  0.00  0.00    +0.000 HD
ENDBRANCH  13  15
BRANCH  12  17
ATOM     17  C5* UNL     1      47.209 -37.262  51.243  0.00  0.00    +0.000 C 
BRANCH  17  18
ATOM     18  O5* UNL     1      46.517 -36.254  51.764  0.00  0.00    +0.000 OA
ATOM     19  H5* UNL     1      46.408 -36.381  52.722  0.00  0.00    +0.000 HD
ENDBRANCH  17  18
ENDBRANCH  12  17
ENDBRANCH   3  10
BRANCH   7  20
ATOM     20  C   UNL     1      50.469 -44.456  48.415  0.00  0.00    +0.000 C 
ATOM     21  F   UNL     1      49.946 -45.575  47.855  0.00  0.00    +0.000 F 
ATOM     22  F   UNL     1      50.805 -43.639  47.379  0.00  0.00    +0.000 F 
ATOM     23  F   UNL     1      51.636 -44.806  49.011  0.00  0.00    +0.000 F 
ENDBRANCH   7  20
TORSDOF 5
ENDMDL
MODEL 4
REMARK VINA RESULT:      -5.9      3.350      7.363
REMARK  Name = Trifluridine.pdbqt.pdb
REMARK  5 active torsions:
REMARK  status: ('A' for Active; 'I' for Inactive)
REMARK    1  A    between atoms: N_3  and  C1*_10
REMARK    2  A    between atoms: C_7  and  C_20
REMARK    3  A    between atoms: C4*_12  and  C5*_15
REMARK    4  A    between atoms: C3*_13  and  O3*_18
REMARK    5  A    between atoms: C5*_15  and  O5*_16
REMARK                            x       y       z     vdW  Elec       q    Type
REMARK                         _______ _______ _______ _____ _____    ______ ____
ROOT
ATOM      1  O   UNL     1      49.593 -38.208  45.861  0.00  0.00    +0.000 OA
ATOM      2  O   UNL     1      49.203 -39.615  50.212  0.00  0.00    +0.000 OA
ATOM      3  N   UNL     1      49.319 -36.563  47.543  0.00  0.00    +0.000 N 
ATOM      4  N   UNL     1      49.401 -38.849  48.057  0.00  0.00    +0.000 N 
ATOM      5  C   UNL     1      49.169 -36.442  48.876  0.00  0.00    +0.000 A 
ATOM      6  C   UNL     1      49.451 -37.875  47.032  0.00  0.00    +0.000 A 
ATOM      7  C   UNL     1      49.107 -37.258  49.876  0.00  0.00    +0.000 A 
ATOM      8  C   UNL     1      49.237 -38.670  49.436  0.00  0.00    +0.000 A 
ATOM      9  H   UNL     1      49.490 -39.805  47.743  0.00  0.00    +0.000 HD
ENDROOT
BRANCH   3  10
ATOM     10  C1* UNL     1      49.327 -35.438  46.769  0.00  0.00    +0.000 A 
ATOM     11  O4* UNL     1      48.194 -35.009  46.069  0.00  0.00    +0.000 OA
ATOM     12  C4* UNL     1      48.561 -33.853  45.368  0.00  0.00    +0.000 A 
ATOM     13  C3* UNL     1      49.945 -33.557  45.641  0.00  0.00    +0.000 A 
ATOM     14  C2* UNL     1      50.401 -34.565  46.509  0.00  0.00    +0.000 A 
BRANCH  13  15
ATOM     15  O3* UNL     1      50.728 -32.935  44.709  0.00  0.00    +0.000 OA
ATOM     16  H3* UNL     1      50.670 -33.385  43.848  0.00  0.00    +0.000 HD
ENDBRANCH  13  15
BRANCH  12  17
ATOM     17  C5* UNL     1      47.732 -33.266  44.392  0.00  0.00    +0.000 C 
BRANCH  17  18
ATOM     18  O5* UNL     1      46.953 -32.714  43.468  0.00  0.00    +0.000 OA
ATOM     19  H5* UNL     1      46.803 -33.338  42.738  0.00  0.00    +0.000 HD
ENDBRANCH  17  18
ENDBRANCH  12  17
ENDBRANCH   3  10
BRANCH   7  20
ATOM     20  C   UNL     1      48.910 -36.987  51.307  0.00  0.00    +0.000 C 
ATOM     21  F   UNL     1      49.951 -37.413  52.066  0.00  0.00    +0.000 F 
ATOM     22  F   UNL     1      48.786 -35.654  51.554  0.00  0.00    +0.000 F 
ATOM     23  F   UNL     1      47.785 -37.566  51.795  0.00  0.00    +0.000 F 
ENDBRANCH   7  20
TORSDOF 5
ENDMDL
MODEL 5
REMARK VINA RESULT:      -5.9      5.814      7.763
REMARK  Name = Trifluridine.pdbqt.pdb
REMARK  5 active torsions:
REMARK  status: ('A' for Active; 'I' for Inactive)
REMARK    1  A    between atoms: N_3  and  C1*_10
REMARK    2  A    between atoms: C_7  and  C_20
REMARK    3  A    between atoms: C4*_12  and  C5*_15
REMARK    4  A    between atoms: C3*_13  and  O3*_18
REMARK    5  A    between atoms: C5*_15  and  O5*_16
REMARK                            x       y       z     vdW  Elec       q    Type
REMARK                         _______ _______ _______ _____ _____    ______ ____
ROOT
ATOM      1  O   UNL     1      48.459 -46.459  47.275  0.00  0.00    +0.000 OA
ATOM      2  O   UNL     1      52.761 -46.530  45.677  0.00  0.00    +0.000 OA
ATOM      3  N   UNL     1      50.175 -45.593  48.659  0.00  0.00    +0.000 N 
ATOM      4  N   UNL     1      50.630 -46.459  46.527  0.00  0.00    +0.000 N 
ATOM      5  C   UNL     1      51.507 -45.389  48.673  0.00  0.00    +0.000 A 
ATOM      6  C   UNL     1      49.633 -46.184  47.494  0.00  0.00    +0.000 A 
ATOM      7  C   UNL     1      52.483 -45.606  47.856  0.00  0.00    +0.000 A 
ATOM      8  C   UNL     1      52.010 -46.231  46.596  0.00  0.00    +0.000 A 
ATOM      9  H   UNL     1      50.293 -46.885  45.675  0.00  0.00    +0.000 HD
ENDROOT
BRANCH   3  10
ATOM     10  C1* UNL     1      49.434 -45.234  49.748  0.00  0.00    +0.000 A 
ATOM     11  O4* UNL     1      49.079 -43.903  49.998  0.00  0.00    +0.000 OA
ATOM     12  C4* UNL     1      48.354 -43.894  51.197  0.00  0.00    +0.000 A 
ATOM     13  C3* UNL     1      48.256 -45.242  51.698  0.00  0.00    +0.000 A 
ATOM     14  C2* UNL     1      48.945 -46.056  50.781  0.00  0.00    +0.000 A 
BRANCH  13  15
ATOM     15  O3* UNL     1      48.183 -45.490  53.039  0.00  0.00    +0.000 OA
ATOM     16  H3* UNL     1      47.258 -45.594  53.325  0.00  0.00    +0.000 HD
ENDBRANCH  13  15
BRANCH  12  17
ATOM     17  C5* UNL     1      48.014 -42.702  51.865  0.00  0.00    +0.000 C 
BRANCH  17  18
ATOM     18  O5* UNL     1      47.694 -41.579  52.500  0.00  0.00    +0.000 OA
ATOM     19  H5* UNL     1      47.742 -40.823  51.891  0.00  0.00    +0.000 HD
ENDBRANCH  17  18
ENDBRANCH  12  17
ENDBRANCH   3  10
BRANCH   7  20
ATOM     20  C   UNL     1      53.922 -45.354  48.013  0.00  0.00    +0.000 C 
ATOM     21  F   UNL     1      54.446 -44.657  46.974  0.00  0.00    +0.000 F 
ATOM     22  F   UNL     1      54.185 -44.619  49.129  0.00  0.00    +0.000 F 
ATOM     23  F   UNL     1      54.640 -46.498  48.140  0.00  0.00    +0.000 F 
ENDBRANCH   7  20
TORSDOF 5
ENDMDL
MODEL 6
REMARK VINA RESULT:      -5.7     16.508     17.239
REMARK  Name = Trifluridine.pdbqt.pdb
REMARK  5 active torsions:
REMARK  status: ('A' for Active; 'I' for Inactive)
REMARK    1  A    between atoms: N_3  and  C1*_10
REMARK    2  A    between atoms: C_7  and  C_20
REMARK    3  A    between atoms: C4*_12  and  C5*_15
REMARK    4  A    between atoms: C3*_13  and  O3*_18
REMARK    5  A    between atoms: C5*_15  and  O5*_16
REMARK                            x       y       z     vdW  Elec       q    Type
REMARK                         _______ _______ _______ _____ _____    ______ ____
ROOT
ATOM      1  O   UNL     1      58.586 -48.988  62.679  0.00  0.00    +0.000 OA
ATOM      2  O   UNL     1      60.697 -45.048  61.638  0.00  0.00    +0.000 OA
ATOM      3  N   UNL     1      59.140 -48.586  60.411  0.00  0.00    +0.000 N 
ATOM      4  N   UNL     1      59.651 -47.039  62.097  0.00  0.00    +0.000 N 
ATOM      5  C   UNL     1      59.722 -47.662  59.622  0.00  0.00    +0.000 A 
ATOM      6  C   UNL     1      59.072 -48.294  61.793  0.00  0.00    +0.000 A 
ATOM      7  C   UNL     1      60.266 -46.504  59.802  0.00  0.00    +0.000 A 
ATOM      8  C   UNL     1      60.240 -46.108  61.233  0.00  0.00    +0.000 A 
ATOM      9  H   UNL     1      59.626 -46.782  63.074  0.00  0.00    +0.000 HD
ENDROOT
BRANCH   3  10
ATOM     10  C1* UNL     1      58.650 -49.729  59.847  0.00  0.00    +0.000 A 
ATOM     11  O4* UNL     1      57.874 -50.642  60.571  0.00  0.00    +0.000 OA
ATOM     12  C4* UNL     1      57.569 -51.697  59.702  0.00  0.00    +0.000 A 
ATOM     13  C3* UNL     1      58.163 -51.434  58.415  0.00  0.00    +0.000 A 
ATOM     14  C2* UNL     1      58.838 -50.206  58.535  0.00  0.00    +0.000 A 
BRANCH  13  15
ATOM     15  O3* UNL     1      58.569 -52.457  57.606  0.00  0.00    +0.000 OA
ATOM     16  H3* UNL     1      59.424 -52.816  57.901  0.00  0.00    +0.000 HD
ENDBRANCH  13  15
BRANCH  12  17
ATOM     17  C5* UNL     1      56.978 -52.895  60.147  0.00  0.00    +0.000 C 
BRANCH  17  18
ATOM     18  O5* UNL     1      56.418 -54.024  60.572  0.00  0.00    +0.000 OA
ATOM     19  H5* UNL     1      57.041 -54.764  60.477  0.00  0.00    +0.000 HD
ENDBRANCH  17  18
ENDBRANCH  12  17
ENDBRANCH   3  10
BRANCH   7  20
ATOM     20  C   UNL     1      60.849 -45.571  58.829  0.00  0.00    +0.000 C 
ATOM     21  F   UNL     1      62.092 -45.160  59.182  0.00  0.00    +0.000 F 
ATOM     22  F   UNL     1      60.976 -46.142  57.599  0.00  0.00    +0.000 F 
ATOM     23  F   UNL     1      60.088 -44.462  58.651  0.00  0.00    +0.000 F 
ENDBRANCH   7  20
TORSDOF 5
ENDMDL
MODEL 7
REMARK VINA RESULT:      -5.6     21.711     23.453
REMARK  Name = Trifluridine.pdbqt.pdb
REMARK  5 active torsions:
REMARK  status: ('A' for Active; 'I' for Inactive)
REMARK    1  A    between atoms: N_3  and  C1*_10
REMARK    2  A    between atoms: C_7  and  C_20
REMARK    3  A    between atoms: C4*_12  and  C5*_15
REMARK    4  A    between atoms: C3*_13  and  O3*_18
REMARK    5  A    between atoms: C5*_15  and  O5*_16
REMARK                            x       y       z     vdW  Elec       q    Type
REMARK                         _______ _______ _______ _____ _____    ______ ____
ROOT
ATOM      1  O   UNL     1      46.969 -53.863  70.621  0.00  0.00    +0.000 OA
ATOM      2  O   UNL     1      43.023 -54.682  68.425  0.00  0.00    +0.000 OA
ATOM      3  N   UNL     1      47.076 -54.539  68.354  0.00  0.00    +0.000 N 
ATOM      4  N   UNL     1      45.029 -54.279  69.467  0.00  0.00    +0.000 N 
ATOM      5  C   UNL     1      46.278 -54.879  67.323  0.00  0.00    +0.000 A 
ATOM      6  C   UNL     1      46.438 -54.196  69.568  0.00  0.00    +0.000 A 
ATOM      7  C   UNL     1      45.004 -54.987  67.137  0.00  0.00    +0.000 A 
ATOM      8  C   UNL     1      44.244 -54.646  68.366  0.00  0.00    +0.000 A 
ATOM      9  H   UNL     1      44.525 -54.045  70.311  0.00  0.00    +0.000 HD
ENDROOT
BRANCH   3  10
ATOM     10  C1* UNL     1      48.430 -54.549  68.179  0.00  0.00    +0.000 A 
ATOM     11  O4* UNL     1      49.102 -53.511  67.523  0.00  0.00    +0.000 OA
ATOM     12  C4* UNL     1      50.459 -53.855  67.499  0.00  0.00    +0.000 A 
ATOM     13  C3* UNL     1      50.634 -55.128  68.153  0.00  0.00    +0.000 A 
ATOM     14  C2* UNL     1      49.352 -55.543  68.559  0.00  0.00    +0.000 A 
BRANCH  13  15
ATOM     15  O3* UNL     1      51.632 -55.981  67.777  0.00  0.00    +0.000 OA
ATOM     16  H3* UNL     1      52.464 -55.769  68.235  0.00  0.00    +0.000 HD
ENDBRANCH  13  15
BRANCH  12  17
ATOM     17  C5* UNL     1      51.406 -53.144  66.737  0.00  0.00    +0.000 C 
BRANCH  17  18
ATOM     18  O5* UNL     1      52.300 -52.469  66.021  0.00  0.00    +0.000 OA
ATOM     19  H5* UNL     1      52.921 -53.083  65.594  0.00  0.00    +0.000 HD
ENDBRANCH  17  18
ENDBRANCH  12  17
ENDBRANCH   3  10
BRANCH   7  20
ATOM     20  C   UNL     1      44.253 -55.403  65.945  0.00  0.00    +0.000 C 
ATOM     21  F   UNL     1      43.797 -54.350  65.222  0.00  0.00    +0.000 F 
ATOM     22  F   UNL     1      45.026 -56.136  65.096  0.00  0.00    +0.000 F 
ATOM     23  F   UNL     1      43.186 -56.183  66.249  0.00  0.00    +0.000 F 
ENDBRANCH   7  20
TORSDOF 5
ENDMDL
MODEL 8
REMARK VINA RESULT:      -5.6     22.636     24.112
REMARK  Name = Trifluridine.pdbqt.pdb
REMARK  5 active torsions:
REMARK  status: ('A' for Active; 'I' for Inactive)
REMARK    1  A    between atoms: N_3  and  C1*_10
REMARK    2  A    between atoms: C_7  and  C_20
REMARK    3  A    between atoms: C4*_12  and  C5*_15
REMARK    4  A    between atoms: C3*_13  and  O3*_18
REMARK    5  A    between atoms: C5*_15  and  O5*_16
REMARK                            x       y       z     vdW  Elec       q    Type
REMARK                         _______ _______ _______ _____ _____    ______ ____
ROOT
ATOM      1  O   UNL     1      47.661 -57.285  70.333  0.00  0.00    +0.000 OA
ATOM      2  O   UNL     1      51.683 -55.803  68.695  0.00  0.00    +0.000 OA
ATOM      3  N   UNL     1      47.672 -55.302  69.038  0.00  0.00    +0.000 N 
ATOM      4  N   UNL     1      49.641 -56.498  69.479  0.00  0.00    +0.000 N 
ATOM      5  C   UNL     1      48.516 -54.493  68.367  0.00  0.00    +0.000 A 
ATOM      6  C   UNL     1      48.240 -56.430  69.674  0.00  0.00    +0.000 A 
ATOM      7  C   UNL     1      49.788 -54.470  68.140  0.00  0.00    +0.000 A 
ATOM      8  C   UNL     1      50.476 -55.622  68.774  0.00  0.00    +0.000 A 
ATOM      9  H   UNL     1      50.096 -57.287  69.916  0.00  0.00    +0.000 HD
ENDROOT
BRANCH   3  10
ATOM     10  C1* UNL     1      46.343 -54.995  69.073  0.00  0.00    +0.000 A 
ATOM     11  O4* UNL     1      45.462 -55.389  68.060  0.00  0.00    +0.000 OA
ATOM     12  C4* UNL     1      44.199 -54.888  68.400  0.00  0.00    +0.000 A 
ATOM     13  C3* UNL     1      44.297 -54.172  69.648  0.00  0.00    +0.000 A 
ATOM     14  C2* UNL     1      45.645 -54.246  70.041  0.00  0.00    +0.000 A 
BRANCH  13  15
ATOM     15  O3* UNL     1      43.476 -53.114  69.917  0.00  0.00    +0.000 OA
ATOM     16  H3* UNL     1      43.587 -52.408  69.256  0.00  0.00    +0.000 HD
ENDBRANCH  13  15
BRANCH  12  17
ATOM     17  C5* UNL     1      43.110 -54.913  67.507  0.00  0.00    +0.000 C 
BRANCH  17  18
ATOM     18  O5* UNL     1      42.080 -54.941  66.667  0.00  0.00    +0.000 OA
ATOM     19  H5* UNL     1      42.008 -55.817  66.253  0.00  0.00    +0.000 HD
ENDBRANCH  17  18
ENDBRANCH  12  17
ENDBRANCH   3  10
BRANCH   7  20
ATOM     20  C   UNL     1      50.598 -53.493  67.400  0.00  0.00    +0.000 C 
ATOM     21  F   UNL     1      51.346 -54.068  66.425  0.00  0.00    +0.000 F 
ATOM     22  F   UNL     1      49.821 -52.563  66.779  0.00  0.00    +0.000 F 
ATOM     23  F   UNL     1      51.441 -52.800  68.206  0.00  0.00    +0.000 F 
ENDBRANCH   7  20
TORSDOF 5
ENDMDL
MODEL 9
REMARK VINA RESULT:      -5.6     15.290     17.693
REMARK  Name = Trifluridine.pdbqt.pdb
REMARK  5 active torsions:
REMARK  status: ('A' for Active; 'I' for Inactive)
REMARK    1  A    between atoms: N_3  and  C1*_10
REMARK    2  A    between atoms: C_7  and  C_20
REMARK    3  A    between atoms: C4*_12  and  C5*_15
REMARK    4  A    between atoms: C3*_13  and  O3*_18
REMARK    5  A    between atoms: C5*_15  and  O5*_16
REMARK                            x       y       z     vdW  Elec       q    Type
REMARK                         _______ _______ _______ _____ _____    ______ ____
ROOT
ATOM      1  O   UNL     1      36.528 -25.501  55.873  0.00  0.00    +0.000 OA
ATOM      2  O   UNL     1      40.814 -26.619  54.675  0.00  0.00    +0.000 OA
ATOM      3  N   UNL     1      37.042 -27.795  55.591  0.00  0.00    +0.000 N 
ATOM      4  N   UNL     1      38.657 -26.123  55.283  0.00  0.00    +0.000 N 
ATOM      5  C   UNL     1      38.069 -28.607  55.270  0.00  0.00    +0.000 A 
ATOM      6  C   UNL     1      37.310 -26.407  55.613  0.00  0.00    +0.000 A 
ATOM      7  C   UNL     1      39.311 -28.446  54.954  0.00  0.00    +0.000 A 
ATOM      8  C   UNL     1      39.689 -27.010  54.949  0.00  0.00    +0.000 A 
ATOM      9  H   UNL     1      38.900 -25.143  55.283  0.00  0.00    +0.000 HD
ENDROOT
BRANCH   3  10
ATOM     10  C1* UNL     1      35.821 -28.342  55.864  0.00  0.00    +0.000 A 
ATOM     11  O4* UNL     1      34.912 -28.672  54.853  0.00  0.00    +0.000 OA
ATOM     12  C4* UNL     1      33.768 -29.178  55.484  0.00  0.00    +0.000 A 
ATOM     13  C3* UNL     1      33.972 -29.164  56.911  0.00  0.00    +0.000 A 
ATOM     14  C2* UNL     1      35.256 -28.629  57.122  0.00  0.00    +0.000 A 
BRANCH  13  15
ATOM     15  O3* UNL     1      32.922 -28.999  57.770  0.00  0.00    +0.000 OA
ATOM     16  H3* UNL     1      33.233 -28.899  58.686  0.00  0.00    +0.000 HD
ENDBRANCH  13  15
BRANCH  12  17
ATOM     17  C5* UNL     1      32.566 -29.418  54.790  0.00  0.00    +0.000 C 
BRANCH  17  18
ATOM     18  O5* UNL     1      31.431 -29.649  54.138  0.00  0.00    +0.000 OA
ATOM     19  H5* UNL     1      31.618 -30.010  53.255  0.00  0.00    +0.000 HD
ENDBRANCH  17  18
ENDBRANCH  12  17
ENDBRANCH   3  10
BRANCH   7  20
ATOM     20  C   UNL     1      40.332 -29.438  54.594  0.00  0.00    +0.000 C 
ATOM     21  F   UNL     1      40.259 -29.813  53.292  0.00  0.00    +0.000 F 
ATOM     22  F   UNL     1      41.591 -28.952  54.775  0.00  0.00    +0.000 F 
ATOM     23  F   UNL     1      40.252 -30.563  55.347  0.00  0.00    +0.000 F 
ENDBRANCH   7  20
TORSDOF 5
ENDMDL
