MODEL 1
REMARK VINA RESULT:      -8.3      0.000      0.000
REMARK  Name = Troglitazone.pdbqt.pdb
REMARK  4 active torsions:
REMARK  status: ('A' for Active; 'I' for Inactive)
REMARK    1  A    between atoms: C_1  and  O_2
REMARK    2  A    between atoms: C_1  and  C_18
REMARK    3  A    between atoms: O_2  and  C_3
REMARK    4  A    between atoms: C_26  and  O_32
REMARK                            x       y       z     vdW  Elec       q    Type
REMARK                         _______ _______ _______ _____ _____    ______ ____
ROOT
ATOM      1  C   UNL     1      48.159 -49.123  50.649  0.00  0.00    +0.000 C 
ENDROOT
BRANCH   1   2
ATOM      2  C   UNL     1      49.145 -48.034  50.542  0.00  0.00    +0.000 C 
ATOM      3  O   UNL     1      48.487 -46.805  51.018  0.00  0.00    +0.000 OA
ATOM      4  C   UNL     1      48.759 -45.532  50.502  0.00  0.00    +0.000 A 
ATOM      5  C   UNL     1      49.341 -45.300  49.220  0.00  0.00    +0.000 A 
ATOM      6  C   UNL     1      48.371 -44.429  51.291  0.00  0.00    +0.000 A 
ATOM      7  C   UNL     1      49.675 -46.480  48.507  0.00  0.00    +0.000 C 
ATOM      8  C   UNL     1      49.561 -44.003  48.741  0.00  0.00    +0.000 A 
ATOM      9  C   UNL     1      49.567 -47.815  49.164  0.00  0.00    +0.000 C 
ATOM     10  C   UNL     1      49.188 -42.913  49.543  0.00  0.00    +0.000 A 
ATOM     11  C   UNL     1      50.180 -43.785  47.377  0.00  0.00    +0.000 C 
ATOM     12  C   UNL     1      48.596 -43.121  50.807  0.00  0.00    +0.000 A 
ATOM     13  C   UNL     1      48.217 -41.860  51.584  0.00  0.00    +0.000 C 
ATOM     14  C   UNL     1      47.704 -44.687  52.636  0.00  0.00    +0.000 C 
ATOM     15  C   UNL     1      50.364 -48.276  51.467  0.00  0.00    +0.000 C 
BRANCH  10  16
ATOM     16  O   UNL     1      49.393 -41.619  49.092  0.00  0.00    +0.000 OA
ATOM     17  H   UNL     1      48.919 -41.006  49.695  0.00  0.00    +0.000 HD
ENDBRANCH  10  16
ENDBRANCH   1   2
BRANCH   1  18
ATOM     18  O   UNL     1      47.265 -50.107  50.756  0.00  0.00    +0.000 OA
BRANCH  18  19
ATOM     19  C   UNL     1      47.259 -50.746  51.971  0.00  0.00    +0.000 C 
ATOM     20  C   UNL     1      46.318 -50.521  52.978  0.00  0.00    +0.000 C 
ATOM     21  C   UNL     1      46.391 -51.224  54.177  0.00  0.00    +0.000 C 
ATOM     22  C   UNL     1      47.407 -52.156  54.372  0.00  0.00    +0.000 C 
ATOM     23  C   UNL     1      48.350 -52.385  53.372  0.00  0.00    +0.000 C 
ATOM     24  C   UNL     1      48.274 -51.680  52.172  0.00  0.00    +0.000 C 
ATOM     25  C   UNL     1      47.483 -52.878  55.598  0.00  0.00    +0.000 C 
ATOM     26  C   UNL     1      47.569 -53.591  56.814  0.00  0.00    +0.000 C 
ATOM     27  S   UNL     1      46.222 -54.214  57.689  0.00  0.00    +0.000 S 
ATOM     28  C   UNL     1      47.255 -54.886  58.934  0.00  0.00    +0.000 C 
ATOM     29  O   UNL     1      46.850 -55.506  59.903  0.00  0.00    +0.000 OA
ATOM     30  N   UNL     1      48.554 -54.615  58.651  0.00  0.00    +0.000 N 
ATOM     31  C   UNL     1      48.830 -53.920  57.511  0.00  0.00    +0.000 C 
ATOM     32  H   UNL     1      49.292 -54.931  59.260  0.00  0.00    +0.000 HD
ATOM     33  O   UNL     1      49.949 -53.622  57.129  0.00  0.00    +0.000 OA
ENDBRANCH  18  19
ENDBRANCH   1  18
TORSDOF 4
ENDMDL
MODEL 2
REMARK VINA RESULT:      -8.1      5.546     11.490
REMARK  Name = Troglitazone.pdbqt.pdb
REMARK  4 active torsions:
REMARK  status: ('A' for Active; 'I' for Inactive)
REMARK    1  A    between atoms: C_1  and  O_2
REMARK    2  A    between atoms: C_1  and  C_18
REMARK    3  A    between atoms: O_2  and  C_3
REMARK    4  A    between atoms: C_26  and  O_32
REMARK                            x       y       z     vdW  Elec       q    Type
REMARK                         _______ _______ _______ _____ _____    ______ ____
ROOT
ATOM      1  C   UNL     1      47.805 -47.397  51.371  0.00  0.00    +0.000 C 
ENDROOT
BRANCH   1   2
ATOM      2  C   UNL     1      46.475 -47.808  51.853  0.00  0.00    +0.000 C 
ATOM      3  O   UNL     1      46.643 -49.101  52.539  0.00  0.00    +0.000 OA
ATOM      4  C   UNL     1      45.670 -50.107  52.541  0.00  0.00    +0.000 A 
ATOM      5  C   UNL     1      44.626 -50.208  51.574  0.00  0.00    +0.000 A 
ATOM      6  C   UNL     1      45.785 -51.102  53.535  0.00  0.00    +0.000 A 
ATOM      7  C   UNL     1      44.616 -49.165  50.612  0.00  0.00    +0.000 C 
ATOM      8  C   UNL     1      43.698 -51.256  51.607  0.00  0.00    +0.000 A 
ATOM      9  C   UNL     1      45.534 -47.997  50.757  0.00  0.00    +0.000 C 
ATOM     10  C   UNL     1      43.811 -52.230  52.611  0.00  0.00    +0.000 A 
ATOM     11  C   UNL     1      42.600 -51.339  50.568  0.00  0.00    +0.000 C 
ATOM     12  C   UNL     1      44.846 -52.157  53.568  0.00  0.00    +0.000 A 
ATOM     13  C   UNL     1      44.880 -53.281  54.603  0.00  0.00    +0.000 C 
ATOM     14  C   UNL     1      46.933 -51.013  54.533  0.00  0.00    +0.000 C 
ATOM     15  C   UNL     1      45.917 -46.815  52.903  0.00  0.00    +0.000 C 
BRANCH  10  16
ATOM     16  O   UNL     1      42.907 -53.278  52.665  0.00  0.00    +0.000 OA
ATOM     17  H   UNL     1      42.055 -52.967  52.288  0.00  0.00    +0.000 HD
ENDBRANCH  10  16
ENDBRANCH   1   2
BRANCH   1  18
ATOM     18  O   UNL     1      49.005 -47.015  50.930  0.00  0.00    +0.000 OA
BRANCH  18  19
ATOM     19  C   UNL     1      49.073 -45.709  50.514  0.00  0.00    +0.000 C 
ATOM     20  C   UNL     1      48.325 -44.665  51.061  0.00  0.00    +0.000 C 
ATOM     21  C   UNL     1      48.470 -43.367  50.575  0.00  0.00    +0.000 C 
ATOM     22  C   UNL     1      49.364 -43.113  49.539  0.00  0.00    +0.000 C 
ATOM     23  C   UNL     1      50.114 -44.150  48.988  0.00  0.00    +0.000 C 
ATOM     24  C   UNL     1      49.968 -45.447  49.477  0.00  0.00    +0.000 C 
ATOM     25  C   UNL     1      49.515 -41.787  49.041  0.00  0.00    +0.000 C 
ATOM     26  C   UNL     1      49.664 -40.475  48.537  0.00  0.00    +0.000 C 
ATOM     27  S   UNL     1      49.677 -39.046  49.498  0.00  0.00    +0.000 S 
ATOM     28  C   UNL     1      49.904 -38.023  48.094  0.00  0.00    +0.000 C 
ATOM     29  O   UNL     1      50.005 -36.808  48.138  0.00  0.00    +0.000 OA
ATOM     30  N   UNL     1      49.954 -38.784  46.972  0.00  0.00    +0.000 N 
ATOM     31  C   UNL     1      49.840 -40.136  47.110  0.00  0.00    +0.000 C 
ATOM     32  H   UNL     1      50.086 -38.362  46.067  0.00  0.00    +0.000 HD
ATOM     33  O   UNL     1      49.883 -40.937  46.192  0.00  0.00    +0.000 OA
ENDBRANCH  18  19
ENDBRANCH   1  18
TORSDOF 4
ENDMDL
MODEL 3
REMARK VINA RESULT:      -8.0      6.039     12.088
REMARK  Name = Troglitazone.pdbqt.pdb
REMARK  4 active torsions:
REMARK  status: ('A' for Active; 'I' for Inactive)
REMARK    1  A    between atoms: C_1  and  O_2
REMARK    2  A    between atoms: C_1  and  C_18
REMARK    3  A    between atoms: O_2  and  C_3
REMARK    4  A    between atoms: C_26  and  O_32
REMARK                            x       y       z     vdW  Elec       q    Type
REMARK                         _______ _______ _______ _____ _____    ______ ____
ROOT
ATOM      1  C   UNL     1      48.169 -45.343  51.718  0.00  0.00    +0.000 C 
ENDROOT
BRANCH   1   2
ATOM      2  C   UNL     1      48.163 -46.678  51.098  0.00  0.00    +0.000 C 
ATOM      3  O   UNL     1      46.858 -47.291  51.399  0.00  0.00    +0.000 OA
ATOM      4  C   UNL     1      46.676 -48.664  51.603  0.00  0.00    +0.000 A 
ATOM      5  C   UNL     1      47.723 -49.560  51.971  0.00  0.00    +0.000 A 
ATOM      6  C   UNL     1      45.359 -49.156  51.489  0.00  0.00    +0.000 A 
ATOM      7  C   UNL     1      49.003 -48.955  52.073  0.00  0.00    +0.000 C 
ATOM      8  C   UNL     1      47.477 -50.920  52.193  0.00  0.00    +0.000 A 
ATOM      9  C   UNL     1      49.203 -47.539  51.649  0.00  0.00    +0.000 C 
ATOM     10  C   UNL     1      46.166 -51.402  52.058  0.00  0.00    +0.000 A 
ATOM     11  C   UNL     1      48.608 -51.850  52.582  0.00  0.00    +0.000 C 
ATOM     12  C   UNL     1      45.113 -50.529  51.711  0.00  0.00    +0.000 A 
ATOM     13  C   UNL     1      43.726 -51.162  51.610  0.00  0.00    +0.000 C 
ATOM     14  C   UNL     1      44.239 -48.182  51.145  0.00  0.00    +0.000 C 
ATOM     15  C   UNL     1      48.271 -46.591  49.555  0.00  0.00    +0.000 C 
BRANCH  10  16
ATOM     16  O   UNL     1      45.895 -52.743  52.275  0.00  0.00    +0.000 OA
ATOM     17  H   UNL     1      45.893 -52.902  53.244  0.00  0.00    +0.000 HD
ENDBRANCH  10  16
ENDBRANCH   1   2
BRANCH   1  18
ATOM     18  O   UNL     1      48.162 -44.133  52.280  0.00  0.00    +0.000 OA
BRANCH  18  19
ATOM     19  C   UNL     1      48.389 -43.096  51.409  0.00  0.00    +0.000 C 
ATOM     20  C   UNL     1      49.166 -43.190  50.253  0.00  0.00    +0.000 C 
ATOM     21  C   UNL     1      49.332 -42.081  49.426  0.00  0.00    +0.000 C 
ATOM     22  C   UNL     1      48.720 -40.875  49.756  0.00  0.00    +0.000 C 
ATOM     23  C   UNL     1      47.944 -40.774  50.908  0.00  0.00    +0.000 C 
ATOM     24  C   UNL     1      47.778 -41.885  51.733  0.00  0.00    +0.000 C 
ATOM     25  C   UNL     1      48.887 -39.740  48.911  0.00  0.00    +0.000 C 
ATOM     26  C   UNL     1      49.056 -38.608  48.082  0.00  0.00    +0.000 C 
ATOM     27  S   UNL     1      49.073 -38.642  46.360  0.00  0.00    +0.000 S 
ATOM     28  C   UNL     1      49.304 -36.908  46.261  0.00  0.00    +0.000 C 
ATOM     29  O   UNL     1      49.391 -36.285  45.217  0.00  0.00    +0.000 OA
ATOM     30  N   UNL     1      49.364 -36.379  47.509  0.00  0.00    +0.000 N 
ATOM     31  C   UNL     1      49.230 -37.225  48.571  0.00  0.00    +0.000 C 
ATOM     32  H   UNL     1      49.489 -35.388  47.645  0.00  0.00    +0.000 HD
ATOM     33  O   UNL     1      49.249 -36.884  49.741  0.00  0.00    +0.000 OA
ENDBRANCH  18  19
ENDBRANCH   1  18
TORSDOF 4
ENDMDL
MODEL 4
REMARK VINA RESULT:      -7.9      4.562     10.990
REMARK  Name = Troglitazone.pdbqt.pdb
REMARK  4 active torsions:
REMARK  status: ('A' for Active; 'I' for Inactive)
REMARK    1  A    between atoms: C_1  and  O_2
REMARK    2  A    between atoms: C_1  and  C_18
REMARK    3  A    between atoms: O_2  and  C_3
REMARK    4  A    between atoms: C_26  and  O_32
REMARK                            x       y       z     vdW  Elec       q    Type
REMARK                         _______ _______ _______ _____ _____    ______ ____
ROOT
ATOM      1  C   UNL     1      44.854 -50.295  51.944  0.00  0.00    +0.000 C 
ENDROOT
BRANCH   1   2
ATOM      2  C   UNL     1      45.592 -51.433  52.518  0.00  0.00    +0.000 C 
ATOM      3  O   UNL     1      44.656 -52.159  53.395  0.00  0.00    +0.000 OA
ATOM      4  C   UNL     1      45.047 -52.815  54.568  0.00  0.00    +0.000 A 
ATOM      5  C   UNL     1      46.247 -52.523  55.282  0.00  0.00    +0.000 A 
ATOM      6  C   UNL     1      44.155 -53.778  55.086  0.00  0.00    +0.000 A 
ATOM      7  C   UNL     1      47.059 -51.528  54.680  0.00  0.00    +0.000 C 
ATOM      8  C   UNL     1      46.571 -53.190  56.470  0.00  0.00    +0.000 A 
ATOM      9  C   UNL     1      46.722 -50.997  53.327  0.00  0.00    +0.000 C 
ATOM     10  C   UNL     1      45.685 -54.159  56.965  0.00  0.00    +0.000 A 
ATOM     11  C   UNL     1      47.851 -52.861  57.208  0.00  0.00    +0.000 C 
ATOM     12  C   UNL     1      44.486 -54.451  56.282  0.00  0.00    +0.000 A 
ATOM     13  C   UNL     1      43.592 -55.512  56.925  0.00  0.00    +0.000 C 
ATOM     14  C   UNL     1      42.852 -54.046  54.343  0.00  0.00    +0.000 C 
ATOM     15  C   UNL     1      46.043 -52.431  51.422  0.00  0.00    +0.000 C 
BRANCH  10  16
ATOM     16  O   UNL     1      45.982 -54.832  58.139  0.00  0.00    +0.000 OA
ATOM     17  H   UNL     1      46.854 -54.516  58.462  0.00  0.00    +0.000 HD
ENDBRANCH  10  16
ENDBRANCH   1   2
BRANCH   1  18
ATOM     18  O   UNL     1      44.190 -49.258  51.431  0.00  0.00    +0.000 OA
BRANCH  18  19
ATOM     19  C   UNL     1      44.963 -48.151  51.180  0.00  0.00    +0.000 C 
ATOM     20  C   UNL     1      46.277 -48.195  50.708  0.00  0.00    +0.000 C 
ATOM     21  C   UNL     1      46.979 -47.015  50.476  0.00  0.00    +0.000 C 
ATOM     22  C   UNL     1      46.368 -45.787  50.716  0.00  0.00    +0.000 C 
ATOM     23  C   UNL     1      45.058 -45.736  51.187  0.00  0.00    +0.000 C 
ATOM     24  C   UNL     1      44.356 -46.918  51.418  0.00  0.00    +0.000 C 
ATOM     25  C   UNL     1      47.084 -44.579  50.478  0.00  0.00    +0.000 C 
ATOM     26  C   UNL     1      47.791 -43.377  50.252  0.00  0.00    +0.000 C 
ATOM     27  S   UNL     1      48.853 -43.093  48.926  0.00  0.00    +0.000 S 
ATOM     28  C   UNL     1      49.201 -41.463  49.466  0.00  0.00    +0.000 C 
ATOM     29  O   UNL     1      49.944 -40.690  48.885  0.00  0.00    +0.000 OA
ATOM     30  N   UNL     1      48.519 -41.201  50.610  0.00  0.00    +0.000 N 
ATOM     31  C   UNL     1      47.715 -42.180  51.115  0.00  0.00    +0.000 C 
ATOM     32  H   UNL     1      48.595 -40.304  51.062  0.00  0.00    +0.000 HD
ATOM     33  O   UNL     1      47.037 -42.075  52.123  0.00  0.00    +0.000 OA
ENDBRANCH  18  19
ENDBRANCH   1  18
TORSDOF 4
ENDMDL
MODEL 5
REMARK VINA RESULT:      -7.8      4.864     10.983
REMARK  Name = Troglitazone.pdbqt.pdb
REMARK  4 active torsions:
REMARK  status: ('A' for Active; 'I' for Inactive)
REMARK    1  A    between atoms: C_1  and  O_2
REMARK    2  A    between atoms: C_1  and  C_18
REMARK    3  A    between atoms: O_2  and  C_3
REMARK    4  A    between atoms: C_26  and  O_32
REMARK                            x       y       z     vdW  Elec       q    Type
REMARK                         _______ _______ _______ _____ _____    ______ ____
ROOT
ATOM      1  C   UNL     1      47.044 -49.583  52.665  0.00  0.00    +0.000 C 
ENDROOT
BRANCH   1   2
ATOM      2  C   UNL     1      47.008 -51.020  52.986  0.00  0.00    +0.000 C 
ATOM      3  O   UNL     1      45.591 -51.404  53.099  0.00  0.00    +0.000 OA
ATOM      4  C   UNL     1      45.123 -52.384  53.982  0.00  0.00    +0.000 A 
ATOM      5  C   UNL     1      45.830 -52.812  55.144  0.00  0.00    +0.000 A 
ATOM      6  C   UNL     1      43.846 -52.923  53.716  0.00  0.00    +0.000 A 
ATOM      7  C   UNL     1      47.094 -52.193  55.322  0.00  0.00    +0.000 C 
ATOM      8  C   UNL     1      45.298 -53.775  56.011  0.00  0.00    +0.000 A 
ATOM      9  C   UNL     1      47.656 -51.310  54.259  0.00  0.00    +0.000 C 
ATOM     10  C   UNL     1      44.035 -54.318  55.726  0.00  0.00    +0.000 A 
ATOM     11  C   UNL     1      46.070 -54.212  57.238  0.00  0.00    +0.000 C 
ATOM     12  C   UNL     1      43.312 -53.896  54.590  0.00  0.00    +0.000 A 
ATOM     13  C   UNL     1      41.942 -54.544  54.391  0.00  0.00    +0.000 C 
ATOM     14  C   UNL     1      43.076 -52.422  52.500  0.00  0.00    +0.000 C 
ATOM     15  C   UNL     1      47.614 -51.874  51.845  0.00  0.00    +0.000 C 
BRANCH  10  16
ATOM     16  O   UNL     1      43.485 -55.270  56.568  0.00  0.00    +0.000 OA
ATOM     17  H   UNL     1      42.693 -54.879  56.998  0.00  0.00    +0.000 HD
ENDBRANCH  10  16
ENDBRANCH   1   2
BRANCH   1  18
ATOM     18  O   UNL     1      47.084 -48.280  52.383  0.00  0.00    +0.000 OA
BRANCH  18  19
ATOM     19  C   UNL     1      48.119 -47.902  51.564  0.00  0.00    +0.000 C 
ATOM     20  C   UNL     1      49.470 -48.096  51.857  0.00  0.00    +0.000 C 
ATOM     21  C   UNL     1      50.450 -47.684  50.957  0.00  0.00    +0.000 C 
ATOM     22  C   UNL     1      50.079 -47.076  49.761  0.00  0.00    +0.000 C 
ATOM     23  C   UNL     1      48.733 -46.880  49.462  0.00  0.00    +0.000 C 
ATOM     24  C   UNL     1      47.754 -47.294  50.363  0.00  0.00    +0.000 C 
ATOM     25  C   UNL     1      51.079 -46.656  48.838  0.00  0.00    +0.000 C 
ATOM     26  C   UNL     1      52.067 -46.228  47.923  0.00  0.00    +0.000 C 
ATOM     27  S   UNL     1      53.509 -47.095  47.553  0.00  0.00    +0.000 S 
ATOM     28  C   UNL     1      54.029 -45.874  46.408  0.00  0.00    +0.000 C 
ATOM     29  O   UNL     1      55.061 -45.934  45.762  0.00  0.00    +0.000 OA
ATOM     30  N   UNL     1      53.114 -44.874  46.353  0.00  0.00    +0.000 N 
ATOM     31  C   UNL     1      52.003 -44.978  47.137  0.00  0.00    +0.000 C 
ATOM     32  H   UNL     1      53.247 -44.085  45.740  0.00  0.00    +0.000 HD
ATOM     33  O   UNL     1      51.097 -44.163  47.176  0.00  0.00    +0.000 OA
ENDBRANCH  18  19
ENDBRANCH   1  18
TORSDOF 4
ENDMDL
MODEL 6
REMARK VINA RESULT:      -7.8      3.441      4.395
REMARK  Name = Troglitazone.pdbqt.pdb
REMARK  4 active torsions:
REMARK  status: ('A' for Active; 'I' for Inactive)
REMARK    1  A    between atoms: C_1  and  O_2
REMARK    2  A    between atoms: C_1  and  C_18
REMARK    3  A    between atoms: O_2  and  C_3
REMARK    4  A    between atoms: C_26  and  O_32
REMARK                            x       y       z     vdW  Elec       q    Type
REMARK                         _______ _______ _______ _____ _____    ______ ____
ROOT
ATOM      1  C   UNL     1      47.368 -48.566  52.590  0.00  0.00    +0.000 C 
ENDROOT
BRANCH   1   2
ATOM      2  C   UNL     1      46.982 -47.379  51.808  0.00  0.00    +0.000 C 
ATOM      3  O   UNL     1      48.125 -47.042  50.941  0.00  0.00    +0.000 OA
ATOM      4  C   UNL     1      48.460 -45.731  50.579  0.00  0.00    +0.000 A 
ATOM      5  C   UNL     1      48.050 -44.575  51.305  0.00  0.00    +0.000 A 
ATOM      6  C   UNL     1      49.304 -45.577  49.459  0.00  0.00    +0.000 A 
ATOM      7  C   UNL     1      47.218 -44.849  52.422  0.00  0.00    +0.000 C 
ATOM      8  C   UNL     1      48.443 -43.289  50.914  0.00  0.00    +0.000 A 
ATOM      9  C   UNL     1      46.708 -46.230  52.661  0.00  0.00    +0.000 C 
ATOM     10  C   UNL     1      49.267 -43.146  49.788  0.00  0.00    +0.000 A 
ATOM     11  C   UNL     1      47.993 -42.077  51.703  0.00  0.00    +0.000 C 
ATOM     12  C   UNL     1      49.697 -44.279  49.065  0.00  0.00    +0.000 A 
ATOM     13  C   UNL     1      50.605 -44.003  47.867  0.00  0.00    +0.000 C 
ATOM     14  C   UNL     1      49.779 -46.822  48.720  0.00  0.00    +0.000 C 
ATOM     15  C   UNL     1      45.785 -47.678  50.872  0.00  0.00    +0.000 C 
BRANCH  10  16
ATOM     16  O   UNL     1      49.672 -41.885  49.381  0.00  0.00    +0.000 OA
ATOM     17  H   UNL     1      50.611 -41.941  49.099  0.00  0.00    +0.000 HD
ENDBRANCH  10  16
ENDBRANCH   1   2
BRANCH   1  18
ATOM     18  O   UNL     1      47.726 -49.642  53.292  0.00  0.00    +0.000 OA
BRANCH  18  19
ATOM     19  C   UNL     1      46.736 -50.581  53.447  0.00  0.00    +0.000 C 
ATOM     20  C   UNL     1      45.691 -50.784  52.543  0.00  0.00    +0.000 C 
ATOM     21  C   UNL     1      44.736 -51.769  52.784  0.00  0.00    +0.000 C 
ATOM     22  C   UNL     1      44.823 -52.552  53.932  0.00  0.00    +0.000 C 
ATOM     23  C   UNL     1      45.863 -52.354  54.838  0.00  0.00    +0.000 C 
ATOM     24  C   UNL     1      46.819 -51.369  54.594  0.00  0.00    +0.000 C 
ATOM     25  C   UNL     1      43.849 -53.560  54.180  0.00  0.00    +0.000 C 
ATOM     26  C   UNL     1      42.880 -54.556  54.436  0.00  0.00    +0.000 C 
ATOM     27  S   UNL     1      42.191 -55.591  53.243  0.00  0.00    +0.000 S 
ATOM     28  C   UNL     1      41.198 -56.411  54.431  0.00  0.00    +0.000 C 
ATOM     29  O   UNL     1      40.434 -57.326  54.174  0.00  0.00    +0.000 OA
ATOM     30  N   UNL     1      41.416 -55.879  55.660  0.00  0.00    +0.000 N 
ATOM     31  C   UNL     1      42.322 -54.866  55.769  0.00  0.00    +0.000 C 
ATOM     32  H   UNL     1      40.930 -56.233  56.469  0.00  0.00    +0.000 HD
ATOM     33  O   UNL     1      42.625 -54.309  56.810  0.00  0.00    +0.000 OA
ENDBRANCH  18  19
ENDBRANCH   1  18
TORSDOF 4
ENDMDL
MODEL 7
REMARK VINA RESULT:      -7.8      1.577      2.595
REMARK  Name = Troglitazone.pdbqt.pdb
REMARK  4 active torsions:
REMARK  status: ('A' for Active; 'I' for Inactive)
REMARK    1  A    between atoms: C_1  and  O_2
REMARK    2  A    between atoms: C_1  and  C_18
REMARK    3  A    between atoms: O_2  and  C_3
REMARK    4  A    between atoms: C_26  and  O_32
REMARK                            x       y       z     vdW  Elec       q    Type
REMARK                         _______ _______ _______ _____ _____    ______ ____
ROOT
ATOM      1  C   UNL     1      47.085 -48.403  51.097  0.00  0.00    +0.000 C 
ENDROOT
BRANCH   1   2
ATOM      2  C   UNL     1      46.500 -47.053  51.160  0.00  0.00    +0.000 C 
ATOM      3  O   UNL     1      46.864 -46.363  49.910  0.00  0.00    +0.000 OA
ATOM      4  C   UNL     1      47.110 -44.987  49.830  0.00  0.00    +0.000 A 
ATOM      5  C   UNL     1      47.462 -44.174  50.947  0.00  0.00    +0.000 A 
ATOM      6  C   UNL     1      47.058 -44.405  48.546  0.00  0.00    +0.000 A 
ATOM      7  C   UNL     1      47.501 -44.866  52.186  0.00  0.00    +0.000 C 
ATOM      8  C   UNL     1      47.728 -42.807  50.802  0.00  0.00    +0.000 A 
ATOM      9  C   UNL     1      47.034 -46.280  52.274  0.00  0.00    +0.000 C 
ATOM     10  C   UNL     1      47.654 -42.235  49.522  0.00  0.00    +0.000 A 
ATOM     11  C   UNL     1      48.099 -41.967  52.006  0.00  0.00    +0.000 C 
ATOM     12  C   UNL     1      47.324 -43.026  48.401  0.00  0.00    +0.000 A 
ATOM     13  C   UNL     1      47.290 -42.299  47.057  0.00  0.00    +0.000 C 
ATOM     14  C   UNL     1      46.731 -45.292  47.351  0.00  0.00    +0.000 C 
ATOM     15  C   UNL     1      44.952 -47.104  51.207  0.00  0.00    +0.000 C 
BRANCH  10  16
ATOM     16  O   UNL     1      47.915 -40.886  49.351  0.00  0.00    +0.000 OA
ATOM     17  H   UNL     1      48.227 -40.523  50.209  0.00  0.00    +0.000 HD
ENDBRANCH  10  16
ENDBRANCH   1   2
BRANCH   1  18
ATOM     18  O   UNL     1      47.609 -49.628  51.048  0.00  0.00    +0.000 OA
BRANCH  18  19
ATOM     19  C   UNL     1      47.517 -50.338  52.220  0.00  0.00    +0.000 C 
ATOM     20  C   UNL     1      46.583 -50.084  53.226  0.00  0.00    +0.000 C 
ATOM     21  C   UNL     1      46.564 -50.865  54.380  0.00  0.00    +0.000 C 
ATOM     22  C   UNL     1      47.482 -51.902  54.528  0.00  0.00    +0.000 C 
ATOM     23  C   UNL     1      48.417 -52.160  53.528  0.00  0.00    +0.000 C 
ATOM     24  C   UNL     1      48.433 -51.378  52.374  0.00  0.00    +0.000 C 
ATOM     25  C   UNL     1      47.463 -52.702  55.706  0.00  0.00    +0.000 C 
ATOM     26  C   UNL     1      47.456 -53.495  56.875  0.00  0.00    +0.000 C 
ATOM     27  S   UNL     1      46.038 -54.036  57.691  0.00  0.00    +0.000 S 
ATOM     28  C   UNL     1      46.977 -54.882  58.905  0.00  0.00    +0.000 C 
ATOM     29  O   UNL     1      46.495 -55.518  59.826  0.00  0.00    +0.000 OA
ATOM     30  N   UNL     1      48.301 -54.722  58.656  0.00  0.00    +0.000 N 
ATOM     31  C   UNL     1      48.665 -53.989  57.566  0.00  0.00    +0.000 C 
ATOM     32  H   UNL     1      48.993 -55.147  59.254  0.00  0.00    +0.000 HD
ATOM     33  O   UNL     1      49.815 -53.779  57.219  0.00  0.00    +0.000 OA
ENDBRANCH  18  19
ENDBRANCH   1  18
TORSDOF 4
ENDMDL
MODEL 8
REMARK VINA RESULT:      -7.7      8.690     13.161
REMARK  Name = Troglitazone.pdbqt.pdb
REMARK  4 active torsions:
REMARK  status: ('A' for Active; 'I' for Inactive)
REMARK    1  A    between atoms: C_1  and  O_2
REMARK    2  A    between atoms: C_1  and  C_18
REMARK    3  A    between atoms: O_2  and  C_3
REMARK    4  A    between atoms: C_26  and  O_32
REMARK                            x       y       z     vdW  Elec       q    Type
REMARK                         _______ _______ _______ _____ _____    ______ ____
ROOT
ATOM      1  C   UNL     1      43.028 -56.686  60.446  0.00  0.00    +0.000 C 
ENDROOT
BRANCH   1   2
ATOM      2  C   UNL     1      43.920 -56.583  59.278  0.00  0.00    +0.000 C 
ATOM      3  O   UNL     1      45.303 -56.632  59.783  0.00  0.00    +0.000 OA
ATOM      4  C   UNL     1      46.367 -55.939  59.192  0.00  0.00    +0.000 A 
ATOM      5  C   UNL     1      46.205 -54.803  58.345  0.00  0.00    +0.000 A 
ATOM      6  C   UNL     1      47.668 -56.374  59.519  0.00  0.00    +0.000 A 
ATOM      7  C   UNL     1      44.854 -54.444  58.099  0.00  0.00    +0.000 C 
ATOM      8  C   UNL     1      47.308 -54.129  57.809  0.00  0.00    +0.000 A 
ATOM      9  C   UNL     1      43.743 -55.322  58.569  0.00  0.00    +0.000 C 
ATOM     10  C   UNL     1      48.598 -54.582  58.125  0.00  0.00    +0.000 A 
ATOM     11  C   UNL     1      47.108 -52.925  56.912  0.00  0.00    +0.000 C 
ATOM     12  C   UNL     1      48.780 -55.694  58.974  0.00  0.00    +0.000 A 
ATOM     13  C   UNL     1      50.229 -56.086  59.261  0.00  0.00    +0.000 C 
ATOM     14  C   UNL     1      47.832 -57.557  60.465  0.00  0.00    +0.000 C 
ATOM     15  C   UNL     1      43.749 -57.789  58.322  0.00  0.00    +0.000 C 
BRANCH  10  16
ATOM     16  O   UNL     1      49.707 -53.931  57.608  0.00  0.00    +0.000 OA
ATOM     17  H   UNL     1      50.301 -54.605  57.212  0.00  0.00    +0.000 HD
ENDBRANCH  10  16
ENDBRANCH   1   2
BRANCH   1  18
ATOM     18  O   UNL     1      42.224 -56.769  61.506  0.00  0.00    +0.000 OA
BRANCH  18  19
ATOM     19  C   UNL     1      42.829 -56.495  62.708  0.00  0.00    +0.000 C 
ATOM     20  C   UNL     1      43.740 -57.340  63.345  0.00  0.00    +0.000 C 
ATOM     21  C   UNL     1      44.308 -56.971  64.562  0.00  0.00    +0.000 C 
ATOM     22  C   UNL     1      43.965 -55.754  65.145  0.00  0.00    +0.000 C 
ATOM     23  C   UNL     1      43.056 -54.907  64.515  0.00  0.00    +0.000 C 
ATOM     24  C   UNL     1      42.490 -55.277  63.296  0.00  0.00    +0.000 C 
ATOM     25  C   UNL     1      44.545 -55.374  66.388  0.00  0.00    +0.000 C 
ATOM     26  C   UNL     1      45.111 -54.994  67.626  0.00  0.00    +0.000 C 
ATOM     27  S   UNL     1      46.751 -55.259  68.082  0.00  0.00    +0.000 S 
ATOM     28  C   UNL     1      46.510 -54.497  69.642  0.00  0.00    +0.000 C 
ATOM     29  O   UNL     1      47.383 -54.362  70.483  0.00  0.00    +0.000 OA
ATOM     30  N   UNL     1      45.223 -54.084  69.759  0.00  0.00    +0.000 N 
ATOM     31  C   UNL     1      44.382 -54.302  68.709  0.00  0.00    +0.000 C 
ATOM     32  H   UNL     1      44.905 -53.618  70.594  0.00  0.00    +0.000 HD
ATOM     33  O   UNL     1      43.209 -53.971  68.674  0.00  0.00    +0.000 OA
ENDBRANCH  18  19
ENDBRANCH   1  18
TORSDOF 4
ENDMDL
MODEL 9
REMARK VINA RESULT:      -7.7      7.395     11.588
REMARK  Name = Troglitazone.pdbqt.pdb
REMARK  4 active torsions:
REMARK  status: ('A' for Active; 'I' for Inactive)
REMARK    1  A    between atoms: C_1  and  O_2
REMARK    2  A    between atoms: C_1  and  C_18
REMARK    3  A    between atoms: O_2  and  C_3
REMARK    4  A    between atoms: C_26  and  O_32
REMARK                            x       y       z     vdW  Elec       q    Type
REMARK                         _______ _______ _______ _____ _____    ______ ____
ROOT
ATOM      1  C   UNL     1      49.148 -46.010  50.713  0.00  0.00    +0.000 C 
ENDROOT
BRANCH   1   2
ATOM      2  C   UNL     1      49.962 -47.098  50.145  0.00  0.00    +0.000 C 
ATOM      3  O   UNL     1      50.994 -46.472  49.301  0.00  0.00    +0.000 OA
ATOM      4  C   UNL     1      51.496 -47.057  48.132  0.00  0.00    +0.000 A 
ATOM      5  C   UNL     1      50.814 -48.064  47.388  0.00  0.00    +0.000 A 
ATOM      6  C   UNL     1      52.726 -46.560  47.650  0.00  0.00    +0.000 A 
ATOM      7  C   UNL     1      49.580 -48.475  47.955  0.00  0.00    +0.000 C 
ATOM      8  C   UNL     1      51.350 -48.590  46.206  0.00  0.00    +0.000 A 
ATOM      9  C   UNL     1      49.171 -47.988  49.304  0.00  0.00    +0.000 C 
ATOM     10  C   UNL     1      52.583 -48.102  45.746  0.00  0.00    +0.000 A 
ATOM     11  C   UNL     1      50.604 -49.659  45.436  0.00  0.00    +0.000 C 
ATOM     12  C   UNL     1      53.267 -47.094  46.459  0.00  0.00    +0.000 A 
ATOM     13  C   UNL     1      54.591 -46.629  45.854  0.00  0.00    +0.000 C 
ATOM     14  C   UNL     1      53.423 -45.449  48.424  0.00  0.00    +0.000 C 
ATOM     15  C   UNL     1      50.706 -47.890  51.249  0.00  0.00    +0.000 C 
BRANCH  10  16
ATOM     16  O   UNL     1      53.134 -48.604  44.579  0.00  0.00    +0.000 OA
ATOM     17  H   UNL     1      53.153 -49.584  44.646  0.00  0.00    +0.000 HD
ENDBRANCH  10  16
ENDBRANCH   1   2
BRANCH   1  18
ATOM     18  O   UNL     1      48.402 -45.031  51.226  0.00  0.00    +0.000 OA
BRANCH  18  19
ATOM     19  C   UNL     1      48.575 -43.806  50.630  0.00  0.00    +0.000 C 
ATOM     20  C   UNL     1      49.343 -43.586  49.484  0.00  0.00    +0.000 C 
ATOM     21  C   UNL     1      49.453 -42.306  48.948  0.00  0.00    +0.000 C 
ATOM     22  C   UNL     1      48.795 -41.241  49.558  0.00  0.00    +0.000 C 
ATOM     23  C   UNL     1      48.028 -41.454  50.701  0.00  0.00    +0.000 C 
ATOM     24  C   UNL     1      47.918 -42.736  51.235  0.00  0.00    +0.000 C 
ATOM     25  C   UNL     1      48.906 -39.931  49.011  0.00  0.00    +0.000 C 
ATOM     26  C   UNL     1      49.018 -38.627  48.478  0.00  0.00    +0.000 C 
ATOM     27  S   UNL     1      49.018 -38.246  46.798  0.00  0.00    +0.000 S 
ATOM     28  C   UNL     1      49.175 -36.530  47.119  0.00  0.00    +0.000 C 
ATOM     29  O   UNL     1      49.225 -35.672  46.255  0.00  0.00    +0.000 OA
ATOM     30  N   UNL     1      49.226 -36.314  48.457  0.00  0.00    +0.000 N 
ATOM     31  C   UNL     1      49.140 -37.395  49.284  0.00  0.00    +0.000 C 
ATOM     32  H   UNL     1      49.311 -35.381  48.827  0.00  0.00    +0.000 HD
ATOM     33  O   UNL     1      49.157 -37.345  50.503  0.00  0.00    +0.000 OA
ENDBRANCH  18  19
ENDBRANCH   1  18
TORSDOF 4
ENDMDL
