MODEL 1
REMARK VINA RESULT:      -6.6      0.000      0.000
REMARK  Name = 
REMARK  19 active torsions:
REMARK  status: ('A' for Active; 'I' for Inactive)
REMARK    1  A    between atoms: O_1  and  C_20
REMARK    2  A    between atoms: O_1  and  C_36
REMARK    3  A    between atoms: O_2  and  C_18
REMARK    4  A    between atoms: O_3  and  C_28
REMARK    5  A    between atoms: O_3  and  C_42
REMARK    6  A    between atoms: O_5  and  C_34
REMARK    7  A    between atoms: O_5  and  C_50
REMARK    8  A    between atoms: O_7  and  C_40
REMARK    9  A    between atoms: O_7  and  C_56
REMARK   10  A    between atoms: O_9  and  C_46
REMARK   11  A    between atoms: N_11  and  C_30
REMARK   12  A    between atoms: C_17  and  C_23
REMARK   13  A    between atoms: C_18  and  C_28
REMARK   14  A    between atoms: C_23  and  C_32
REMARK   15  A    between atoms: C_33  and  C_35
REMARK   16  A    between atoms: C_35  and  C_40
REMARK   17  A    between atoms: C_36  and  C_41
REMARK   18  A    between atoms: C_46  and  C_53
REMARK   19  A    between atoms: C_53  and  C_57
REMARK                            x       y       z     vdW  Elec       q    Type
REMARK                         _______ _______ _______ _____ _____    ______ ____
ROOT
ATOM      1  N   UNL     1      43.928 -53.417  53.804  0.00  0.00    +0.000 NA
ATOM      2  N   UNL     1      48.681 -53.101  54.108  0.00  0.00    +0.000 N 
ATOM      3  C   UNL     1      46.252 -53.301  53.952  0.00  0.00    +0.000 C 
ATOM      4  C   UNL     1      45.115 -54.246  53.525  0.00  0.00    +0.000 C 
ATOM      5  C   UNL     1      47.562 -54.089  54.152  0.00  0.00    +0.000 C 
ATOM      6  C   UNL     1      45.181 -55.686  54.217  0.00  0.00    +0.000 C 
ATOM      7  C   UNL     1      47.550 -55.137  55.278  0.00  0.00    +0.000 C 
ATOM      8  C   UNL     1      45.666 -52.468  55.109  0.00  0.00    +0.000 C 
ATOM      9  C   UNL     1      46.117 -55.720  55.505  0.00  0.00    +0.000 C 
ATOM     10  C   UNL     1      46.796 -52.313  52.939  0.00  0.00    +0.000 A 
ATOM     11  C   UNL     1      44.158 -52.698  55.051  0.00  0.00    +0.000 C 
ATOM     12  C   UNL     1      48.181 -52.199  53.118  0.00  0.00    +0.000 A 
ATOM     13  C   UNL     1      43.792 -56.169  54.641  0.00  0.00    +0.000 C 
ATOM     14  C   UNL     1      42.660 -54.128  53.752  0.00  0.00    +0.000 C 
ATOM     15  C   UNL     1      42.673 -55.468  54.414  0.00  0.00    +0.000 C 
ATOM     16  C   UNL     1      46.110 -51.554  51.997  0.00  0.00    +0.000 A 
ATOM     17  C   UNL     1      50.023 -53.614  53.840  0.00  0.00    +0.000 C 
ATOM     18  C   UNL     1      48.892 -51.281  52.370  0.00  0.00    +0.000 A 
ATOM     19  C   UNL     1      46.806 -50.613  51.214  0.00  0.00    +0.000 A 
ATOM     20  C   UNL     1      48.210 -50.488  51.432  0.00  0.00    +0.000 A 
ENDROOT
BRANCH  19  23
ATOM     21  N   UNL     1      43.501 -47.413  47.552  0.00  0.00    +0.000 NA
ATOM     22  N   UNL     1      46.894 -47.773  51.571  0.00  0.00    +0.000 N 
ATOM     23  C   UNL     1      46.073 -49.705  50.147  0.00  0.00    +0.000 C 
ATOM     24  C   UNL     1      44.487 -49.782  50.312  0.00  0.00    +0.000 C 
ATOM     25  C   UNL     1      46.480 -48.202  50.321  0.00  0.00    +0.000 A 
ATOM     26  C   UNL     1      43.660 -48.704  49.591  0.00  0.00    +0.000 C 
ATOM     27  C   UNL     1      42.165 -48.724  49.903  0.00  0.00    +0.000 C 
ATOM     28  C   UNL     1      43.778 -48.740  48.074  0.00  0.00    +0.000 C 
ATOM     29  C   UNL     1      46.450 -47.056  49.506  0.00  0.00    +0.000 A 
ATOM     30  C   UNL     1      41.408 -47.581  49.164  0.00  0.00    +0.000 C 
ATOM     31  C   UNL     1      42.124 -46.986  47.883  0.00  0.00    +0.000 C 
ATOM     32  C   UNL     1      46.005 -46.860  48.066  0.00  0.00    +0.000 C 
ATOM     33  C   UNL     1      44.524 -46.398  47.916  0.00  0.00    +0.000 C 
ATOM     34  C   UNL     1      46.913 -45.953  50.316  0.00  0.00    +0.000 A 
ATOM     35  C   UNL     1      47.180 -46.437  51.588  0.00  0.00    +0.000 A 
ATOM     36  C   UNL     1      47.112 -44.574  50.075  0.00  0.00    +0.000 A 
ATOM     37  C   UNL     1      47.642 -45.629  52.635  0.00  0.00    +0.000 A 
ATOM     38  C   UNL     1      47.575 -43.749  51.107  0.00  0.00    +0.000 A 
ATOM     39  C   UNL     1      47.836 -44.272  52.369  0.00  0.00    +0.000 A 
ATOM     40  H   UNL     1      46.997 -48.374  52.379  0.00  0.00    +0.000 HD
BRANCH  23  42
ATOM     41  O   UNL     1      47.334 -49.812  47.985  0.00  0.00    +0.000 OA
ATOM     42  C   UNL     1      46.507 -50.280  48.758  0.00  0.00    +0.000 C 
BRANCH  42  43
ATOM     43  O   UNL     1      45.834 -51.452  48.506  0.00  0.00    +0.000 OA
ATOM     44  C   UNL     1      45.785 -51.807  47.125  0.00  0.00    +0.000 C 
ENDBRANCH  42  43
ENDBRANCH  23  42
BRANCH  30  45
ATOM     45  O   UNL     1      40.161 -48.173  48.721  0.00  0.00    +0.000 OA
ATOM     46  H   UNL     1      40.239 -48.331  47.763  0.00  0.00    +0.000 HD
ENDBRANCH  30  45
BRANCH  30  47
ATOM     47  C   UNL     1      40.962 -46.470  50.143  0.00  0.00    +0.000 C 
ATOM     48  C   UNL     1      41.939 -46.104  51.246  0.00  0.00    +0.000 C 
ENDBRANCH  30  47
ENDBRANCH  19  23
BRANCH   7  49
ATOM     49  O   UNL     1      48.364 -56.250  54.783  0.00  0.00    +0.000 OA
ATOM     50  H   UNL     1      49.033 -56.424  55.478  0.00  0.00    +0.000 HD
ENDBRANCH   7  49
BRANCH   7  52
ATOM     51  O   UNL     1      48.080 -53.482  57.051  0.00  0.00    +0.000 OA
ATOM     52  C   UNL     1      48.190 -54.608  56.586  0.00  0.00    +0.000 C 
BRANCH  52  53
ATOM     53  O   UNL     1      48.856 -55.629  57.219  0.00  0.00    +0.000 OA
ATOM     54  C   UNL     1      48.971 -55.457  58.633  0.00  0.00    +0.000 C 
ENDBRANCH  52  53
ENDBRANCH   7  52
BRANCH  20  55
ATOM     55  O   UNL     1      48.892 -49.599  50.640  0.00  0.00    +0.000 OA
ATOM     56  C   UNL     1      49.966 -48.916  51.280  0.00  0.00    +0.000 C 
ENDBRANCH  20  55
BRANCH   6  57
ATOM     57  C   UNL     1      45.715 -56.745  53.184  0.00  0.00    +0.000 C 
ATOM     58  C   UNL     1      45.696 -56.333  51.711  0.00  0.00    +0.000 C 
ENDBRANCH   6  57
BRANCH   9  59
ATOM     59  O   UNL     1      45.423 -55.052  56.586  0.00  0.00    +0.000 OA
BRANCH  59  61
ATOM     60  O   UNL     1      45.713 -56.790  58.050  0.00  0.00    +0.000 OA
ATOM     61  C   UNL     1      45.100 -55.800  57.675  0.00  0.00    +0.000 C 
ATOM     62  C   UNL     1      43.908 -55.217  58.367  0.00  0.00    +0.000 C 
ENDBRANCH  59  61
ENDBRANCH   9  59
TORSDOF 12
ENDMDL
MODEL 2
REMARK VINA RESULT:      -6.4      4.540      7.774
REMARK  Name = 
REMARK  19 active torsions:
REMARK  status: ('A' for Active; 'I' for Inactive)
REMARK    1  A    between atoms: O_1  and  C_20
REMARK    2  A    between atoms: O_1  and  C_36
REMARK    3  A    between atoms: O_2  and  C_18
REMARK    4  A    between atoms: O_3  and  C_28
REMARK    5  A    between atoms: O_3  and  C_42
REMARK    6  A    between atoms: O_5  and  C_34
REMARK    7  A    between atoms: O_5  and  C_50
REMARK    8  A    between atoms: O_7  and  C_40
REMARK    9  A    between atoms: O_7  and  C_56
REMARK   10  A    between atoms: O_9  and  C_46
REMARK   11  A    between atoms: N_11  and  C_30
REMARK   12  A    between atoms: C_17  and  C_23
REMARK   13  A    between atoms: C_18  and  C_28
REMARK   14  A    between atoms: C_23  and  C_32
REMARK   15  A    between atoms: C_33  and  C_35
REMARK   16  A    between atoms: C_35  and  C_40
REMARK   17  A    between atoms: C_36  and  C_41
REMARK   18  A    between atoms: C_46  and  C_53
REMARK   19  A    between atoms: C_53  and  C_57
REMARK                            x       y       z     vdW  Elec       q    Type
REMARK                         _______ _______ _______ _____ _____    ______ ____
ROOT
ATOM      1  N   UNL     1      44.253 -47.009  48.144  0.00  0.00    +0.000 NA
ATOM      2  N   UNL     1      48.054 -47.908  50.887  0.00  0.00    +0.000 N 
ATOM      3  C   UNL     1      46.106 -47.486  49.477  0.00  0.00    +0.000 C 
ATOM      4  C   UNL     1      45.251 -48.078  48.343  0.00  0.00    +0.000 C 
ATOM      5  C   UNL     1      46.950 -48.589  50.147  0.00  0.00    +0.000 C 
ATOM      6  C   UNL     1      44.699 -49.546  48.651  0.00  0.00    +0.000 C 
ATOM      7  C   UNL     1      46.161 -49.699  50.860  0.00  0.00    +0.000 C 
ATOM      8  C   UNL     1      45.127 -46.643  50.317  0.00  0.00    +0.000 C 
ATOM      9  C   UNL     1      44.764 -49.928  50.196  0.00  0.00    +0.000 C 
ATOM     10  C   UNL     1      47.263 -46.575  49.116  0.00  0.00    +0.000 A 
ATOM     11  C   UNL     1      43.879 -46.487  49.452  0.00  0.00    +0.000 C 
ATOM     12  C   UNL     1      48.325 -46.824  49.996  0.00  0.00    +0.000 A 
ATOM     13  C   UNL     1      43.247 -49.708  48.195  0.00  0.00    +0.000 C 
ATOM     14  C   UNL     1      43.123 -47.377  47.305  0.00  0.00    +0.000 C 
ATOM     15  C   UNL     1      42.560 -48.733  47.582  0.00  0.00    +0.000 C 
ATOM     16  C   UNL     1      47.331 -45.587  48.140  0.00  0.00    +0.000 A 
ATOM     17  C   UNL     1      49.224 -48.710  51.241  0.00  0.00    +0.000 C 
ATOM     18  C   UNL     1      49.464 -46.045  49.928  0.00  0.00    +0.000 A 
ATOM     19  C   UNL     1      48.481 -44.780  48.040  0.00  0.00    +0.000 A 
ATOM     20  C   UNL     1      49.539 -45.026  48.964  0.00  0.00    +0.000 A 
ENDROOT
BRANCH  19  23
ATOM     21  N   UNL     1      48.287 -40.621  43.887  0.00  0.00    +0.000 NA
ATOM     22  N   UNL     1      48.369 -42.069  48.956  0.00  0.00    +0.000 N 
ATOM     23  C   UNL     1      48.602 -43.625  46.966  0.00  0.00    +0.000 C 
ATOM     24  C   UNL     1      47.268 -43.497  46.098  0.00  0.00    +0.000 C 
ATOM     25  C   UNL     1      48.831 -42.240  47.662  0.00  0.00    +0.000 A 
ATOM     26  C   UNL     1      47.100 -42.215  45.265  0.00  0.00    +0.000 C 
ATOM     27  C   UNL     1      45.744 -42.068  44.578  0.00  0.00    +0.000 C 
ATOM     28  C   UNL     1      48.150 -42.038  44.178  0.00  0.00    +0.000 C 
ATOM     29  C   UNL     1      49.342 -40.992  47.262  0.00  0.00    +0.000 A 
ATOM     30  C   UNL     1      45.643 -40.728  43.788  0.00  0.00    +0.000 C 
ATOM     31  C   UNL     1      47.018 -40.056  43.379  0.00  0.00    +0.000 C 
ATOM     32  C   UNL     1      49.910 -40.518  45.934  0.00  0.00    +0.000 C 
ATOM     33  C   UNL     1      48.866 -39.831  45.004  0.00  0.00    +0.000 C 
ATOM     34  C   UNL     1      49.207 -40.102  48.392  0.00  0.00    +0.000 A 
ATOM     35  C   UNL     1      48.601 -40.805  49.422  0.00  0.00    +0.000 A 
ATOM     36  C   UNL     1      49.535 -38.746  48.618  0.00  0.00    +0.000 A 
ATOM     37  C   UNL     1      48.311 -40.241  50.671  0.00  0.00    +0.000 A 
ATOM     38  C   UNL     1      49.255 -38.161  49.859  0.00  0.00    +0.000 A 
ATOM     39  C   UNL     1      48.651 -38.901  50.870  0.00  0.00    +0.000 A 
ATOM     40  H   UNL     1      47.929 -42.794  49.508  0.00  0.00    +0.000 HD
BRANCH  23  42
ATOM     41  O   UNL     1      50.891 -43.479  45.960  0.00  0.00    +0.000 OA
ATOM     42  C   UNL     1      49.807 -44.039  46.058  0.00  0.00    +0.000 C 
BRANCH  42  43
ATOM     43  O   UNL     1      49.498 -45.187  45.366  0.00  0.00    +0.000 OA
ATOM     44  C   UNL     1      50.547 -46.155  45.352  0.00  0.00    +0.000 C 
ENDBRANCH  42  43
ENDBRANCH  23  42
BRANCH  30  45
ATOM     45  O   UNL     1      44.948 -41.062  42.560  0.00  0.00    +0.000 OA
ATOM     46  H   UNL     1      45.234 -41.955  42.298  0.00  0.00    +0.000 HD
ENDBRANCH  30  45
BRANCH  30  47
ATOM     47  C   UNL     1      44.697 -39.726  44.488  0.00  0.00    +0.000 C 
ATOM     48  C   UNL     1      43.458 -39.307  43.715  0.00  0.00    +0.000 C 
ENDBRANCH  30  47
ENDBRANCH  19  23
BRANCH   7  49
ATOM     49  O   UNL     1      46.923 -50.929  50.629  0.00  0.00    +0.000 OA
ATOM     50  H   UNL     1      46.505 -51.364  49.858  0.00  0.00    +0.000 HD
ENDBRANCH   7  49
BRANCH   7  52
ATOM     51  O   UNL     1      46.018 -48.388  52.963  0.00  0.00    +0.000 OA
ATOM     52  C   UNL     1      46.061 -49.466  52.388  0.00  0.00    +0.000 C 
BRANCH  52  53
ATOM     53  O   UNL     1      45.943 -50.675  53.032  0.00  0.00    +0.000 OA
ATOM     54  C   UNL     1      46.680 -50.756  54.253  0.00  0.00    +0.000 C 
ENDBRANCH  52  53
ENDBRANCH   7  52
BRANCH  20  55
ATOM     55  O   UNL     1      50.673 -44.264  48.837  0.00  0.00    +0.000 OA
ATOM     56  C   UNL     1      51.900 -44.979  48.951  0.00  0.00    +0.000 C 
ENDBRANCH  20  55
BRANCH   6  57
ATOM     57  C   UNL     1      45.531 -50.606  47.840  0.00  0.00    +0.000 C 
ATOM     58  C   UNL     1      46.438 -50.061  46.735  0.00  0.00    +0.000 C 
ENDBRANCH   6  57
BRANCH   9  59
ATOM     59  O   UNL     1      43.711 -49.211  50.884  0.00  0.00    +0.000 OA
BRANCH  59  61
ATOM     60  O   UNL     1      41.459 -49.427  51.246  0.00  0.00    +0.000 OA
ATOM     61  C   UNL     1      42.583 -49.906  51.191  0.00  0.00    +0.000 C 
ATOM     62  C   UNL     1      42.911 -51.348  51.418  0.00  0.00    +0.000 C 
ENDBRANCH  59  61
ENDBRANCH   9  59
TORSDOF 12
ENDMDL
MODEL 3
REMARK VINA RESULT:      -6.3      2.405      5.316
REMARK  Name = 
REMARK  19 active torsions:
REMARK  status: ('A' for Active; 'I' for Inactive)
REMARK    1  A    between atoms: O_1  and  C_20
REMARK    2  A    between atoms: O_1  and  C_36
REMARK    3  A    between atoms: O_2  and  C_18
REMARK    4  A    between atoms: O_3  and  C_28
REMARK    5  A    between atoms: O_3  and  C_42
REMARK    6  A    between atoms: O_5  and  C_34
REMARK    7  A    between atoms: O_5  and  C_50
REMARK    8  A    between atoms: O_7  and  C_40
REMARK    9  A    between atoms: O_7  and  C_56
REMARK   10  A    between atoms: O_9  and  C_46
REMARK   11  A    between atoms: N_11  and  C_30
REMARK   12  A    between atoms: C_17  and  C_23
REMARK   13  A    between atoms: C_18  and  C_28
REMARK   14  A    between atoms: C_23  and  C_32
REMARK   15  A    between atoms: C_33  and  C_35
REMARK   16  A    between atoms: C_35  and  C_40
REMARK   17  A    between atoms: C_36  and  C_41
REMARK   18  A    between atoms: C_46  and  C_53
REMARK   19  A    between atoms: C_53  and  C_57
REMARK                            x       y       z     vdW  Elec       q    Type
REMARK                         _______ _______ _______ _____ _____    ______ ____
ROOT
ATOM      1  N   UNL     1      46.017 -54.427  55.969  0.00  0.00    +0.000 NA
ATOM      2  N   UNL     1      43.703 -56.003  52.103  0.00  0.00    +0.000 N 
ATOM      3  C   UNL     1      44.855 -55.203  54.102  0.00  0.00    +0.000 C 
ATOM      4  C   UNL     1      44.629 -54.606  55.502  0.00  0.00    +0.000 C 
ATOM      5  C   UNL     1      43.563 -55.866  53.584  0.00  0.00    +0.000 C 
ATOM      6  C   UNL     1      43.655 -55.477  56.423  0.00  0.00    +0.000 C 
ATOM      7  C   UNL     1      43.058 -57.074  54.390  0.00  0.00    +0.000 C 
ATOM      8  C   UNL     1      46.153 -56.025  54.222  0.00  0.00    +0.000 C 
ATOM      9  C   UNL     1      43.462 -56.968  55.897  0.00  0.00    +0.000 C 
ATOM     10  C   UNL     1      45.048 -54.258  52.932  0.00  0.00    +0.000 A 
ATOM     11  C   UNL     1      46.796 -55.579  55.533  0.00  0.00    +0.000 C 
ATOM     12  C   UNL     1      44.416 -54.801  51.805  0.00  0.00    +0.000 A 
ATOM     13  C   UNL     1      44.165 -55.556  57.864  0.00  0.00    +0.000 C 
ATOM     14  C   UNL     1      46.150 -54.119  57.384  0.00  0.00    +0.000 C 
ATOM     15  C   UNL     1      45.275 -54.933  58.282  0.00  0.00    +0.000 C 
ATOM     16  C   UNL     1      45.765 -53.068  52.873  0.00  0.00    +0.000 A 
ATOM     17  C   UNL     1      42.480 -56.193  51.324  0.00  0.00    +0.000 C 
ATOM     18  C   UNL     1      44.534 -54.165  50.584  0.00  0.00    +0.000 A 
ATOM     19  C   UNL     1      45.900 -52.392  51.644  0.00  0.00    +0.000 A 
ATOM     20  C   UNL     1      45.277 -52.975  50.502  0.00  0.00    +0.000 A 
ENDROOT
BRANCH  19  23
ATOM     21  N   UNL     1      49.139 -47.611  50.537  0.00  0.00    +0.000 NA
ATOM     22  N   UNL     1      44.462 -49.968  51.139  0.00  0.00    +0.000 N 
ATOM     23  C   UNL     1      46.726 -51.050  51.514  0.00  0.00    +0.000 C 
ATOM     24  C   UNL     1      47.521 -50.989  50.130  0.00  0.00    +0.000 C 
ATOM     25  C   UNL     1      45.774 -49.806  51.550  0.00  0.00    +0.000 A 
ATOM     26  C   UNL     1      48.079 -49.620  49.708  0.00  0.00    +0.000 C 
ATOM     27  C   UNL     1      48.693 -49.579  48.310  0.00  0.00    +0.000 C 
ATOM     28  C   UNL     1      49.132 -49.059  50.653  0.00  0.00    +0.000 C 
ATOM     29  C   UNL     1      45.929 -48.435  51.825  0.00  0.00    +0.000 A 
ATOM     30  C   UNL     1      49.199 -48.151  47.946  0.00  0.00    +0.000 C 
ATOM     31  C   UNL     1      49.496 -47.186  49.166  0.00  0.00    +0.000 C 
ATOM     32  C   UNL     1      47.149 -47.624  52.234  0.00  0.00    +0.000 C 
ATOM     33  C   UNL     1      47.900 -46.962  51.040  0.00  0.00    +0.000 C 
ATOM     34  C   UNL     1      44.642 -47.815  51.609  0.00  0.00    +0.000 A 
ATOM     35  C   UNL     1      43.759 -48.797  51.186  0.00  0.00    +0.000 A 
ATOM     36  C   UNL     1      44.158 -46.492  51.721  0.00  0.00    +0.000 A 
ATOM     37  C   UNL     1      42.417 -48.541  50.876  0.00  0.00    +0.000 A 
ATOM     38  C   UNL     1      42.821 -46.213  51.418  0.00  0.00    +0.000 A 
ATOM     39  C   UNL     1      41.963 -47.226  51.001  0.00  0.00    +0.000 A 
ATOM     40  H   UNL     1      44.055 -50.850  50.855  0.00  0.00    +0.000 HD
BRANCH  23  42
ATOM     41  O   UNL     1      47.561 -50.578  53.828  0.00  0.00    +0.000 OA
ATOM     42  C   UNL     1      47.725 -51.068  52.718  0.00  0.00    +0.000 C 
BRANCH  42  43
ATOM     43  O   UNL     1      48.860 -51.763  52.373  0.00  0.00    +0.000 OA
ATOM     44  C   UNL     1      49.172 -52.838  53.259  0.00  0.00    +0.000 C 
ENDBRANCH  42  43
ENDBRANCH  23  42
BRANCH  30  45
ATOM     45  O   UNL     1      50.453 -48.357  47.248  0.00  0.00    +0.000 OA
ATOM     46  H   UNL     1      50.757 -49.258  47.457  0.00  0.00    +0.000 HD
ENDBRANCH  30  45
BRANCH  30  47
ATOM     47  C   UNL     1      48.293 -47.479  46.888  0.00  0.00    +0.000 C 
ATOM     48  C   UNL     1      47.009 -46.846  47.397  0.00  0.00    +0.000 C 
ENDBRANCH  30  47
ENDBRANCH  19  23
BRANCH   7  49
ATOM     49  O   UNL     1      41.597 -56.982  54.356  0.00  0.00    +0.000 OA
ATOM     50  H   UNL     1      41.387 -56.274  53.713  0.00  0.00    +0.000 HD
ENDBRANCH   7  49
BRANCH   7  52
ATOM     51  O   UNL     1      44.576 -58.710  53.301  0.00  0.00    +0.000 OA
ATOM     52  C   UNL     1      43.478 -58.425  53.757  0.00  0.00    +0.000 C 
BRANCH  52  53
ATOM     53  O   UNL     1      42.440 -59.320  53.852  0.00  0.00    +0.000 OA
ATOM     54  C   UNL     1      42.856 -60.672  54.052  0.00  0.00    +0.000 C 
ENDBRANCH  52  53
ENDBRANCH   7  52
BRANCH  20  55
ATOM     55  O   UNL     1      45.377 -52.293  49.316  0.00  0.00    +0.000 OA
ATOM     56  C   UNL     1      44.262 -52.433  48.440  0.00  0.00    +0.000 C 
ENDBRANCH  20  55
BRANCH   6  57
ATOM     57  C   UNL     1      42.242 -54.788  56.498  0.00  0.00    +0.000 C 
ATOM     58  C   UNL     1      42.054 -53.524  55.658  0.00  0.00    +0.000 C 
ENDBRANCH   6  57
BRANCH   9  59
ATOM     59  O   UNL     1      44.669 -57.710  56.191  0.00  0.00    +0.000 OA
BRANCH  59  61
ATOM     60  O   UNL     1      45.550 -59.117  57.770  0.00  0.00    +0.000 OA
ATOM     61  C   UNL     1      44.593 -58.664  57.158  0.00  0.00    +0.000 C 
ATOM     62  C   UNL     1      43.166 -59.052  57.389  0.00  0.00    +0.000 C 
ENDBRANCH  59  61
ENDBRANCH   9  59
TORSDOF 12
ENDMDL
MODEL 4
REMARK VINA RESULT:      -6.2      3.187      9.912
REMARK  Name = 
REMARK  19 active torsions:
REMARK  status: ('A' for Active; 'I' for Inactive)
REMARK    1  A    between atoms: O_1  and  C_20
REMARK    2  A    between atoms: O_1  and  C_36
REMARK    3  A    between atoms: O_2  and  C_18
REMARK    4  A    between atoms: O_3  and  C_28
REMARK    5  A    between atoms: O_3  and  C_42
REMARK    6  A    between atoms: O_5  and  C_34
REMARK    7  A    between atoms: O_5  and  C_50
REMARK    8  A    between atoms: O_7  and  C_40
REMARK    9  A    between atoms: O_7  and  C_56
REMARK   10  A    between atoms: O_9  and  C_46
REMARK   11  A    between atoms: N_11  and  C_30
REMARK   12  A    between atoms: C_17  and  C_23
REMARK   13  A    between atoms: C_18  and  C_28
REMARK   14  A    between atoms: C_23  and  C_32
REMARK   15  A    between atoms: C_33  and  C_35
REMARK   16  A    between atoms: C_35  and  C_40
REMARK   17  A    between atoms: C_36  and  C_41
REMARK   18  A    between atoms: C_46  and  C_53
REMARK   19  A    between atoms: C_53  and  C_57
REMARK                            x       y       z     vdW  Elec       q    Type
REMARK                         _______ _______ _______ _____ _____    ______ ____
ROOT
ATOM      1  N   UNL     1      47.662 -46.426  49.670  0.00  0.00    +0.000 NA
ATOM      2  N   UNL     1      49.353 -49.813  46.763  0.00  0.00    +0.000 N 
ATOM      3  C   UNL     1      48.523 -48.065  48.252  0.00  0.00    +0.000 C 
ATOM      4  C   UNL     1      48.953 -47.052  49.329  0.00  0.00    +0.000 C 
ATOM      5  C   UNL     1      49.745 -48.543  47.443  0.00  0.00    +0.000 C 
ATOM      6  C   UNL     1      50.136 -46.083  48.864  0.00  0.00    +0.000 C 
ATOM      7  C   UNL     1      50.472 -47.463  46.623  0.00  0.00    +0.000 C 
ATOM      8  C   UNL     1      47.330 -47.404  47.535  0.00  0.00    +0.000 C 
ATOM      9  C   UNL     1      50.338 -46.052  47.284  0.00  0.00    +0.000 C 
ATOM     10  C   UNL     1      48.057 -49.439  48.692  0.00  0.00    +0.000 A 
ATOM     11  C   UNL     1      46.902 -46.250  48.438  0.00  0.00    +0.000 C 
ATOM     12  C   UNL     1      48.514 -50.388  47.767  0.00  0.00    +0.000 A 
ATOM     13  C   UNL     1      49.899 -44.644  49.328  0.00  0.00    +0.000 C 
ATOM     14  C   UNL     1      47.762 -45.225  50.484  0.00  0.00    +0.000 C 
ATOM     15  C   UNL     1      48.840 -44.278  50.064  0.00  0.00    +0.000 C 
ATOM     16  C   UNL     1      47.258 -49.791  49.774  0.00  0.00    +0.000 A 
ATOM     17  C   UNL     1      50.427 -50.688  46.295  0.00  0.00    +0.000 C 
ATOM     18  C   UNL     1      48.134 -51.709  47.902  0.00  0.00    +0.000 A 
ATOM     19  C   UNL     1      46.857 -51.130  49.943  0.00  0.00    +0.000 A 
ATOM     20  C   UNL     1      47.305 -52.077  48.975  0.00  0.00    +0.000 A 
ENDROOT
BRANCH  19  23
ATOM     21  N   UNL     1      43.179 -53.301  53.984  0.00  0.00    +0.000 NA
ATOM     22  N   UNL     1      48.051 -52.580  52.104  0.00  0.00    +0.000 N 
ATOM     23  C   UNL     1      45.928 -51.582  51.140  0.00  0.00    +0.000 C 
ATOM     24  C   UNL     1      44.979 -52.794  50.713  0.00  0.00    +0.000 C 
ATOM     25  C   UNL     1      46.785 -52.077  52.354  0.00  0.00    +0.000 A 
ATOM     26  C   UNL     1      44.280 -53.562  51.847  0.00  0.00    +0.000 C 
ATOM     27  C   UNL     1      43.510 -54.805  51.403  0.00  0.00    +0.000 C 
ATOM     28  C   UNL     1      43.302 -52.723  52.657  0.00  0.00    +0.000 C 
ATOM     29  C   UNL     1      46.564 -52.245  53.733  0.00  0.00    +0.000 A 
ATOM     30  C   UNL     1      42.865 -55.544  52.613  0.00  0.00    +0.000 C 
ATOM     31  C   UNL     1      42.639 -54.677  53.919  0.00  0.00    +0.000 C 
ATOM     32  C   UNL     1      45.343 -51.968  54.596  0.00  0.00    +0.000 C 
ATOM     33  C   UNL     1      44.416 -53.204  54.801  0.00  0.00    +0.000 C 
ATOM     34  C   UNL     1      47.770 -52.817  54.285  0.00  0.00    +0.000 A 
ATOM     35  C   UNL     1      48.668 -53.009  53.246  0.00  0.00    +0.000 A 
ATOM     36  C   UNL     1      48.167 -53.206  55.584  0.00  0.00    +0.000 A 
ATOM     37  C   UNL     1      49.945 -53.557  53.425  0.00  0.00    +0.000 A 
ATOM     38  C   UNL     1      49.439 -53.755  55.787  0.00  0.00    +0.000 A 
ATOM     39  C   UNL     1      50.314 -53.927  54.720  0.00  0.00    +0.000 A 
ATOM     40  H   UNL     1      48.485 -52.612  51.191  0.00  0.00    +0.000 HD
BRANCH  23  42
ATOM     41  O   UNL     1      45.319 -49.469  52.339  0.00  0.00    +0.000 OA
ATOM     42  C   UNL     1      45.075 -50.318  51.492  0.00  0.00    +0.000 C 
BRANCH  42  43
ATOM     43  O   UNL     1      43.973 -50.254  50.671  0.00  0.00    +0.000 OA
ATOM     44  C   UNL     1      43.546 -48.924  50.377  0.00  0.00    +0.000 C 
ENDBRANCH  42  43
ENDBRANCH  23  42
BRANCH  30  45
ATOM     45  O   UNL     1      41.558 -55.967  52.149  0.00  0.00    +0.000 OA
ATOM     46  H   UNL     1      41.698 -56.676  51.495  0.00  0.00    +0.000 HD
ENDBRANCH  30  45
BRANCH  30  47
ATOM     47  C   UNL     1      43.595 -56.872  52.923  0.00  0.00    +0.000 C 
ATOM     48  C   UNL     1      43.751 -57.846  51.768  0.00  0.00    +0.000 C 
ENDBRANCH  30  47
ENDBRANCH  19  23
BRANCH   7  49
ATOM     49  O   UNL     1      51.893 -47.809  46.695  0.00  0.00    +0.000 OA
ATOM     50  H   UNL     1      52.174 -47.985  45.773  0.00  0.00    +0.000 HD
ENDBRANCH   7  49
BRANCH   7  52
ATOM     51  O   UNL     1      48.918 -47.657  44.695  0.00  0.00    +0.000 OA
ATOM     52  C   UNL     1      50.043 -47.463  45.134  0.00  0.00    +0.000 C 
BRANCH  52  53
ATOM     53  O   UNL     1      51.117 -47.126  44.346  0.00  0.00    +0.000 OA
ATOM     54  C   UNL     1      50.791 -46.252  43.264  0.00  0.00    +0.000 C 
ENDBRANCH  52  53
ENDBRANCH   7  52
BRANCH  20  55
ATOM     55  O   UNL     1      46.947 -53.387  49.165  0.00  0.00    +0.000 OA
ATOM     56  C   UNL     1      47.957 -54.344  48.858  0.00  0.00    +0.000 C 
ENDBRANCH  20  55
BRANCH   6  57
ATOM     57  C   UNL     1      51.486 -46.539  49.530  0.00  0.00    +0.000 C 
ATOM     58  C   UNL     1      51.371 -47.482  50.729  0.00  0.00    +0.000 C 
ENDBRANCH   6  57
BRANCH   9  59
ATOM     59  O   UNL     1      49.259 -45.280  46.706  0.00  0.00    +0.000 OA
BRANCH  59  61
ATOM     60  O   UNL     1      50.690 -43.747  45.784  0.00  0.00    +0.000 OA
ATOM     61  C   UNL     1      49.576 -44.070  46.173  0.00  0.00    +0.000 C 
ATOM     62  C   UNL     1      48.358 -43.202  46.099  0.00  0.00    +0.000 C 
ENDBRANCH  59  61
ENDBRANCH   9  59
TORSDOF 12
ENDMDL
MODEL 5
REMARK VINA RESULT:      -6.2      5.405      9.931
REMARK  Name = 
REMARK  19 active torsions:
REMARK  status: ('A' for Active; 'I' for Inactive)
REMARK    1  A    between atoms: O_1  and  C_20
REMARK    2  A    between atoms: O_1  and  C_36
REMARK    3  A    between atoms: O_2  and  C_18
REMARK    4  A    between atoms: O_3  and  C_28
REMARK    5  A    between atoms: O_3  and  C_42
REMARK    6  A    between atoms: O_5  and  C_34
REMARK    7  A    between atoms: O_5  and  C_50
REMARK    8  A    between atoms: O_7  and  C_40
REMARK    9  A    between atoms: O_7  and  C_56
REMARK   10  A    between atoms: O_9  and  C_46
REMARK   11  A    between atoms: N_11  and  C_30
REMARK   12  A    between atoms: C_17  and  C_23
REMARK   13  A    between atoms: C_18  and  C_28
REMARK   14  A    between atoms: C_23  and  C_32
REMARK   15  A    between atoms: C_33  and  C_35
REMARK   16  A    between atoms: C_35  and  C_40
REMARK   17  A    between atoms: C_36  and  C_41
REMARK   18  A    between atoms: C_46  and  C_53
REMARK   19  A    between atoms: C_53  and  C_57
REMARK                            x       y       z     vdW  Elec       q    Type
REMARK                         _______ _______ _______ _____ _____    ______ ____
ROOT
ATOM      1  N   UNL     1      47.807 -44.772  46.404  0.00  0.00    +0.000 NA
ATOM      2  N   UNL     1      45.777 -46.872  50.179  0.00  0.00    +0.000 N 
ATOM      3  C   UNL     1      46.839 -45.777  48.272  0.00  0.00    +0.000 C 
ATOM      4  C   UNL     1      47.632 -44.529  47.848  0.00  0.00    +0.000 C 
ATOM      5  C   UNL     1      46.899 -45.962  49.801  0.00  0.00    +0.000 C 
ATOM      6  C   UNL     1      48.953 -44.282  48.714  0.00  0.00    +0.000 C 
ATOM      7  C   UNL     1      48.294 -46.230  50.391  0.00  0.00    +0.000 C 
ATOM      8  C   UNL     1      47.330 -46.899  47.337  0.00  0.00    +0.000 C 
ATOM      9  C   UNL     1      49.419 -45.569  49.528  0.00  0.00    +0.000 C 
ATOM     10  C   UNL     1      45.327 -45.751  48.159  0.00  0.00    +0.000 A 
ATOM     11  C   UNL     1      48.080 -46.191  46.212  0.00  0.00    +0.000 C 
ATOM     12  C   UNL     1      44.781 -46.444  49.249  0.00  0.00    +0.000 A 
ATOM     13  C   UNL     1      50.126 -43.840  47.836  0.00  0.00    +0.000 C 
ATOM     14  C   UNL     1      48.758 -43.889  45.747  0.00  0.00    +0.000 C 
ATOM     15  C   UNL     1      50.020 -43.655  46.513  0.00  0.00    +0.000 C 
ATOM     16  C   UNL     1      44.530 -45.213  47.154  0.00  0.00    +0.000 A 
ATOM     17  C   UNL     1      45.345 -46.867  51.576  0.00  0.00    +0.000 C 
ATOM     18  C   UNL     1      43.415 -46.639  49.317  0.00  0.00    +0.000 A 
ATOM     19  C   UNL     1      43.133 -45.390  47.197  0.00  0.00    +0.000 A 
ATOM     20  C   UNL     1      42.598 -46.124  48.297  0.00  0.00    +0.000 A 
ENDROOT
BRANCH  19  23
ATOM     21  N   UNL     1      39.205 -43.049  43.502  0.00  0.00    +0.000 NA
ATOM     22  N   UNL     1      43.927 -42.995  45.843  0.00  0.00    +0.000 N 
ATOM     23  C   UNL     1      42.183 -44.822  46.069  0.00  0.00    +0.000 C 
ATOM     24  C   UNL     1      40.871 -44.159  46.693  0.00  0.00    +0.000 C 
ATOM     25  C   UNL     1      42.908 -43.710  45.237  0.00  0.00    +0.000 A 
ATOM     26  C   UNL     1      40.033 -43.267  45.763  0.00  0.00    +0.000 C 
ATOM     27  C   UNL     1      38.880 -42.531  46.444  0.00  0.00    +0.000 C 
ATOM     28  C   UNL     1      39.427 -44.001  44.576  0.00  0.00    +0.000 C 
ATOM     29  C   UNL     1      42.728 -43.132  43.968  0.00  0.00    +0.000 A 
ATOM     30  C   UNL     1      38.106 -41.623  45.443  0.00  0.00    +0.000 C 
ATOM     31  C   UNL     1      38.249 -41.996  43.910  0.00  0.00    +0.000 C 
ATOM     32  C   UNL     1      41.716 -43.415  42.870  0.00  0.00    +0.000 C 
ATOM     33  C   UNL     1      40.455 -42.499  42.916  0.00  0.00    +0.000 C 
ATOM     34  C   UNL     1      43.718 -42.088  43.838  0.00  0.00    +0.000 A 
ATOM     35  C   UNL     1      44.443 -42.034  45.019  0.00  0.00    +0.000 A 
ATOM     36  C   UNL     1      44.047 -41.169  42.816  0.00  0.00    +0.000 A 
ATOM     37  C   UNL     1      45.484 -41.124  45.240  0.00  0.00    +0.000 A 
ATOM     38  C   UNL     1      45.085 -40.251  43.014  0.00  0.00    +0.000 A 
ATOM     39  C   UNL     1      45.793 -40.231  44.212  0.00  0.00    +0.000 A 
ATOM     40  H   UNL     1      44.273 -43.170  46.778  0.00  0.00    +0.000 HD
BRANCH  23  42
ATOM     41  O   UNL     1      40.747 -46.683  45.202  0.00  0.00    +0.000 OA
ATOM     42  C   UNL     1      41.803 -46.063  45.195  0.00  0.00    +0.000 C 
BRANCH  42  43
ATOM     43  O   UNL     1      42.841 -46.375  44.348  0.00  0.00    +0.000 OA
ATOM     44  C   UNL     1      43.165 -47.764  44.315  0.00  0.00    +0.000 C 
ENDBRANCH  42  43
ENDBRANCH  23  42
BRANCH  30  45
ATOM     45  O   UNL     1      36.707 -41.776  45.791  0.00  0.00    +0.000 OA
ATOM     46  H   UNL     1      36.297 -42.335  45.108  0.00  0.00    +0.000 HD
ENDBRANCH  30  45
BRANCH  30  47
ATOM     47  C   UNL     1      38.389 -40.124  45.699  0.00  0.00    +0.000 C 
ATOM     48  C   UNL     1      38.976 -39.336  44.541  0.00  0.00    +0.000 C 
ENDBRANCH  30  47
ENDBRANCH  19  23
BRANCH   7  49
ATOM     49  O   UNL     1      48.313 -45.535  51.679  0.00  0.00    +0.000 OA
ATOM     50  H   UNL     1      48.202 -44.584  51.474  0.00  0.00    +0.000 HD
ENDBRANCH   7  49
BRANCH   7  52
ATOM     51  O   UNL     1      48.576 -48.627  49.806  0.00  0.00    +0.000 OA
ATOM     52  C   UNL     1      48.549 -47.737  50.645  0.00  0.00    +0.000 C 
BRANCH  52  53
ATOM     53  O   UNL     1      48.832 -47.939  51.974  0.00  0.00    +0.000 OA
ATOM     54  C   UNL     1      48.258 -49.131  52.514  0.00  0.00    +0.000 C 
ENDBRANCH  52  53
ENDBRANCH   7  52
BRANCH  20  55
ATOM     55  O   UNL     1      41.234 -46.259  48.356  0.00  0.00    +0.000 OA
ATOM     56  C   UNL     1      40.689 -46.337  49.670  0.00  0.00    +0.000 C 
ENDBRANCH  20  55
BRANCH   6  57
ATOM     57  C   UNL     1      48.706 -43.110  49.734  0.00  0.00    +0.000 C 
ATOM     58  C   UNL     1      47.770 -41.990  49.274  0.00  0.00    +0.000 C 
ENDBRANCH   6  57
BRANCH   9  59
ATOM     59  O   UNL     1      50.009 -46.505  48.594  0.00  0.00    +0.000 OA
BRANCH  59  61
ATOM     60  O   UNL     1      52.001 -46.594  49.723  0.00  0.00    +0.000 OA
ATOM     61  C   UNL     1      51.347 -46.726  48.698  0.00  0.00    +0.000 C 
ATOM     62  C   UNL     1      51.897 -47.189  47.384  0.00  0.00    +0.000 C 
ENDBRANCH  59  61
ENDBRANCH   9  59
TORSDOF 12
ENDMDL
MODEL 6
REMARK VINA RESULT:      -6.2      2.355     10.128
REMARK  Name = 
REMARK  19 active torsions:
REMARK  status: ('A' for Active; 'I' for Inactive)
REMARK    1  A    between atoms: O_1  and  C_20
REMARK    2  A    between atoms: O_1  and  C_36
REMARK    3  A    between atoms: O_2  and  C_18
REMARK    4  A    between atoms: O_3  and  C_28
REMARK    5  A    between atoms: O_3  and  C_42
REMARK    6  A    between atoms: O_5  and  C_34
REMARK    7  A    between atoms: O_5  and  C_50
REMARK    8  A    between atoms: O_7  and  C_40
REMARK    9  A    between atoms: O_7  and  C_56
REMARK   10  A    between atoms: O_9  and  C_46
REMARK   11  A    between atoms: N_11  and  C_30
REMARK   12  A    between atoms: C_17  and  C_23
REMARK   13  A    between atoms: C_18  and  C_28
REMARK   14  A    between atoms: C_23  and  C_32
REMARK   15  A    between atoms: C_33  and  C_35
REMARK   16  A    between atoms: C_35  and  C_40
REMARK   17  A    between atoms: C_36  and  C_41
REMARK   18  A    between atoms: C_46  and  C_53
REMARK   19  A    between atoms: C_53  and  C_57
REMARK                            x       y       z     vdW  Elec       q    Type
REMARK                         _______ _______ _______ _____ _____    ______ ____
ROOT
ATOM      1  N   UNL     1      44.711 -47.727  50.533  0.00  0.00    +0.000 NA
ATOM      2  N   UNL     1      41.470 -51.176  49.920  0.00  0.00    +0.000 N 
ATOM      3  C   UNL     1      43.130 -49.407  50.195  0.00  0.00    +0.000 C 
ATOM      4  C   UNL     1      44.264 -48.654  49.477  0.00  0.00    +0.000 C 
ATOM      5  C   UNL     1      42.231 -50.131  49.173  0.00  0.00    +0.000 C 
ATOM      6  C   UNL     1      43.826 -48.014  48.079  0.00  0.00    +0.000 C 
ATOM      7  C   UNL     1      41.469 -49.227  48.190  0.00  0.00    +0.000 C 
ATOM      8  C   UNL     1      42.522 -48.379  51.169  0.00  0.00    +0.000 C 
ATOM      9  C   UNL     1      42.247 -47.900  47.909  0.00  0.00    +0.000 C 
ATOM     10  C   UNL     1      43.479 -50.631  51.020  0.00  0.00    +0.000 A 
ATOM     11  C   UNL     1      43.533 -47.236  51.237  0.00  0.00    +0.000 C 
ATOM     12  C   UNL     1      42.462 -51.583  50.866  0.00  0.00    +0.000 A 
ATOM     13  C   UNL     1      44.414 -46.614  47.893  0.00  0.00    +0.000 C 
ATOM     14  C   UNL     1      45.614 -46.678  50.082  0.00  0.00    +0.000 C 
ATOM     15  C   UNL     1      45.223 -46.035  48.791  0.00  0.00    +0.000 C 
ATOM     16  C   UNL     1      44.564 -50.841  51.863  0.00  0.00    +0.000 A 
ATOM     17  C   UNL     1      40.886 -52.269  49.145  0.00  0.00    +0.000 C 
ATOM     18  C   UNL     1      42.507 -52.753  51.600  0.00  0.00    +0.000 A 
ATOM     19  C   UNL     1      44.642 -52.026  52.621  0.00  0.00    +0.000 A 
ATOM     20  C   UNL     1      43.583 -52.970  52.476  0.00  0.00    +0.000 A 
ENDROOT
BRANCH  19  23
ATOM     21  N   UNL     1      48.629 -53.304  56.750  0.00  0.00    +0.000 NA
ATOM     22  N   UNL     1      46.291 -54.316  52.135  0.00  0.00    +0.000 N 
ATOM     23  C   UNL     1      45.840 -52.307  53.615  0.00  0.00    +0.000 C 
ATOM     24  C   UNL     1      45.312 -52.854  55.019  0.00  0.00    +0.000 C 
ATOM     25  C   UNL     1      46.804 -53.395  53.032  0.00  0.00    +0.000 A 
ATOM     26  C   UNL     1      46.354 -53.494  55.952  0.00  0.00    +0.000 C 
ATOM     27  C   UNL     1      45.779 -54.142  57.210  0.00  0.00    +0.000 C 
ATOM     28  C   UNL     1      47.439 -52.537  56.423  0.00  0.00    +0.000 C 
ATOM     29  C   UNL     1      48.139 -53.776  53.260  0.00  0.00    +0.000 A 
ATOM     30  C   UNL     1      46.894 -54.798  58.079  0.00  0.00    +0.000 C 
ATOM     31  C   UNL     1      48.364 -54.256  57.851  0.00  0.00    +0.000 C 
ATOM     32  C   UNL     1      49.196 -53.216  54.199  0.00  0.00    +0.000 C 
ATOM     33  C   UNL     1      49.274 -53.945  55.574  0.00  0.00    +0.000 C 
ATOM     34  C   UNL     1      48.398 -54.923  52.421  0.00  0.00    +0.000 A 
ATOM     35  C   UNL     1      47.230 -55.227  51.738  0.00  0.00    +0.000 A 
ATOM     36  C   UNL     1      49.529 -55.741  52.199  0.00  0.00    +0.000 A 
ATOM     37  C   UNL     1      47.123 -56.295  50.838  0.00  0.00    +0.000 A 
ATOM     38  C   UNL     1      49.445 -56.813  51.303  0.00  0.00    +0.000 A 
ATOM     39  C   UNL     1      48.257 -57.084  50.632  0.00  0.00    +0.000 A 
ATOM     40  H   UNL     1      45.340 -54.313  51.790  0.00  0.00    +0.000 HD
BRANCH  23  42
ATOM     41  O   UNL     1      46.338 -50.091  54.673  0.00  0.00    +0.000 OA
ATOM     42  C   UNL     1      46.548 -50.924  53.799  0.00  0.00    +0.000 C 
BRANCH  42  43
ATOM     43  O   UNL     1      47.508 -50.756  52.829  0.00  0.00    +0.000 OA
ATOM     44  C   UNL     1      47.914 -49.401  52.644  0.00  0.00    +0.000 C 
ENDBRANCH  42  43
ENDBRANCH  23  42
BRANCH  30  45
ATOM     45  O   UNL     1      46.535 -54.496  59.451  0.00  0.00    +0.000 OA
ATOM     46  H   UNL     1      46.613 -53.533  59.566  0.00  0.00    +0.000 HD
ENDBRANCH  30  45
BRANCH  30  47
ATOM     47  C   UNL     1      46.831 -56.342  58.012  0.00  0.00    +0.000 C 
ATOM     48  C   UNL     1      47.462 -56.994  56.793  0.00  0.00    +0.000 C 
ENDBRANCH  30  47
ENDBRANCH  19  23
BRANCH   7  49
ATOM     49  O   UNL     1      41.449 -49.960  46.922  0.00  0.00    +0.000 OA
ATOM     50  H   UNL     1      40.537 -50.303  46.824  0.00  0.00    +0.000 HD
ENDBRANCH   7  49
BRANCH   7  52
ATOM     51  O   UNL     1      39.608 -48.775  49.771  0.00  0.00    +0.000 OA
ATOM     52  C   UNL     1      40.005 -48.975  48.631  0.00  0.00    +0.000 C 
BRANCH  52  53
ATOM     53  O   UNL     1      39.192 -48.926  47.525  0.00  0.00    +0.000 OA
ATOM     54  C   UNL     1      37.969 -49.650  47.671  0.00  0.00    +0.000 C 
ENDBRANCH  52  53
ENDBRANCH   7  52
BRANCH  20  55
ATOM     55  O   UNL     1      43.683 -54.140  53.184  0.00  0.00    +0.000 OA
ATOM     56  C   UNL     1      42.527 -54.972  53.149  0.00  0.00    +0.000 C 
ENDBRANCH  20  55
BRANCH   6  57
ATOM     57  C   UNL     1      44.393 -48.886  46.898  0.00  0.00    +0.000 C 
ATOM     58  C   UNL     1      45.459 -49.920  47.263  0.00  0.00    +0.000 C 
ENDBRANCH   6  57
BRANCH   9  59
ATOM     59  O   UNL     1      41.781 -46.809  48.739  0.00  0.00    +0.000 OA
BRANCH  59  61
ATOM     60  O   UNL     1      39.977 -45.398  48.805  0.00  0.00    +0.000 OA
ATOM     61  C   UNL     1      40.878 -45.952  48.191  0.00  0.00    +0.000 C 
ATOM     62  C   UNL     1      41.168 -45.758  46.735  0.00  0.00    +0.000 C 
ENDBRANCH  59  61
ENDBRANCH   9  59
TORSDOF 12
ENDMDL
MODEL 7
REMARK VINA RESULT:      -6.1      1.707      2.164
REMARK  Name = 
REMARK  19 active torsions:
REMARK  status: ('A' for Active; 'I' for Inactive)
REMARK    1  A    between atoms: O_1  and  C_20
REMARK    2  A    between atoms: O_1  and  C_36
REMARK    3  A    between atoms: O_2  and  C_18
REMARK    4  A    between atoms: O_3  and  C_28
REMARK    5  A    between atoms: O_3  and  C_42
REMARK    6  A    between atoms: O_5  and  C_34
REMARK    7  A    between atoms: O_5  and  C_50
REMARK    8  A    between atoms: O_7  and  C_40
REMARK    9  A    between atoms: O_7  and  C_56
REMARK   10  A    between atoms: O_9  and  C_46
REMARK   11  A    between atoms: N_11  and  C_30
REMARK   12  A    between atoms: C_17  and  C_23
REMARK   13  A    between atoms: C_18  and  C_28
REMARK   14  A    between atoms: C_23  and  C_32
REMARK   15  A    between atoms: C_33  and  C_35
REMARK   16  A    between atoms: C_35  and  C_40
REMARK   17  A    between atoms: C_36  and  C_41
REMARK   18  A    between atoms: C_46  and  C_53
REMARK   19  A    between atoms: C_53  and  C_57
REMARK                            x       y       z     vdW  Elec       q    Type
REMARK                         _______ _______ _______ _____ _____    ______ ____
ROOT
ATOM      1  N   UNL     1      42.828 -54.886  54.901  0.00  0.00    +0.000 NA
ATOM      2  N   UNL     1      47.579 -54.437  54.958  0.00  0.00    +0.000 N 
ATOM      3  C   UNL     1      45.152 -54.705  54.932  0.00  0.00    +0.000 C 
ATOM      4  C   UNL     1      44.023 -55.704  54.621  0.00  0.00    +0.000 C 
ATOM      5  C   UNL     1      46.491 -55.446  55.121  0.00  0.00    +0.000 C 
ATOM      6  C   UNL     1      44.160 -57.092  55.403  0.00  0.00    +0.000 C 
ATOM      7  C   UNL     1      46.559 -56.416  56.312  0.00  0.00    +0.000 C 
ATOM      8  C   UNL     1      44.597 -53.811  56.057  0.00  0.00    +0.000 C 
ATOM      9  C   UNL     1      45.154 -57.017  56.645  0.00  0.00    +0.000 C 
ATOM     10  C   UNL     1      45.622 -53.774  53.831  0.00  0.00    +0.000 A 
ATOM     11  C   UNL     1      43.094 -54.081  56.086  0.00  0.00    +0.000 C 
ATOM     12  C   UNL     1      47.011 -53.615  53.936  0.00  0.00    +0.000 A 
ATOM     13  C   UNL     1      42.805 -57.579  55.922  0.00  0.00    +0.000 C 
ATOM     14  C   UNL     1      41.579 -55.630  54.956  0.00  0.00    +0.000 C 
ATOM     15  C   UNL     1      41.658 -56.922  55.703  0.00  0.00    +0.000 C 
ATOM     16  C   UNL     1      44.873 -53.097  52.874  0.00  0.00    +0.000 A 
ATOM     17  C   UNL     1      48.922 -54.933  54.661  0.00  0.00    +0.000 C 
ATOM     18  C   UNL     1      47.662 -52.732  53.097  0.00  0.00    +0.000 A 
ATOM     19  C   UNL     1      45.508 -52.193  51.999  0.00  0.00    +0.000 A 
ATOM     20  C   UNL     1      46.916 -52.020  52.142  0.00  0.00    +0.000 A 
ENDROOT
BRANCH  19  23
ATOM     21  N   UNL     1      41.954 -49.317  48.302  0.00  0.00    +0.000 NA
ATOM     22  N   UNL     1      45.570 -49.334  52.139  0.00  0.00    +0.000 N 
ATOM     23  C   UNL     1      44.702 -51.377  50.911  0.00  0.00    +0.000 C 
ATOM     24  C   UNL     1      43.129 -51.460  51.170  0.00  0.00    +0.000 C 
ATOM     25  C   UNL     1      45.094 -49.861  50.950  0.00  0.00    +0.000 A 
ATOM     26  C   UNL     1      42.246 -50.449  50.418  0.00  0.00    +0.000 C 
ATOM     27  C   UNL     1      40.771 -50.464  50.815  0.00  0.00    +0.000 C 
ATOM     28  C   UNL     1      42.281 -50.597  48.904  0.00  0.00    +0.000 C 
ATOM     29  C   UNL     1      45.001 -48.779  50.055  0.00  0.00    +0.000 A 
ATOM     30  C   UNL     1      39.956 -49.388  50.037  0.00  0.00    +0.000 C 
ATOM     31  C   UNL     1      40.591 -48.882  48.677  0.00  0.00    +0.000 C 
ATOM     32  C   UNL     1      44.474 -48.697  48.631  0.00  0.00    +0.000 C 
ATOM     33  C   UNL     1      42.979 -48.265  48.531  0.00  0.00    +0.000 C 
ATOM     34  C   UNL     1      45.491 -47.613  50.753  0.00  0.00    +0.000 A 
ATOM     35  C   UNL     1      45.835 -47.997  52.040  0.00  0.00    +0.000 A 
ATOM     36  C   UNL     1      45.653 -46.254  50.400  0.00  0.00    +0.000 A 
ATOM     37  C   UNL     1      46.341 -47.108  52.996  0.00  0.00    +0.000 A 
ATOM     38  C   UNL     1      46.159 -45.348  51.339  0.00  0.00    +0.000 A 
ATOM     39  C   UNL     1      46.498 -45.772  52.620  0.00  0.00    +0.000 A 
ATOM     40  H   UNL     1      45.727 -49.871  52.982  0.00  0.00    +0.000 HD
BRANCH  23  42
ATOM     41  O   UNL     1      45.860 -51.643  48.705  0.00  0.00    +0.000 OA
ATOM     42  C   UNL     1      45.067 -52.049  49.546  0.00  0.00    +0.000 C 
BRANCH  42  43
ATOM     43  O   UNL     1      44.377 -53.230  49.407  0.00  0.00    +0.000 OA
ATOM     44  C   UNL     1      44.310 -53.707  48.063  0.00  0.00    +0.000 C 
ENDBRANCH  42  43
ENDBRANCH  23  42
BRANCH  30  45
ATOM     45  O   UNL     1      38.696 -50.026  49.710  0.00  0.00    +0.000 OA
ATOM     46  H   UNL     1      38.829 -50.523  48.883  0.00  0.00    +0.000 HD
ENDBRANCH  30  45
BRANCH  30  47
ATOM     47  C   UNL     1      39.547 -48.211  50.954  0.00  0.00    +0.000 C 
ATOM     48  C   UNL     1      40.628 -47.193  51.274  0.00  0.00    +0.000 C 
ENDBRANCH  30  47
ENDBRANCH  19  23
BRANCH   7  49
ATOM     49  O   UNL     1      47.379 -57.540  55.854  0.00  0.00    +0.000 OA
ATOM     50  H   UNL     1      46.782 -58.115  55.333  0.00  0.00    +0.000 HD
ENDBRANCH   7  49
BRANCH   7  52
ATOM     51  O   UNL     1      47.013 -54.685  58.033  0.00  0.00    +0.000 OA
ATOM     52  C   UNL     1      47.243 -55.785  57.551  0.00  0.00    +0.000 C 
BRANCH  52  53
ATOM     53  O   UNL     1      48.118 -56.689  58.104  0.00  0.00    +0.000 OA
ATOM     54  C   UNL     1      48.118 -56.695  59.533  0.00  0.00    +0.000 C 
ENDBRANCH  52  53
ENDBRANCH   7  52
BRANCH  20  55
ATOM     55  O   UNL     1      47.536 -51.170  51.262  0.00  0.00    +0.000 OA
ATOM     56  C   UNL     1      48.754 -50.596  51.729  0.00  0.00    +0.000 C 
ENDBRANCH  20  55
BRANCH   6  57
ATOM     57  C   UNL     1      44.675 -58.205  54.418  0.00  0.00    +0.000 C 
ATOM     58  C   UNL     1      44.634 -57.868  52.926  0.00  0.00    +0.000 C 
ENDBRANCH   6  57
BRANCH   9  59
ATOM     59  O   UNL     1      44.492 -56.295  57.711  0.00  0.00    +0.000 OA
BRANCH  59  61
ATOM     60  O   UNL     1      44.858 -57.984  59.214  0.00  0.00    +0.000 OA
ATOM     61  C   UNL     1      44.273 -56.966  58.874  0.00  0.00    +0.000 C 
ATOM     62  C   UNL     1      43.239 -56.257  59.692  0.00  0.00    +0.000 C 
ENDBRANCH  59  61
ENDBRANCH   9  59
TORSDOF 12
ENDMDL
MODEL 8
REMARK VINA RESULT:      -6.1      5.337      9.374
REMARK  Name = 
REMARK  19 active torsions:
REMARK  status: ('A' for Active; 'I' for Inactive)
REMARK    1  A    between atoms: O_1  and  C_20
REMARK    2  A    between atoms: O_1  and  C_36
REMARK    3  A    between atoms: O_2  and  C_18
REMARK    4  A    between atoms: O_3  and  C_28
REMARK    5  A    between atoms: O_3  and  C_42
REMARK    6  A    between atoms: O_5  and  C_34
REMARK    7  A    between atoms: O_5  and  C_50
REMARK    8  A    between atoms: O_7  and  C_40
REMARK    9  A    between atoms: O_7  and  C_56
REMARK   10  A    between atoms: O_9  and  C_46
REMARK   11  A    between atoms: N_11  and  C_30
REMARK   12  A    between atoms: C_17  and  C_23
REMARK   13  A    between atoms: C_18  and  C_28
REMARK   14  A    between atoms: C_23  and  C_32
REMARK   15  A    between atoms: C_33  and  C_35
REMARK   16  A    between atoms: C_35  and  C_40
REMARK   17  A    between atoms: C_36  and  C_41
REMARK   18  A    between atoms: C_46  and  C_53
REMARK   19  A    between atoms: C_53  and  C_57
REMARK                            x       y       z     vdW  Elec       q    Type
REMARK                         _______ _______ _______ _____ _____    ______ ____
ROOT
ATOM      1  N   UNL     1      46.162 -48.192  50.563  0.00  0.00    +0.000 NA
ATOM      2  N   UNL     1      47.021 -45.766  46.543  0.00  0.00    +0.000 N 
ATOM      3  C   UNL     1      46.607 -47.034  48.588  0.00  0.00    +0.000 C 
ATOM      4  C   UNL     1      46.689 -48.441  49.208  0.00  0.00    +0.000 C 
ATOM      5  C   UNL     1      47.488 -46.948  47.326  0.00  0.00    +0.000 C 
ATOM      6  C   UNL     1      48.137 -49.109  49.097  0.00  0.00    +0.000 C 
ATOM      7  C   UNL     1      48.999 -47.134  47.548  0.00  0.00    +0.000 C 
ATOM      8  C   UNL     1      46.842 -46.066  49.764  0.00  0.00    +0.000 C 
ATOM      9  C   UNL     1      49.290 -48.057  48.776  0.00  0.00    +0.000 C 
ATOM     10  C   UNL     1      45.312 -46.606  47.926  0.00  0.00    +0.000 A 
ATOM     11  C   UNL     1      46.681 -46.911  51.025  0.00  0.00    +0.000 C 
ATOM     12  C   UNL     1      45.616 -45.835  46.796  0.00  0.00    +0.000 A 
ATOM     13  C   UNL     1      48.520 -49.837  50.387  0.00  0.00    +0.000 C 
ATOM     14  C   UNL     1      46.355 -49.286  51.503  0.00  0.00    +0.000 C 
ATOM     15  C   UNL     1      47.708 -49.919  51.450  0.00  0.00    +0.000 C 
ATOM     16  C   UNL     1      44.001 -46.836  48.331  0.00  0.00    +0.000 A 
ATOM     17  C   UNL     1      47.381 -45.708  45.128  0.00  0.00    +0.000 C 
ATOM     18  C   UNL     1      44.594 -45.247  46.076  0.00  0.00    +0.000 A 
ATOM     19  C   UNL     1      42.936 -46.255  47.615  0.00  0.00    +0.000 A 
ATOM     20  C   UNL     1      43.266 -45.447  46.486  0.00  0.00    +0.000 A 
ENDROOT
BRANCH  19  23
ATOM     21  N   UNL     1      37.225 -46.383  49.007  0.00  0.00    +0.000 NA
ATOM     22  N   UNL     1      41.238 -47.782  45.888  0.00  0.00    +0.000 N 
ATOM     23  C   UNL     1      41.428 -46.461  48.045  0.00  0.00    +0.000 C 
ATOM     24  C   UNL     1      40.583 -45.118  47.860  0.00  0.00    +0.000 C 
ATOM     25  C   UNL     1      40.743 -47.558  47.162  0.00  0.00    +0.000 A 
ATOM     26  C   UNL     1      39.052 -45.249  47.901  0.00  0.00    +0.000 C 
ATOM     27  C   UNL     1      38.288 -43.970  47.566  0.00  0.00    +0.000 C 
ATOM     28  C   UNL     1      38.504 -45.735  49.236  0.00  0.00    +0.000 C 
ATOM     29  C   UNL     1      39.611 -48.383  47.290  0.00  0.00    +0.000 A 
ATOM     30  C   UNL     1      36.746 -44.197  47.593  0.00  0.00    +0.000 C 
ATOM     31  C   UNL     1      36.240 -45.437  48.437  0.00  0.00    +0.000 C 
ATOM     32  C   UNL     1      38.596 -48.529  48.413  0.00  0.00    +0.000 C 
ATOM     33  C   UNL     1      37.321 -47.650  48.236  0.00  0.00    +0.000 C 
ATOM     34  C   UNL     1      39.497 -49.135  46.061  0.00  0.00    +0.000 A 
ATOM     35  C   UNL     1      40.523 -48.736  45.218  0.00  0.00    +0.000 A 
ATOM     36  C   UNL     1      38.592 -50.112  45.588  0.00  0.00    +0.000 A 
ATOM     37  C   UNL     1      40.709 -49.260  43.933  0.00  0.00    +0.000 A 
ATOM     38  C   UNL     1      38.758 -50.650  44.307  0.00  0.00    +0.000 A 
ATOM     39  C   UNL     1      39.804 -50.229  43.492  0.00  0.00    +0.000 A 
ATOM     40  H   UNL     1      42.046 -47.316  45.497  0.00  0.00    +0.000 HD
BRANCH  23  42
ATOM     41  O   UNL     1      41.411 -47.994  50.026  0.00  0.00    +0.000 OA
ATOM     42  C   UNL     1      41.487 -46.866  49.555  0.00  0.00    +0.000 C 
BRANCH  42  43
ATOM     43  O   UNL     1      41.675 -45.747  50.332  0.00  0.00    +0.000 OA
ATOM     44  C   UNL     1      42.392 -45.996  51.541  0.00  0.00    +0.000 C 
ENDBRANCH  42  43
ENDBRANCH  23  42
BRANCH  30  45
ATOM     45  O   UNL     1      36.196 -43.006  48.209  0.00  0.00    +0.000 OA
ATOM     46  H   UNL     1      35.973 -42.385  47.493  0.00  0.00    +0.000 HD
ENDBRANCH  30  45
BRANCH  30  47
ATOM     47  C   UNL     1      36.146 -44.187  46.168  0.00  0.00    +0.000 C 
ATOM     48  C   UNL     1      36.353 -45.440  45.335  0.00  0.00    +0.000 C 
ENDBRANCH  30  47
ENDBRANCH  19  23
BRANCH   7  49
ATOM     49  O   UNL     1      49.479 -47.864  46.372  0.00  0.00    +0.000 OA
ATOM     50  H   UNL     1      49.382 -47.249  45.616  0.00  0.00    +0.000 HD
ENDBRANCH   7  49
BRANCH   7  52
ATOM     51  O   UNL     1      49.461 -44.819  48.319  0.00  0.00    +0.000 OA
ATOM     52  C   UNL     1      49.755 -45.784  47.628  0.00  0.00    +0.000 C 
BRANCH  52  53
ATOM     53  O   UNL     1      50.887 -45.844  46.851  0.00  0.00    +0.000 OA
ATOM     54  C   UNL     1      50.988 -44.791  45.891  0.00  0.00    +0.000 C 
ENDBRANCH  52  53
ENDBRANCH   7  52
BRANCH  20  55
ATOM     55  O   UNL     1      42.224 -44.917  45.769  0.00  0.00    +0.000 OA
ATOM     56  C   UNL     1      42.490 -44.695  44.387  0.00  0.00    +0.000 C 
ENDBRANCH  20  55
BRANCH   6  57
ATOM     57  C   UNL     1      48.131 -50.201  47.965  0.00  0.00    +0.000 C 
ATOM     58  C   UNL     1      46.760 -50.631  47.439  0.00  0.00    +0.000 C 
ENDBRANCH   6  57
BRANCH   9  59
ATOM     59  O   UNL     1      49.554 -47.296  49.979  0.00  0.00    +0.000 OA
BRANCH  59  61
ATOM     60  O   UNL     1      51.811 -46.917  49.875  0.00  0.00    +0.000 OA
ATOM     61  C   UNL     1      50.823 -47.326  50.468  0.00  0.00    +0.000 C 
ATOM     62  C   UNL     1      50.830 -47.900  51.851  0.00  0.00    +0.000 C 
ENDBRANCH  59  61
ENDBRANCH   9  59
TORSDOF 12
ENDMDL
MODEL 9
REMARK VINA RESULT:      -6.1      2.483      9.740
REMARK  Name = 
REMARK  19 active torsions:
REMARK  status: ('A' for Active; 'I' for Inactive)
REMARK    1  A    between atoms: O_1  and  C_20
REMARK    2  A    between atoms: O_1  and  C_36
REMARK    3  A    between atoms: O_2  and  C_18
REMARK    4  A    between atoms: O_3  and  C_28
REMARK    5  A    between atoms: O_3  and  C_42
REMARK    6  A    between atoms: O_5  and  C_34
REMARK    7  A    between atoms: O_5  and  C_50
REMARK    8  A    between atoms: O_7  and  C_40
REMARK    9  A    between atoms: O_7  and  C_56
REMARK   10  A    between atoms: O_9  and  C_46
REMARK   11  A    between atoms: N_11  and  C_30
REMARK   12  A    between atoms: C_17  and  C_23
REMARK   13  A    between atoms: C_18  and  C_28
REMARK   14  A    between atoms: C_23  and  C_32
REMARK   15  A    between atoms: C_33  and  C_35
REMARK   16  A    between atoms: C_35  and  C_40
REMARK   17  A    between atoms: C_36  and  C_41
REMARK   18  A    between atoms: C_46  and  C_53
REMARK   19  A    between atoms: C_53  and  C_57
REMARK                            x       y       z     vdW  Elec       q    Type
REMARK                         _______ _______ _______ _____ _____    ______ ____
ROOT
ATOM      1  N   UNL     1      41.776 -51.481  49.430  0.00  0.00    +0.000 NA
ATOM      2  N   UNL     1      44.457 -47.659  50.426  0.00  0.00    +0.000 N 
ATOM      3  C   UNL     1      43.055 -49.596  49.931  0.00  0.00    +0.000 C 
ATOM      4  C   UNL     1      41.745 -50.304  50.320  0.00  0.00    +0.000 C 
ATOM      5  C   UNL     1      43.041 -48.133  50.416  0.00  0.00    +0.000 C 
ATOM      6  C   UNL     1      40.457 -49.362  50.241  0.00  0.00    +0.000 C 
ATOM      7  C   UNL     1      41.967 -47.227  49.790  0.00  0.00    +0.000 C 
ATOM      8  C   UNL     1      43.253 -49.914  48.436  0.00  0.00    +0.000 C 
ATOM      9  C   UNL     1      40.696 -48.042  49.382  0.00  0.00    +0.000 C 
ATOM     10  C   UNL     1      44.336 -50.001  50.633  0.00  0.00    +0.000 A 
ATOM     11  C   UNL     1      42.286 -51.056  48.132  0.00  0.00    +0.000 C 
ATOM     12  C   UNL     1      45.121 -48.857  50.835  0.00  0.00    +0.000 A 
ATOM     13  C   UNL     1      39.258 -50.097  49.637  0.00  0.00    +0.000 C 
ATOM     14  C   UNL     1      40.530 -52.229  49.364  0.00  0.00    +0.000 C 
ATOM     15  C   UNL     1      39.303 -51.383  49.261  0.00  0.00    +0.000 C 
ATOM     16  C   UNL     1      44.775 -51.269  50.998  0.00  0.00    +0.000 A 
ATOM     17  C   UNL     1      44.771 -46.484  51.236  0.00  0.00    +0.000 C 
ATOM     18  C   UNL     1      46.386 -48.985  51.375  0.00  0.00    +0.000 A 
ATOM     19  C   UNL     1      46.058 -51.433  51.556  0.00  0.00    +0.000 A 
ATOM     20  C   UNL     1      46.855 -50.262  51.725  0.00  0.00    +0.000 A 
ENDROOT
BRANCH  19  23
ATOM     21  N   UNL     1      48.640 -56.386  53.392  0.00  0.00    +0.000 NA
ATOM     22  N   UNL     1      44.756 -52.833  53.687  0.00  0.00    +0.000 N 
ATOM     23  C   UNL     1      46.618 -52.854  51.965  0.00  0.00    +0.000 C 
ATOM     24  C   UNL     1      48.002 -52.728  52.752  0.00  0.00    +0.000 C 
ATOM     25  C   UNL     1      45.616 -53.595  52.914  0.00  0.00    +0.000 A 
ATOM     26  C   UNL     1      48.486 -53.976  53.510  0.00  0.00    +0.000 C 
ATOM     27  C   UNL     1      49.729 -53.762  54.373  0.00  0.00    +0.000 C 
ATOM     28  C   UNL     1      48.790 -55.169  52.615  0.00  0.00    +0.000 C 
ATOM     29  C   UNL     1      45.397 -54.932  53.291  0.00  0.00    +0.000 A 
ATOM     30  C   UNL     1      50.131 -55.061  55.133  0.00  0.00    +0.000 C 
ATOM     31  C   UNL     1      49.595 -56.420  54.521  0.00  0.00    +0.000 C 
ATOM     32  C   UNL     1      46.084 -56.221  52.866  0.00  0.00    +0.000 C 
ATOM     33  C   UNL     1      47.241 -56.665  53.811  0.00  0.00    +0.000 C 
ATOM     34  C   UNL     1      44.339 -54.924  54.275  0.00  0.00    +0.000 A 
ATOM     35  C   UNL     1      43.968 -53.606  54.493  0.00  0.00    +0.000 A 
ATOM     36  C   UNL     1      43.678 -55.930  55.014  0.00  0.00    +0.000 A 
ATOM     37  C   UNL     1      42.968 -53.230  55.399  0.00  0.00    +0.000 A 
ATOM     38  C   UNL     1      42.674 -55.578  55.924  0.00  0.00    +0.000 A 
ATOM     39  C   UNL     1      42.325 -54.245  56.112  0.00  0.00    +0.000 A 
ATOM     40  H   UNL     1      44.696 -51.824  53.652  0.00  0.00    +0.000 HD
BRANCH  23  42
ATOM     41  O   UNL     1      46.124 -54.498  50.141  0.00  0.00    +0.000 OA
ATOM     42  C   UNL     1      46.826 -53.613  50.613  0.00  0.00    +0.000 C 
BRANCH  42  43
ATOM     43  O   UNL     1      47.936 -53.122  49.966  0.00  0.00    +0.000 OA
ATOM     44  C   UNL     1      47.714 -52.805  48.593  0.00  0.00    +0.000 C 
ENDBRANCH  42  43
ENDBRANCH  23  42
BRANCH  30  45
ATOM     45  O   UNL     1      51.578 -55.105  55.074  0.00  0.00    +0.000 OA
ATOM     46  H   UNL     1      51.846 -56.032  55.208  0.00  0.00    +0.000 HD
ENDBRANCH  30  45
BRANCH  30  47
ATOM     47  C   UNL     1      49.826 -54.951  56.645  0.00  0.00    +0.000 C 
ATOM     48  C   UNL     1      49.811 -53.551  57.235  0.00  0.00    +0.000 C 
ENDBRANCH  30  47
ENDBRANCH  19  23
BRANCH   7  49
ATOM     49  O   UNL     1      41.542 -46.327  50.864  0.00  0.00    +0.000 OA
ATOM     50  H   UNL     1      40.956 -45.664  50.444  0.00  0.00    +0.000 HD
ENDBRANCH   7  49
BRANCH   7  52
ATOM     51  O   UNL     1      43.544 -46.576  47.986  0.00  0.00    +0.000 OA
ATOM     52  C   UNL     1      42.522 -46.370  48.625  0.00  0.00    +0.000 C 
BRANCH  52  53
ATOM     53  O   UNL     1      41.641 -45.354  48.341  0.00  0.00    +0.000 OA
ATOM     54  C   UNL     1      41.677 -44.919  46.981  0.00  0.00    +0.000 C 
ENDBRANCH  52  53
ENDBRANCH   7  52
BRANCH  20  55
ATOM     55  O   UNL     1      48.088 -50.420  52.306  0.00  0.00    +0.000 OA
ATOM     56  C   UNL     1      49.109 -49.563  51.805  0.00  0.00    +0.000 C 
ENDBRANCH  20  55
BRANCH   6  57
ATOM     57  C   UNL     1      40.021 -48.939  51.693  0.00  0.00    +0.000 C 
ATOM     58  C   UNL     1      38.834 -47.979  51.797  0.00  0.00    +0.000 C 
ENDBRANCH   6  57
BRANCH   9  59
ATOM     59  O   UNL     1      40.712 -48.412  47.982  0.00  0.00    +0.000 OA
BRANCH  59  61
ATOM     60  O   UNL     1      38.875 -47.130  47.504  0.00  0.00    +0.000 OA
ATOM     61  C   UNL     1      39.642 -48.041  47.229  0.00  0.00    +0.000 C 
ATOM     62  C   UNL     1      39.560 -48.888  45.997  0.00  0.00    +0.000 C 
ENDBRANCH  59  61
ENDBRANCH   9  59
TORSDOF 12
ENDMDL
