REMARK  Name = Vorinostat.pdbqt.pdb
REMARK  6 active torsions:
REMARK  status: ('A' for Active; 'I' for Inactive)
REMARK    1  A    between atoms: C_1  and  C_2
REMARK    2  A    between atoms: C_3  and  C_4
REMARK    3  A    between atoms: C_5  and  C_8
REMARK    4  A    between atoms: N_7  and  O_10
REMARK    5  A    between atoms: C_12  and  C_15
REMARK    6  A    between atoms: N_14  and  C_17
REMARK                            x       y       z     vdW  Elec       q    Type
REMARK                         _______ _______ _______ _____ _____    ______ ____
ROOT
ATOM      1  C   UNL     1      -0.029   0.290   0.371  0.00  0.00    +0.000 C 
ATOM      2  C   UNL     1      -1.542   0.512   0.454  0.00  0.00    +0.000 C 
ENDROOT
BRANCH   2   5
ATOM      3  O   UNL     1      -3.380   1.689   1.156  0.00  0.00    +0.000 OA
ATOM      4  N   UNL     1      -3.713  -0.229  -0.126  0.00  0.00    +0.000 N 
ATOM      5  C   UNL     1      -2.969   0.722   0.534  0.00  0.00    +0.000 C 
ATOM      6  H   UNL     1      -3.208  -0.971  -0.595  0.00  0.00    +0.000 HD
BRANCH   4   7
ATOM      7  C   UNL     1      -5.116  -0.261  -0.205  0.00  0.00    +0.000 A 
ATOM      8  C   UNL     1      -5.704  -1.306  -0.919  0.00  0.00    +0.000 A 
ATOM      9  C   UNL     1      -5.929   0.699   0.396  0.00  0.00    +0.000 A 
ATOM     10  C   UNL     1      -7.090  -1.390  -1.032  0.00  0.00    +0.000 A 
ATOM     11  C   UNL     1      -7.316   0.617   0.285  0.00  0.00    +0.000 A 
ATOM     12  C   UNL     1      -7.896  -0.428  -0.429  0.00  0.00    +0.000 A 
ENDBRANCH   4   7
ENDBRANCH   2   5
BRANCH   1  13
ATOM     13  C   UNL     1       1.484   0.070   0.288  0.00  0.00    +0.000 C 
ATOM     14  C   UNL     1       2.998  -0.150   0.206  0.00  0.00    +0.000 C 
BRANCH  14  15
ATOM     15  C   UNL     1       4.511  -0.369   0.124  0.00  0.00    +0.000 C 
ATOM     16  C   UNL     1       6.025  -0.589   0.041  0.00  0.00    +0.000 C 
BRANCH  16  19
ATOM     17  O   UNL     1       7.909  -1.651  -0.784  0.00  0.00    +0.000 OA
ATOM     18  N   UNL     1       8.213   0.014   0.751  0.00  0.00    +0.000 N 
ATOM     19  C   UNL     1       7.446  -0.796  -0.039  0.00  0.00    +0.000 C 
ATOM     20  H   UNL     1       7.851   0.752   1.342  0.00  0.00    +0.000 HD
BRANCH  18  21
ATOM     21  O   UNL     1       9.615  -0.136   0.676  0.00  0.00    +0.000 OA
ATOM     22  H   UNL     1       9.720  -0.856   0.016  0.00  0.00    +0.000 HD
ENDBRANCH  18  21
ENDBRANCH  16  19
ENDBRANCH  14  15
ENDBRANCH   1  13
TORSDOF 6
