MODEL 1
REMARK VINA RESULT:      -6.3      0.000      0.000
REMARK  Name = Vorinostat.pdbqt.pdb
REMARK  6 active torsions:
REMARK  status: ('A' for Active; 'I' for Inactive)
REMARK    1  A    between atoms: C_1  and  C_2
REMARK    2  A    between atoms: C_3  and  C_4
REMARK    3  A    between atoms: C_5  and  C_8
REMARK    4  A    between atoms: N_7  and  O_10
REMARK    5  A    between atoms: C_12  and  C_15
REMARK    6  A    between atoms: N_14  and  C_17
REMARK                            x       y       z     vdW  Elec       q    Type
REMARK                         _______ _______ _______ _____ _____    ______ ____
ROOT
ATOM      1  C   UNL     1      49.331 -42.280  49.301  0.00  0.00    +0.000 C 
ATOM      2  C   UNL     1      48.577 -41.095  49.911  0.00  0.00    +0.000 C 
ENDROOT
BRANCH   2   5
ATOM      3  O   UNL     1      46.671 -40.099  50.707  0.00  0.00    +0.000 OA
ATOM      4  N   UNL     1      48.655 -38.877  50.731  0.00  0.00    +0.000 N 
ATOM      5  C   UNL     1      47.866 -39.978  50.489  0.00  0.00    +0.000 C 
ATOM      6  H   UNL     1      49.636 -38.945  50.488  0.00  0.00    +0.000 HD
BRANCH   4   7
ATOM      7  C   UNL     1      48.218 -37.662  51.286  0.00  0.00    +0.000 A 
ATOM      8  C   UNL     1      49.068 -37.010  52.180  0.00  0.00    +0.000 A 
ATOM      9  C   UNL     1      46.983 -37.092  50.978  0.00  0.00    +0.000 A 
ATOM     10  C   UNL     1      48.688 -35.803  52.762  0.00  0.00    +0.000 A 
ATOM     11  C   UNL     1      46.600 -35.884  51.559  0.00  0.00    +0.000 A 
ATOM     12  C   UNL     1      47.454 -35.240  52.450  0.00  0.00    +0.000 A 
ENDBRANCH   4   7
ENDBRANCH   2   5
BRANCH   1  13
ATOM     13  C   UNL     1      50.086 -43.463  48.690  0.00  0.00    +0.000 C 
ATOM     14  C   UNL     1      50.843 -44.647  48.079  0.00  0.00    +0.000 C 
BRANCH  14  15
ATOM     15  C   UNL     1      51.598 -45.830  47.467  0.00  0.00    +0.000 C 
ATOM     16  C   UNL     1      52.355 -47.013  46.856  0.00  0.00    +0.000 C 
BRANCH  16  19
ATOM     17  O   UNL     1      52.521 -48.862  45.473  0.00  0.00    +0.000 OA
ATOM     18  N   UNL     1      54.361 -48.281  46.696  0.00  0.00    +0.000 N 
ATOM     19  C   UNL     1      53.068 -48.124  46.283  0.00  0.00    +0.000 C 
ATOM     20  H   UNL     1      54.842 -47.658  47.333  0.00  0.00    +0.000 HD
BRANCH  18  21
ATOM     21  O   UNL     1      55.104 -49.340  46.131  0.00  0.00    +0.000 OA
ATOM     22  H   UNL     1      54.404 -49.971  45.854  0.00  0.00    +0.000 HD
ENDBRANCH  18  21
ENDBRANCH  16  19
ENDBRANCH  14  15
ENDBRANCH   1  13
TORSDOF 6
ENDMDL
MODEL 2
REMARK VINA RESULT:      -6.2      6.825     11.958
REMARK  Name = Vorinostat.pdbqt.pdb
REMARK  6 active torsions:
REMARK  status: ('A' for Active; 'I' for Inactive)
REMARK    1  A    between atoms: C_1  and  C_2
REMARK    2  A    between atoms: C_3  and  C_4
REMARK    3  A    between atoms: C_5  and  C_8
REMARK    4  A    between atoms: N_7  and  O_10
REMARK    5  A    between atoms: C_12  and  C_15
REMARK    6  A    between atoms: N_14  and  C_17
REMARK                            x       y       z     vdW  Elec       q    Type
REMARK                         _______ _______ _______ _____ _____    ______ ____
ROOT
ATOM      1  C   UNL     1      47.117 -45.528  51.834  0.00  0.00    +0.000 C 
ATOM      2  C   UNL     1      46.864 -47.022  52.059  0.00  0.00    +0.000 C 
ENDROOT
BRANCH   2   5
ATOM      3  O   UNL     1      45.632 -48.933  51.770  0.00  0.00    +0.000 OA
ATOM      4  N   UNL     1      47.581 -49.050  53.044  0.00  0.00    +0.000 N 
ATOM      5  C   UNL     1      46.624 -48.430  52.273  0.00  0.00    +0.000 C 
ATOM      6  H   UNL     1      48.345 -48.480  53.384  0.00  0.00    +0.000 HD
BRANCH   4   7
ATOM      7  C   UNL     1      47.588 -50.409  53.403  0.00  0.00    +0.000 A 
ATOM      8  C   UNL     1      46.871 -50.786  54.539  0.00  0.00    +0.000 A 
ATOM      9  C   UNL     1      48.275 -51.379  52.675  0.00  0.00    +0.000 A 
ATOM     10  C   UNL     1      46.842 -52.119  54.944  0.00  0.00    +0.000 A 
ATOM     11  C   UNL     1      48.247 -52.714  53.077  0.00  0.00    +0.000 A 
ATOM     12  C   UNL     1      47.530 -53.083  54.212  0.00  0.00    +0.000 A 
ENDBRANCH   4   7
ENDBRANCH   2   5
BRANCH   1  13
ATOM     13  C   UNL     1      47.368 -44.035  51.607  0.00  0.00    +0.000 C 
ATOM     14  C   UNL     1      47.618 -42.540  51.381  0.00  0.00    +0.000 C 
BRANCH  14  15
ATOM     15  C   UNL     1      47.867 -41.047  51.154  0.00  0.00    +0.000 C 
ATOM     16  C   UNL     1      48.116 -39.552  50.927  0.00  0.00    +0.000 C 
BRANCH  16  19
ATOM     17  O   UNL     1      49.486 -37.719  50.582  0.00  0.00    +0.000 OA
ATOM     18  N   UNL     1      47.231 -37.360  50.666  0.00  0.00    +0.000 N 
ATOM     19  C   UNL     1      48.347 -38.149  50.714  0.00  0.00    +0.000 C 
ATOM     20  H   UNL     1      46.281 -37.702  50.733  0.00  0.00    +0.000 HD
BRANCH  18  21
ATOM     21  O   UNL     1      47.415 -35.981  50.426  0.00  0.00    +0.000 OA
ATOM     22  H   UNL     1      47.309 -35.916  49.451  0.00  0.00    +0.000 HD
ENDBRANCH  18  21
ENDBRANCH  16  19
ENDBRANCH  14  15
ENDBRANCH   1  13
TORSDOF 6
ENDMDL
MODEL 3
REMARK VINA RESULT:      -6.2      8.423     11.210
REMARK  Name = Vorinostat.pdbqt.pdb
REMARK  6 active torsions:
REMARK  status: ('A' for Active; 'I' for Inactive)
REMARK    1  A    between atoms: C_1  and  C_2
REMARK    2  A    between atoms: C_3  and  C_4
REMARK    3  A    between atoms: C_5  and  C_8
REMARK    4  A    between atoms: N_7  and  O_10
REMARK    5  A    between atoms: C_12  and  C_15
REMARK    6  A    between atoms: N_14  and  C_17
REMARK                            x       y       z     vdW  Elec       q    Type
REMARK                         _______ _______ _______ _____ _____    ______ ____
ROOT
ATOM      1  C   UNL     1      49.139 -48.543  51.845  0.00  0.00    +0.000 C 
ATOM      2  C   UNL     1      48.168 -49.275  52.777  0.00  0.00    +0.000 C 
ENDROOT
BRANCH   2   5
ATOM      3  O   UNL     1      46.470 -49.297  54.318  0.00  0.00    +0.000 OA
ATOM      4  N   UNL     1      47.378 -51.333  53.636  0.00  0.00    +0.000 N 
ATOM      5  C   UNL     1      47.251 -49.963  53.656  0.00  0.00    +0.000 C 
ATOM      6  H   UNL     1      48.083 -51.726  53.024  0.00  0.00    +0.000 HD
BRANCH   4   7
ATOM      7  C   UNL     1      46.613 -52.237  54.393  0.00  0.00    +0.000 A 
ATOM      8  C   UNL     1      47.215 -52.828  55.505  0.00  0.00    +0.000 A 
ATOM      9  C   UNL     1      45.293 -52.559  54.078  0.00  0.00    +0.000 A 
ATOM     10  C   UNL     1      46.506 -53.732  56.293  0.00  0.00    +0.000 A 
ATOM     11  C   UNL     1      44.582 -53.463  54.865  0.00  0.00    +0.000 A 
ATOM     12  C   UNL     1      45.189 -54.049  55.973  0.00  0.00    +0.000 A 
ENDBRANCH   4   7
ENDBRANCH   2   5
BRANCH   1  13
ATOM     13  C   UNL     1      50.108 -47.812  50.913  0.00  0.00    +0.000 C 
ATOM     14  C   UNL     1      51.077 -47.080  49.979  0.00  0.00    +0.000 C 
BRANCH  14  15
ATOM     15  C   UNL     1      52.046 -46.349  49.045  0.00  0.00    +0.000 C 
ATOM     16  C   UNL     1      53.015 -45.619  48.111  0.00  0.00    +0.000 C 
BRANCH  16  19
ATOM     17  O   UNL     1      53.625 -44.728  46.063  0.00  0.00    +0.000 OA
ATOM     18  N   UNL     1      55.111 -44.543  47.788  0.00  0.00    +0.000 N 
ATOM     19  C   UNL     1      53.926 -44.935  47.232  0.00  0.00    +0.000 C 
ATOM     20  H   UNL     1      55.361 -44.669  48.761  0.00  0.00    +0.000 HD
BRANCH  18  21
ATOM     21  O   UNL     1      56.019 -43.839  46.967  0.00  0.00    +0.000 OA
ATOM     22  H   UNL     1      55.671 -44.012  46.064  0.00  0.00    +0.000 HD
ENDBRANCH  18  21
ENDBRANCH  16  19
ENDBRANCH  14  15
ENDBRANCH   1  13
TORSDOF 6
ENDMDL
MODEL 4
REMARK VINA RESULT:      -5.9     11.059     12.120
REMARK  Name = Vorinostat.pdbqt.pdb
REMARK  6 active torsions:
REMARK  status: ('A' for Active; 'I' for Inactive)
REMARK    1  A    between atoms: C_1  and  C_2
REMARK    2  A    between atoms: C_3  and  C_4
REMARK    3  A    between atoms: C_5  and  C_8
REMARK    4  A    between atoms: N_7  and  O_10
REMARK    5  A    between atoms: C_12  and  C_15
REMARK    6  A    between atoms: N_14  and  C_17
REMARK                            x       y       z     vdW  Elec       q    Type
REMARK                         _______ _______ _______ _____ _____    ______ ____
ROOT
ATOM      1  C   UNL     1      46.954 -50.690  54.404  0.00  0.00    +0.000 C 
ATOM      2  C   UNL     1      46.879 -49.562  53.371  0.00  0.00    +0.000 C 
ENDROOT
BRANCH   2   5
ATOM      3  O   UNL     1      45.951 -48.559  51.529  0.00  0.00    +0.000 OA
ATOM      4  N   UNL     1      47.749 -47.509  52.578  0.00  0.00    +0.000 N 
ATOM      5  C   UNL     1      46.808 -48.497  52.397  0.00  0.00    +0.000 C 
ATOM      6  H   UNL     1      48.389 -47.615  53.355  0.00  0.00    +0.000 HD
BRANCH   4   7
ATOM      7  C   UNL     1      47.899 -46.365  51.776  0.00  0.00    +0.000 A 
ATOM      8  C   UNL     1      47.390 -45.159  52.261  0.00  0.00    +0.000 A 
ATOM      9  C   UNL     1      48.528 -46.391  50.533  0.00  0.00    +0.000 A 
ATOM     10  C   UNL     1      47.509 -43.992  51.510  0.00  0.00    +0.000 A 
ATOM     11  C   UNL     1      48.649 -45.224  49.779  0.00  0.00    +0.000 A 
ATOM     12  C   UNL     1      48.139 -44.025  50.269  0.00  0.00    +0.000 A 
ENDBRANCH   4   7
ENDBRANCH   2   5
BRANCH   1  13
ATOM     13  C   UNL     1      47.031 -51.817  55.437  0.00  0.00    +0.000 C 
ATOM     14  C   UNL     1      47.109 -52.945  56.472  0.00  0.00    +0.000 C 
BRANCH  14  15
ATOM     15  C   UNL     1      47.188 -54.072  57.505  0.00  0.00    +0.000 C 
ATOM     16  C   UNL     1      47.267 -55.199  58.540  0.00  0.00    +0.000 C 
BRANCH  16  19
ATOM     17  O   UNL     1      46.444 -57.085  59.600  0.00  0.00    +0.000 OA
ATOM     18  N   UNL     1      48.457 -56.263  60.302  0.00  0.00    +0.000 N 
ATOM     19  C   UNL     1      47.341 -56.255  59.513  0.00  0.00    +0.000 C 
ATOM     20  H   UNL     1      49.226 -55.610  60.218  0.00  0.00    +0.000 HD
BRANCH  18  21
ATOM     21  O   UNL     1      48.582 -57.304  61.248  0.00  0.00    +0.000 OA
ATOM     22  H   UNL     1      49.542 -57.290  61.458  0.00  0.00    +0.000 HD
ENDBRANCH  18  21
ENDBRANCH  16  19
ENDBRANCH  14  15
ENDBRANCH   1  13
TORSDOF 6
ENDMDL
MODEL 5
REMARK VINA RESULT:      -5.9      6.470     10.944
REMARK  Name = Vorinostat.pdbqt.pdb
REMARK  6 active torsions:
REMARK  status: ('A' for Active; 'I' for Inactive)
REMARK    1  A    between atoms: C_1  and  C_2
REMARK    2  A    between atoms: C_3  and  C_4
REMARK    3  A    between atoms: C_5  and  C_8
REMARK    4  A    between atoms: N_7  and  O_10
REMARK    5  A    between atoms: C_12  and  C_15
REMARK    6  A    between atoms: N_14  and  C_17
REMARK                            x       y       z     vdW  Elec       q    Type
REMARK                         _______ _______ _______ _____ _____    ______ ____
ROOT
ATOM      1  C   UNL     1      47.219 -44.112  51.559  0.00  0.00    +0.000 C 
ATOM      2  C   UNL     1      46.766 -45.426  52.204  0.00  0.00    +0.000 C 
ENDROOT
BRANCH   2   5
ATOM      3  O   UNL     1      45.672 -46.613  53.832  0.00  0.00    +0.000 OA
ATOM      4  N   UNL     1      46.754 -47.791  52.136  0.00  0.00    +0.000 N 
ATOM      5  C   UNL     1      46.339 -46.665  52.811  0.00  0.00    +0.000 C 
ATOM      6  H   UNL     1      47.306 -47.654  51.299  0.00  0.00    +0.000 HD
BRANCH   4   7
ATOM      7  C   UNL     1      46.477 -49.117  52.510  0.00  0.00    +0.000 A 
ATOM      8  C   UNL     1      47.173 -49.645  53.599  0.00  0.00    +0.000 A 
ATOM      9  C   UNL     1      45.547 -49.912  51.843  0.00  0.00    +0.000 A 
ATOM     10  C   UNL     1      46.942 -50.954  54.016  0.00  0.00    +0.000 A 
ATOM     11  C   UNL     1      45.313 -51.222  52.258  0.00  0.00    +0.000 A 
ATOM     12  C   UNL     1      46.011 -51.742  53.345  0.00  0.00    +0.000 A 
ENDBRANCH   4   7
ENDBRANCH   2   5
BRANCH   1  13
ATOM     13  C   UNL     1      47.674 -42.800  50.915  0.00  0.00    +0.000 C 
ATOM     14  C   UNL     1      48.129 -41.487  50.270  0.00  0.00    +0.000 C 
BRANCH  14  15
ATOM     15  C   UNL     1      48.584 -40.175  49.625  0.00  0.00    +0.000 C 
ATOM     16  C   UNL     1      49.039 -38.862  48.980  0.00  0.00    +0.000 C 
BRANCH  16  19
ATOM     17  O   UNL     1      50.657 -37.367  48.270  0.00  0.00    +0.000 OA
ATOM     18  N   UNL     1      48.468 -36.801  47.940  0.00  0.00    +0.000 N 
ATOM     19  C   UNL     1      49.465 -37.628  48.376  0.00  0.00    +0.000 C 
ATOM     20  H   UNL     1      47.480 -37.018  47.983  0.00  0.00    +0.000 HD
BRANCH  18  21
ATOM     21  O   UNL     1      48.846 -35.595  47.311  0.00  0.00    +0.000 OA
ATOM     22  H   UNL     1      49.517 -35.230  47.930  0.00  0.00    +0.000 HD
ENDBRANCH  18  21
ENDBRANCH  16  19
ENDBRANCH  14  15
ENDBRANCH   1  13
TORSDOF 6
ENDMDL
MODEL 6
REMARK VINA RESULT:      -5.8      9.270     11.963
REMARK  Name = Vorinostat.pdbqt.pdb
REMARK  6 active torsions:
REMARK  status: ('A' for Active; 'I' for Inactive)
REMARK    1  A    between atoms: C_1  and  C_2
REMARK    2  A    between atoms: C_3  and  C_4
REMARK    3  A    between atoms: C_5  and  C_8
REMARK    4  A    between atoms: N_7  and  O_10
REMARK    5  A    between atoms: C_12  and  C_15
REMARK    6  A    between atoms: N_14  and  C_17
REMARK                            x       y       z     vdW  Elec       q    Type
REMARK                         _______ _______ _______ _____ _____    ______ ____
ROOT
ATOM      1  C   UNL     1      48.298 -49.421  52.397  0.00  0.00    +0.000 C 
ATOM      2  C   UNL     1      47.290 -50.197  53.250  0.00  0.00    +0.000 C 
ENDROOT
BRANCH   2   5
ATOM      3  O   UNL     1      46.090 -50.516  55.177  0.00  0.00    +0.000 OA
ATOM      4  N   UNL     1      45.812 -52.035  53.431  0.00  0.00    +0.000 N 
ATOM      5  C   UNL     1      46.339 -50.927  54.055  0.00  0.00    +0.000 C 
ATOM      6  H   UNL     1      46.130 -52.235  52.491  0.00  0.00    +0.000 HD
BRANCH   4   7
ATOM      7  C   UNL     1      44.869 -52.917  53.988  0.00  0.00    +0.000 A 
ATOM      8  C   UNL     1      43.559 -52.854  53.512  0.00  0.00    +0.000 A 
ATOM      9  C   UNL     1      45.192 -53.839  54.983  0.00  0.00    +0.000 A 
ATOM     10  C   UNL     1      42.581 -53.703  54.026  0.00  0.00    +0.000 A 
ATOM     11  C   UNL     1      44.216 -54.690  55.498  0.00  0.00    +0.000 A 
ATOM     12  C   UNL     1      42.910 -54.621  55.020  0.00  0.00    +0.000 A 
ENDBRANCH   4   7
ENDBRANCH   2   5
BRANCH   1  13
ATOM     13  C   UNL     1      49.305 -48.645  51.543  0.00  0.00    +0.000 C 
ATOM     14  C   UNL     1      50.311 -47.869  50.688  0.00  0.00    +0.000 C 
BRANCH  14  15
ATOM     15  C   UNL     1      51.317 -47.094  49.833  0.00  0.00    +0.000 C 
ATOM     16  C   UNL     1      52.324 -46.317  48.977  0.00  0.00    +0.000 C 
BRANCH  16  19
ATOM     17  O   UNL     1      54.404 -45.379  48.586  0.00  0.00    +0.000 OA
ATOM     18  N   UNL     1      52.815 -45.162  46.958  0.00  0.00    +0.000 N 
ATOM     19  C   UNL     1      53.268 -45.587  48.176  0.00  0.00    +0.000 C 
ATOM     20  H   UNL     1      51.895 -45.358  46.586  0.00  0.00    +0.000 HD
BRANCH  18  21
ATOM     21  O   UNL     1      53.723 -44.469  46.128  0.00  0.00    +0.000 OA
ATOM     22  H   UNL     1      54.444 -44.228  46.750  0.00  0.00    +0.000 HD
ENDBRANCH  18  21
ENDBRANCH  16  19
ENDBRANCH  14  15
ENDBRANCH   1  13
TORSDOF 6
ENDMDL
MODEL 7
REMARK VINA RESULT:      -5.7      6.471      6.939
REMARK  Name = Vorinostat.pdbqt.pdb
REMARK  6 active torsions:
REMARK  status: ('A' for Active; 'I' for Inactive)
REMARK    1  A    between atoms: C_1  and  C_2
REMARK    2  A    between atoms: C_3  and  C_4
REMARK    3  A    between atoms: C_5  and  C_8
REMARK    4  A    between atoms: N_7  and  O_10
REMARK    5  A    between atoms: C_12  and  C_15
REMARK    6  A    between atoms: N_14  and  C_17
REMARK                            x       y       z     vdW  Elec       q    Type
REMARK                         _______ _______ _______ _____ _____    ______ ____
ROOT
ATOM      1  C   UNL     1      47.341 -44.385  51.171  0.00  0.00    +0.000 C 
ATOM      2  C   UNL     1      47.562 -43.026  50.503  0.00  0.00    +0.000 C 
ENDROOT
BRANCH   2   5
ATOM      3  O   UNL     1      47.428 -41.607  48.706  0.00  0.00    +0.000 OA
ATOM      4  N   UNL     1      48.351 -40.803  50.690  0.00  0.00    +0.000 N 
ATOM      5  C   UNL     1      47.771 -41.744  49.870  0.00  0.00    +0.000 C 
ATOM      6  H   UNL     1      48.574 -41.085  51.636  0.00  0.00    +0.000 HD
BRANCH   4   7
ATOM      7  C   UNL     1      48.662 -39.481  50.326  0.00  0.00    +0.000 A 
ATOM      8  C   UNL     1      47.963 -38.451  50.957  0.00  0.00    +0.000 A 
ATOM      9  C   UNL     1      49.630 -39.167  49.373  0.00  0.00    +0.000 A 
ATOM     10  C   UNL     1      48.228 -37.121  50.637  0.00  0.00    +0.000 A 
ATOM     11  C   UNL     1      49.897 -37.837  49.052  0.00  0.00    +0.000 A 
ATOM     12  C   UNL     1      49.196 -36.815  49.685  0.00  0.00    +0.000 A 
ENDBRANCH   4   7
ENDBRANCH   2   5
BRANCH   1  13
ATOM     13  C   UNL     1      47.118 -45.745  51.840  0.00  0.00    +0.000 C 
ATOM     14  C   UNL     1      46.894 -47.105  52.509  0.00  0.00    +0.000 C 
BRANCH  14  15
ATOM     15  C   UNL     1      46.671 -48.464  53.178  0.00  0.00    +0.000 C 
ATOM     16  C   UNL     1      46.446 -49.823  53.848  0.00  0.00    +0.000 C 
BRANCH  16  19
ATOM     17  O   UNL     1      46.981 -51.487  55.366  0.00  0.00    +0.000 OA
ATOM     18  N   UNL     1      45.163 -51.818  54.022  0.00  0.00    +0.000 N 
ATOM     19  C   UNL     1      46.233 -51.099  54.477  0.00  0.00    +0.000 C 
ATOM     20  H   UNL     1      44.512 -51.497  53.316  0.00  0.00    +0.000 HD
BRANCH  18  21
ATOM     21  O   UNL     1      44.901 -53.062  54.637  0.00  0.00    +0.000 OA
ATOM     22  H   UNL     1      45.263 -52.935  55.541  0.00  0.00    +0.000 HD
ENDBRANCH  18  21
ENDBRANCH  16  19
ENDBRANCH  14  15
ENDBRANCH   1  13
TORSDOF 6
ENDMDL
MODEL 8
REMARK VINA RESULT:      -5.6      9.337     10.244
REMARK  Name = Vorinostat.pdbqt.pdb
REMARK  6 active torsions:
REMARK  status: ('A' for Active; 'I' for Inactive)
REMARK    1  A    between atoms: C_1  and  C_2
REMARK    2  A    between atoms: C_3  and  C_4
REMARK    3  A    between atoms: C_5  and  C_8
REMARK    4  A    between atoms: N_7  and  O_10
REMARK    5  A    between atoms: C_12  and  C_15
REMARK    6  A    between atoms: N_14  and  C_17
REMARK                            x       y       z     vdW  Elec       q    Type
REMARK                         _______ _______ _______ _____ _____    ______ ____
ROOT
ATOM      1  C   UNL     1      47.144 -48.704  52.864  0.00  0.00    +0.000 C 
ATOM      2  C   UNL     1      47.285 -47.515  51.910  0.00  0.00    +0.000 C 
ENDROOT
BRANCH   2   5
ATOM      3  O   UNL     1      46.935 -46.487  49.890  0.00  0.00    +0.000 OA
ATOM      4  N   UNL     1      48.095 -45.322  51.543  0.00  0.00    +0.000 N 
ATOM      5  C   UNL     1      47.417 -46.394  51.008  0.00  0.00    +0.000 C 
ATOM      6  H   UNL     1      48.432 -45.413  52.494  0.00  0.00    +0.000 HD
BRANCH   4   7
ATOM      7  C   UNL     1      48.363 -44.110  50.883  0.00  0.00    +0.000 A 
ATOM      8  C   UNL     1      47.675 -42.973  51.307  0.00  0.00    +0.000 A 
ATOM      9  C   UNL     1      49.277 -44.006  49.835  0.00  0.00    +0.000 A 
ATOM     10  C   UNL     1      47.898 -41.743  50.690  0.00  0.00    +0.000 A 
ATOM     11  C   UNL     1      49.502 -42.778  49.217  0.00  0.00    +0.000 A 
ATOM     12  C   UNL     1      48.813 -41.646  49.645  0.00  0.00    +0.000 A 
ENDBRANCH   4   7
ENDBRANCH   2   5
BRANCH   1  13
ATOM     13  C   UNL     1      47.001 -49.894  53.817  0.00  0.00    +0.000 C 
ATOM     14  C   UNL     1      46.859 -51.085  54.770  0.00  0.00    +0.000 C 
BRANCH  14  15
ATOM     15  C   UNL     1      46.717 -52.275  55.722  0.00  0.00    +0.000 C 
ATOM     16  C   UNL     1      46.574 -53.467  56.675  0.00  0.00    +0.000 C 
BRANCH  16  19
ATOM     17  O   UNL     1      46.734 -55.717  57.197  0.00  0.00    +0.000 OA
ATOM     18  N   UNL     1      45.976 -54.299  58.820  0.00  0.00    +0.000 N 
ATOM     19  C   UNL     1      46.439 -54.587  57.567  0.00  0.00    +0.000 C 
ATOM     20  H   UNL     1      45.765 -53.368  59.157  0.00  0.00    +0.000 HD
BRANCH  18  21
ATOM     21  O   UNL     1      45.860 -55.367  59.737  0.00  0.00    +0.000 OA
ATOM     22  H   UNL     1      46.792 -55.656  59.850  0.00  0.00    +0.000 HD
ENDBRANCH  18  21
ENDBRANCH  16  19
ENDBRANCH  14  15
ENDBRANCH   1  13
TORSDOF 6
ENDMDL
MODEL 9
REMARK VINA RESULT:      -5.5      5.946      6.185
REMARK  Name = Vorinostat.pdbqt.pdb
REMARK  6 active torsions:
REMARK  status: ('A' for Active; 'I' for Inactive)
REMARK    1  A    between atoms: C_1  and  C_2
REMARK    2  A    between atoms: C_3  and  C_4
REMARK    3  A    between atoms: C_5  and  C_8
REMARK    4  A    between atoms: N_7  and  O_10
REMARK    5  A    between atoms: C_12  and  C_15
REMARK    6  A    between atoms: N_14  and  C_17
REMARK                            x       y       z     vdW  Elec       q    Type
REMARK                         _______ _______ _______ _____ _____    ______ ____
ROOT
ATOM      1  C   UNL     1      49.827 -39.263  46.483  0.00  0.00    +0.000 C 
ATOM      2  C   UNL     1      49.361 -38.886  47.892  0.00  0.00    +0.000 C 
ENDROOT
BRANCH   2   5
ATOM      3  O   UNL     1      48.776 -39.425  50.043  0.00  0.00    +0.000 OA
ATOM      4  N   UNL     1      48.717 -37.184  49.405  0.00  0.00    +0.000 N 
ATOM      5  C   UNL     1      48.922 -38.533  49.223  0.00  0.00    +0.000 C 
ATOM      6  H   UNL     1      48.887 -36.577  48.612  0.00  0.00    +0.000 HD
BRANCH   4   7
ATOM      7  C   UNL     1      48.291 -36.575  50.598  0.00  0.00    +0.000 A 
ATOM      8  C   UNL     1      49.255 -36.299  51.568  0.00  0.00    +0.000 A 
ATOM      9  C   UNL     1      46.959 -36.241  50.842  0.00  0.00    +0.000 A 
ATOM     10  C   UNL     1      48.892 -35.696  52.771  0.00  0.00    +0.000 A 
ATOM     11  C   UNL     1      46.593 -35.637  52.044  0.00  0.00    +0.000 A 
ATOM     12  C   UNL     1      47.560 -35.365  53.008  0.00  0.00    +0.000 A 
ENDBRANCH   4   7
ENDBRANCH   2   5
BRANCH   1  13
ATOM     13  C   UNL     1      50.295 -39.638  45.075  0.00  0.00    +0.000 C 
ATOM     14  C   UNL     1      50.763 -40.015  43.665  0.00  0.00    +0.000 C 
BRANCH  14  15
ATOM     15  C   UNL     1      51.230 -40.392  42.257  0.00  0.00    +0.000 C 
ATOM     16  C   UNL     1      51.696 -40.770  40.847  0.00  0.00    +0.000 C 
BRANCH  16  19
ATOM     17  O   UNL     1      52.586 -42.239  39.295  0.00  0.00    +0.000 OA
ATOM     18  N   UNL     1      51.999 -40.153  38.570  0.00  0.00    +0.000 N 
ATOM     19  C   UNL     1      52.132 -41.124  39.523  0.00  0.00    +0.000 C 
ATOM     20  H   UNL     1      51.589 -39.242  38.731  0.00  0.00    +0.000 HD
BRANCH  18  21
ATOM     21  O   UNL     1      52.385 -40.474  37.250  0.00  0.00    +0.000 OA
ATOM     22  H   UNL     1      51.527 -40.485  36.771  0.00  0.00    +0.000 HD
ENDBRANCH  18  21
ENDBRANCH  16  19
ENDBRANCH  14  15
ENDBRANCH   1  13
TORSDOF 6
ENDMDL
