REMARK  Name = 0175029_Tetramethyl.pdbqt.pdb
REMARK  0 active torsions:
REMARK  status: ('A' for Active; 'I' for Inactive)
REMARK                            x       y       z     vdW  Elec       q    Type
REMARK                         _______ _______ _______ _____ _____    ______ ____
ROOT
ATOM      1 SI   UNL     1      -1.505   0.768  -0.064  0.00  0.00    +0.000 Si
ATOM      2 SI   UNL     1       1.495   0.782  -0.062  0.00  0.00    +0.000 Si
ATOM      3 SI   UNL     1      -1.534  -2.305   0.153  0.00  0.00    +0.000 Si
ATOM      4 SI   UNL     1       1.564  -2.291   0.138  0.00  0.00    +0.000 Si
ATOM      5  O   UNL     1      -0.007   1.242  -0.473  0.00  0.00    +0.000 OA
ATOM      6  O   UNL     1      -1.739  -0.808  -0.484  0.00  0.00    +0.000 OA
ATOM      7  O   UNL     1       1.748  -0.789  -0.492  0.00  0.00    +0.000 OA
ATOM      8  O   UNL     1       0.016  -2.796  -0.133  0.00  0.00    +0.000 OA
ATOM      9  C   UNL     1      -1.888   1.047   1.732  0.00  0.00    +0.000 C 
ATOM     10  C   UNL     1      -2.727   1.794  -1.051  0.00  0.00    +0.000 C 
ATOM     11  C   UNL     1       2.710   1.829  -1.036  0.00  0.00    +0.000 C 
ATOM     12  C   UNL     1       1.867   1.051   1.738  0.00  0.00    +0.000 C 
ATOM     13  H   UNL     1      -2.465  -3.247  -0.502  0.00  0.00    +0.000 HD
ATOM     14  H   UNL     1      -1.770  -2.281   1.607  0.00  0.00    +0.000 HD
ATOM     15  H   UNL     1       1.817  -2.274   1.590  0.00  0.00    +0.000 HD
ATOM     16  H   UNL     1       2.497  -3.219  -0.533  0.00  0.00    +0.000 HD
ENDROOT
TORSDOF 0
