REMARK  Name = 10074640_Masitinib.pdbqt.pdb
REMARK  6 active torsions:
REMARK  status: ('A' for Active; 'I' for Inactive)
REMARK    1  A    between atoms: C_1  and  N_22
REMARK    2  A    between atoms: C_2  and  N_9
REMARK    3  A    between atoms: C_12  and  C_16
REMARK    4  A    between atoms: C_23  and  C_30
REMARK    5  A    between atoms: C_25  and  C_31
REMARK    6  A    between atoms: C_31  and  N_32
REMARK                            x       y       z     vdW  Elec       q    Type
REMARK                         _______ _______ _______ _____ _____    ______ ____
ROOT
ATOM      1  C   UNL     1      -2.086  -2.967  -0.604  0.00  0.00    +0.000 A 
ATOM      2  C   UNL     1      -4.443  -2.426  -0.215  0.00  0.00    +0.000 A 
ATOM      3  C   UNL     1      -3.083  -2.091  -0.171  0.00  0.00    +0.000 A 
ATOM      4  C   UNL     1      -4.775  -3.699  -0.719  0.00  0.00    +0.000 A 
ATOM      5  C   UNL     1      -2.450  -4.209  -1.119  0.00  0.00    +0.000 A 
ATOM      6  C   UNL     1      -3.791  -4.580  -1.168  0.00  0.00    +0.000 A 
ATOM      7  C   UNL     1      -6.221  -4.147  -0.791  0.00  0.00    +0.000 C 
ENDROOT
BRANCH   2   9
ATOM      8  S   UNL     1      -6.652   0.690   1.089  0.00  0.00    +0.000 S 
ATOM      9  N   UNL     1      -5.452  -1.518   0.185  0.00  0.00    +0.000 N 
ATOM     10  N   UNL     1      -4.203   0.500   0.347  0.00  0.00    +0.000 NA
ATOM     11  C   UNL     1      -5.301  -0.209   0.487  0.00  0.00    +0.000 A 
ATOM     12  C   UNL     1      -4.395   1.805   0.758  0.00  0.00    +0.000 A 
ATOM     13  C   UNL     1      -5.671   2.071   1.192  0.00  0.00    +0.000 A 
ATOM     14  H   UNL     1      -6.382  -1.930   0.219  0.00  0.00    +0.000 HD
BRANCH  12  16
ATOM     15  N   UNL     1      -1.046   3.325   0.113  0.00  0.00    +0.000 NA
ATOM     16  C   UNL     1      -3.334   2.786   0.709  0.00  0.00    +0.000 A 
ATOM     17  C   UNL     1      -3.525   4.098   1.133  0.00  0.00    +0.000 A 
ATOM     18  C   UNL     1      -2.080   2.453   0.217  0.00  0.00    +0.000 A 
ATOM     19  C   UNL     1      -2.487   5.020   1.056  0.00  0.00    +0.000 A 
ATOM     20  C   UNL     1      -1.278   4.584   0.541  0.00  0.00    +0.000 A 
ENDBRANCH  12  16
ENDBRANCH   2   9
BRANCH   1  22
ATOM     21  O   UNL     1      -0.823  -0.681   0.668  0.00  0.00    +0.000 OA
ATOM     22  N   UNL     1      -0.715  -2.643  -0.567  0.00  0.00    +0.000 N 
ATOM     23  C   UNL     1      -0.186  -1.504   0.022  0.00  0.00    +0.000 C 
ATOM     24  H   UNL     1      -0.085  -3.320  -0.982  0.00  0.00    +0.000 HD
BRANCH  23  30
ATOM     25  C   UNL     1       4.009  -0.825  -0.393  0.00  0.00    +0.000 A 
ATOM     26  C   UNL     1       3.438  -1.941  -1.000  0.00  0.00    +0.000 A 
ATOM     27  C   UNL     1       3.221   0.055   0.343  0.00  0.00    +0.000 A 
ATOM     28  C   UNL     1       2.071  -2.177  -0.870  0.00  0.00    +0.000 A 
ATOM     29  C   UNL     1       1.855  -0.183   0.473  0.00  0.00    +0.000 A 
ATOM     30  C   UNL     1       1.275  -1.301  -0.132  0.00  0.00    +0.000 A 
BRANCH  25  31
ATOM     31  C   UNL     1       5.408  -0.582  -0.527  0.00  0.00    +0.000 C 
BRANCH  31  32
ATOM     32  N   UNL     1       6.838  -0.336  -0.665  0.00  0.00    +0.000 N 
ATOM     33  N   UNL     1       7.969   2.805   0.543  0.00  0.00    +0.000 N 
ATOM     34  C   UNL     1       6.986   0.992  -1.323  0.00  0.00    +0.000 C 
ATOM     35  C   UNL     1       7.332   0.101   0.671  0.00  0.00    +0.000 C 
ATOM     36  C   UNL     1       7.490   2.366  -0.796  0.00  0.00    +0.000 C 
ATOM     37  C   UNL     1       7.835   1.475   1.198  0.00  0.00    +0.000 C 
ATOM     38  C   UNL     1       9.394   3.077   0.418  0.00  0.00    +0.000 C 
ENDBRANCH  31  32
ENDBRANCH  25  31
ENDBRANCH  23  30
ENDBRANCH   1  22
TORSDOF 6
