MODEL 1
REMARK VINA RESULT:      -7.2      0.000      0.000
REMARK  Name = 10074640_Masitinib.pdbqt.pdb
REMARK  6 active torsions:
REMARK  status: ('A' for Active; 'I' for Inactive)
REMARK    1  A    between atoms: C_1  and  N_22
REMARK    2  A    between atoms: C_2  and  N_9
REMARK    3  A    between atoms: C_12  and  C_16
REMARK    4  A    between atoms: C_23  and  C_30
REMARK    5  A    between atoms: C_25  and  C_31
REMARK    6  A    between atoms: C_31  and  N_32
REMARK                            x       y       z     vdW  Elec       q    Type
REMARK                         _______ _______ _______ _____ _____    ______ ____
ROOT
ATOM      1  C   UNL     1     -11.263  -9.882 -10.302  0.00  0.00    +0.000 A 
ATOM      2  C   UNL     1     -12.132  -9.642  -8.025  0.00  0.00    +0.000 A 
ATOM      3  C   UNL     1     -12.179 -10.215  -9.303  0.00  0.00    +0.000 A 
ATOM      4  C   UNL     1     -11.111  -8.703  -7.779  0.00  0.00    +0.000 A 
ATOM      5  C   UNL     1     -10.251  -8.967 -10.018  0.00  0.00    +0.000 A 
ATOM      6  C   UNL     1     -10.180  -8.370  -8.763  0.00  0.00    +0.000 A 
ATOM      7  C   UNL     1     -10.995  -8.027  -6.427  0.00  0.00    +0.000 C 
ENDROOT
BRANCH   2   9
ATOM      8  S   UNL     1     -14.979  -9.884  -5.175  0.00  0.00    +0.000 S 
ATOM      9  N   UNL     1     -13.037 -10.015  -7.003  0.00  0.00    +0.000 N 
ATOM     10  N   UNL     1     -14.523  -8.158  -7.018  0.00  0.00    +0.000 NA
ATOM     11  C   UNL     1     -14.079  -9.295  -6.530  0.00  0.00    +0.000 A 
ATOM     12  C   UNL     1     -15.600  -7.689  -6.290  0.00  0.00    +0.000 A 
ATOM     13  C   UNL     1     -15.971  -8.509  -5.252  0.00  0.00    +0.000 A 
ATOM     14  H   UNL     1     -12.861 -10.942  -6.620  0.00  0.00    +0.000 HD
BRANCH  12  16
ATOM     15  N   UNL     1     -17.154  -4.318  -5.881  0.00  0.00    +0.000 NA
ATOM     16  C   UNL     1     -16.266  -6.450  -6.623  0.00  0.00    +0.000 A 
ATOM     17  C   UNL     1     -16.626  -6.137  -7.930  0.00  0.00    +0.000 A 
ATOM     18  C   UNL     1     -16.558  -5.513  -5.641  0.00  0.00    +0.000 A 
ATOM     19  C   UNL     1     -17.251  -4.928  -8.217  0.00  0.00    +0.000 A 
ATOM     20  C   UNL     1     -17.489  -4.062  -7.163  0.00  0.00    +0.000 A 
ENDBRANCH  12  16
ENDBRANCH   2   9
BRANCH   1  22
ATOM     21  O   UNL     1     -11.061 -12.688 -11.024  0.00  0.00    +0.000 OA
ATOM     22  N   UNL     1     -11.297 -10.450 -11.591  0.00  0.00    +0.000 N 
ATOM     23  C   UNL     1     -11.147 -11.802 -11.865  0.00  0.00    +0.000 C 
ATOM     24  H   UNL     1     -11.474  -9.810 -12.357  0.00  0.00    +0.000 HD
BRANCH  23  30
ATOM     25  C   UNL     1     -11.157 -12.869 -15.999  0.00  0.00    +0.000 A 
ATOM     26  C   UNL     1     -10.197 -13.424 -15.156  0.00  0.00    +0.000 A 
ATOM     27  C   UNL     1     -12.098 -11.974 -15.499  0.00  0.00    +0.000 A 
ATOM     28  C   UNL     1     -10.179 -13.082 -13.806  0.00  0.00    +0.000 A 
ATOM     29  C   UNL     1     -12.079 -11.633 -14.149  0.00  0.00    +0.000 A 
ATOM     30  C   UNL     1     -11.118 -12.184 -13.297  0.00  0.00    +0.000 A 
BRANCH  25  31
ATOM     31  C   UNL     1     -11.176 -13.220 -17.381  0.00  0.00    +0.000 C 
BRANCH  31  32
ATOM     32  N   UNL     1     -11.198 -13.578 -18.794  0.00  0.00    +0.000 N 
ATOM     33  N   UNL     1      -8.033 -14.286 -20.238  0.00  0.00    +0.000 N 
ATOM     34  C   UNL     1     -10.195 -12.712 -19.474  0.00  0.00    +0.000 C 
ATOM     35  C   UNL     1     -10.424 -14.843 -18.931  0.00  0.00    +0.000 C 
ATOM     36  C   UNL     1      -8.813 -13.024 -20.115  0.00  0.00    +0.000 C 
ATOM     37  C   UNL     1      -9.041 -15.155 -19.571  0.00  0.00    +0.000 C 
ATOM     38  C   UNL     1      -8.026 -14.647 -21.649  0.00  0.00    +0.000 C 
ENDBRANCH  31  32
ENDBRANCH  25  31
ENDBRANCH  23  30
ENDBRANCH   1  22
TORSDOF 6
ENDMDL
MODEL 2
REMARK VINA RESULT:      -7.0     15.111     17.714
REMARK  Name = 10074640_Masitinib.pdbqt.pdb
REMARK  6 active torsions:
REMARK  status: ('A' for Active; 'I' for Inactive)
REMARK    1  A    between atoms: C_1  and  N_22
REMARK    2  A    between atoms: C_2  and  N_9
REMARK    3  A    between atoms: C_12  and  C_16
REMARK    4  A    between atoms: C_23  and  C_30
REMARK    5  A    between atoms: C_25  and  C_31
REMARK    6  A    between atoms: C_31  and  N_32
REMARK                            x       y       z     vdW  Elec       q    Type
REMARK                         _______ _______ _______ _____ _____    ______ ____
ROOT
ATOM      1  C   UNL     1       3.013  -2.151 -19.573  0.00  0.00    +0.000 A 
ATOM      2  C   UNL     1       2.789   0.264 -19.232  0.00  0.00    +0.000 A 
ATOM      3  C   UNL     1       2.464  -0.914 -19.917  0.00  0.00    +0.000 A 
ATOM      4  C   UNL     1       3.704   0.156 -18.166  0.00  0.00    +0.000 A 
ATOM      5  C   UNL     1       3.896  -2.227 -18.499  0.00  0.00    +0.000 A 
ATOM      6  C   UNL     1       4.250  -1.075 -17.802  0.00  0.00    +0.000 A 
ATOM      7  C   UNL     1       4.119   1.383 -17.379  0.00  0.00    +0.000 C 
ENDROOT
BRANCH   2   9
ATOM      8  S   UNL     1       0.371   3.347 -20.200  0.00  0.00    +0.000 S 
ATOM      9  N   UNL     1       2.197   1.508 -19.557  0.00  0.00    +0.000 N 
ATOM     10  N   UNL     1      -0.112   0.979 -19.338  0.00  0.00    +0.000 NA
ATOM     11  C   UNL     1       0.877   1.785 -19.652  0.00  0.00    +0.000 A 
ATOM     12  C   UNL     1      -1.336   1.578 -19.563  0.00  0.00    +0.000 A 
ATOM     13  C   UNL     1      -1.248   2.866 -20.034  0.00  0.00    +0.000 A 
ATOM     14  H   UNL     1       2.872   2.253 -19.712  0.00  0.00    +0.000 HD
BRANCH  12  16
ATOM     15  N   UNL     1      -4.934   0.615 -19.822  0.00  0.00    +0.000 NA
ATOM     16  C   UNL     1      -2.582   0.893 -19.301  0.00  0.00    +0.000 A 
ATOM     17  C   UNL     1      -2.675  -0.135 -18.368  0.00  0.00    +0.000 A 
ATOM     18  C   UNL     1      -3.738   1.231 -19.992  0.00  0.00    +0.000 A 
ATOM     19  C   UNL     1      -3.886  -0.784 -18.154  0.00  0.00    +0.000 A 
ATOM     20  C   UNL     1      -4.975  -0.372 -18.903  0.00  0.00    +0.000 A 
ENDBRANCH  12  16
ENDBRANCH   2   9
BRANCH   1  22
ATOM     21  O   UNL     1       0.820  -3.980 -19.041  0.00  0.00    +0.000 OA
ATOM     22  N   UNL     1       2.694  -3.344 -20.252  0.00  0.00    +0.000 N 
ATOM     23  C   UNL     1       1.654  -4.196 -19.911  0.00  0.00    +0.000 C 
ATOM     24  H   UNL     1       3.262  -3.561 -21.063  0.00  0.00    +0.000 HD
BRANCH  23  30
ATOM     25  C   UNL     1       1.247  -7.795 -22.173  0.00  0.00    +0.000 A 
ATOM     26  C   UNL     1       2.417  -7.575 -21.450  0.00  0.00    +0.000 A 
ATOM     27  C   UNL     1       0.225  -6.849 -22.160  0.00  0.00    +0.000 A 
ATOM     28  C   UNL     1       2.565  -6.404 -20.710  0.00  0.00    +0.000 A 
ATOM     29  C   UNL     1       0.375  -5.679 -21.421  0.00  0.00    +0.000 A 
ATOM     30  C   UNL     1       1.547  -5.451 -20.694  0.00  0.00    +0.000 A 
BRANCH  25  31
ATOM     31  C   UNL     1       1.094  -8.994 -22.929  0.00  0.00    +0.000 C 
BRANCH  31  32
ATOM     32  N   UNL     1       0.939 -10.221 -23.700  0.00  0.00    +0.000 N 
ATOM     33  N   UNL     1      -0.273 -13.022 -21.886  0.00  0.00    +0.000 N 
ATOM     34  C   UNL     1       1.636 -11.298 -22.943  0.00  0.00    +0.000 C 
ATOM     35  C   UNL     1      -0.440 -10.723 -23.442  0.00  0.00    +0.000 C 
ATOM     36  C   UNL     1       1.105 -12.530 -22.155  0.00  0.00    +0.000 C 
ATOM     37  C   UNL     1      -0.970 -11.954 -22.654  0.00  0.00    +0.000 C 
ATOM     38  C   UNL     1      -0.437 -14.261 -22.632  0.00  0.00    +0.000 C 
ENDBRANCH  31  32
ENDBRANCH  25  31
ENDBRANCH  23  30
ENDBRANCH   1  22
TORSDOF 6
ENDMDL
MODEL 3
REMARK VINA RESULT:      -7.0     14.397     19.511
REMARK  Name = 10074640_Masitinib.pdbqt.pdb
REMARK  6 active torsions:
REMARK  status: ('A' for Active; 'I' for Inactive)
REMARK    1  A    between atoms: C_1  and  N_22
REMARK    2  A    between atoms: C_2  and  N_9
REMARK    3  A    between atoms: C_12  and  C_16
REMARK    4  A    between atoms: C_23  and  C_30
REMARK    5  A    between atoms: C_25  and  C_31
REMARK    6  A    between atoms: C_31  and  N_32
REMARK                            x       y       z     vdW  Elec       q    Type
REMARK                         _______ _______ _______ _____ _____    ______ ____
ROOT
ATOM      1  C   UNL     1       3.166 -15.903 -13.858  0.00  0.00    +0.000 A 
ATOM      2  C   UNL     1       5.006 -16.874 -12.566  0.00  0.00    +0.000 A 
ATOM      3  C   UNL     1       4.088 -16.924 -13.624  0.00  0.00    +0.000 A 
ATOM      4  C   UNL     1       4.964 -15.738 -11.733  0.00  0.00    +0.000 A 
ATOM      5  C   UNL     1       3.167 -14.783 -13.030  0.00  0.00    +0.000 A 
ATOM      6  C   UNL     1       4.057 -14.704 -11.963  0.00  0.00    +0.000 A 
ATOM      7  C   UNL     1       5.913 -15.608 -10.558  0.00  0.00    +0.000 C 
ENDROOT
BRANCH   2   9
ATOM      8  S   UNL     1       8.196 -19.345 -12.576  0.00  0.00    +0.000 S 
ATOM      9  N   UNL     1       5.967 -17.891 -12.358  0.00  0.00    +0.000 N 
ATOM     10  N   UNL     1       7.845 -16.976 -13.495  0.00  0.00    +0.000 NA
ATOM     11  C   UNL     1       7.229 -17.935 -12.840  0.00  0.00    +0.000 A 
ATOM     12  C   UNL     1       9.126 -17.355 -13.849  0.00  0.00    +0.000 A 
ATOM     13  C   UNL     1       9.471 -18.615 -13.427  0.00  0.00    +0.000 A 
ATOM     14  H   UNL     1       5.639 -18.647 -11.760  0.00  0.00    +0.000 HD
BRANCH  12  16
ATOM     15  N   UNL     1      10.298 -14.425 -15.845  0.00  0.00    +0.000 NA
ATOM     16  C   UNL     1      10.007 -16.476 -14.584  0.00  0.00    +0.000 A 
ATOM     17  C   UNL     1      11.366 -16.746 -14.725  0.00  0.00    +0.000 A 
ATOM     18  C   UNL     1       9.527 -15.311 -15.167  0.00  0.00    +0.000 A 
ATOM     19  C   UNL     1      12.188 -15.870 -15.425  0.00  0.00    +0.000 A 
ATOM     20  C   UNL     1      11.607 -14.733 -15.959  0.00  0.00    +0.000 A 
ENDBRANCH  12  16
ENDBRANCH   2   9
BRANCH   1  22
ATOM     21  O   UNL     1       3.714 -16.042 -16.708  0.00  0.00    +0.000 OA
ATOM     22  N   UNL     1       2.239 -15.939 -14.919  0.00  0.00    +0.000 N 
ATOM     23  C   UNL     1       2.575 -15.958 -16.265  0.00  0.00    +0.000 C 
ATOM     24  H   UNL     1       1.261 -15.983 -14.656  0.00  0.00    +0.000 HD
BRANCH  23  30
ATOM     25  C   UNL     1      -0.693 -15.881 -19.011  0.00  0.00    +0.000 A 
ATOM     26  C   UNL     1       0.289 -14.897 -19.096  0.00  0.00    +0.000 A 
ATOM     27  C   UNL     1      -0.611 -16.874 -18.040  0.00  0.00    +0.000 A 
ATOM     28  C   UNL     1       1.360 -14.908 -18.204  0.00  0.00    +0.000 A 
ATOM     29  C   UNL     1       0.459 -16.882 -17.148  0.00  0.00    +0.000 A 
ATOM     30  C   UNL     1       1.448 -15.898 -17.226  0.00  0.00    +0.000 A 
BRANCH  25  31
ATOM     31  C   UNL     1      -1.788 -15.871 -19.925  0.00  0.00    +0.000 C 
BRANCH  31  32
ATOM     32  N   UNL     1      -2.908 -15.863 -20.857  0.00  0.00    +0.000 N 
ATOM     33  N   UNL     1      -5.906 -14.412 -19.627  0.00  0.00    +0.000 N 
ATOM     34  C   UNL     1      -4.075 -16.443 -20.135  0.00  0.00    +0.000 C 
ATOM     35  C   UNL     1      -3.430 -14.468 -20.893  0.00  0.00    +0.000 C 
ATOM     36  C   UNL     1      -5.392 -15.808 -19.604  0.00  0.00    +0.000 C 
ATOM     37  C   UNL     1      -4.747 -13.834 -20.361  0.00  0.00    +0.000 C 
ATOM     38  C   UNL     1      -7.041 -14.390 -20.538  0.00  0.00    +0.000 C 
ENDBRANCH  31  32
ENDBRANCH  25  31
ENDBRANCH  23  30
ENDBRANCH   1  22
TORSDOF 6
ENDMDL
MODEL 4
REMARK VINA RESULT:      -6.7     13.797     19.153
REMARK  Name = 10074640_Masitinib.pdbqt.pdb
REMARK  6 active torsions:
REMARK  status: ('A' for Active; 'I' for Inactive)
REMARK    1  A    between atoms: C_1  and  N_22
REMARK    2  A    between atoms: C_2  and  N_9
REMARK    3  A    between atoms: C_12  and  C_16
REMARK    4  A    between atoms: C_23  and  C_30
REMARK    5  A    between atoms: C_25  and  C_31
REMARK    6  A    between atoms: C_31  and  N_32
REMARK                            x       y       z     vdW  Elec       q    Type
REMARK                         _______ _______ _______ _____ _____    ______ ____
ROOT
ATOM      1  C   UNL     1      -7.406  -2.111  -0.274  0.00  0.00    +0.000 A 
ATOM      2  C   UNL     1      -9.761  -2.782  -0.260  0.00  0.00    +0.000 A 
ATOM      3  C   UNL     1      -8.651  -2.187   0.353  0.00  0.00    +0.000 A 
ATOM      4  C   UNL     1      -9.575  -3.311  -1.553  0.00  0.00    +0.000 A 
ATOM      5  C   UNL     1      -7.261  -2.622  -1.562  0.00  0.00    +0.000 A 
ATOM      6  C   UNL     1      -8.340  -3.230  -2.198  0.00  0.00    +0.000 A 
ATOM      7  C   UNL     1     -10.719  -3.982  -2.284  0.00  0.00    +0.000 C 
ENDROOT
BRANCH   2   9
ATOM      8  S   UNL     1     -13.083  -3.612   1.877  0.00  0.00    +0.000 S 
ATOM      9  N   UNL     1     -11.031  -2.818   0.362  0.00  0.00    +0.000 N 
ATOM     10  N   UNL     1     -10.677  -4.495   2.011  0.00  0.00    +0.000 NA
ATOM     11  C   UNL     1     -11.434  -3.646   1.352  0.00  0.00    +0.000 A 
ATOM     12  C   UNL     1     -11.410  -5.190   2.954  0.00  0.00    +0.000 A 
ATOM     13  C   UNL     1     -12.735  -4.830   3.006  0.00  0.00    +0.000 A 
ATOM     14  H   UNL     1     -11.679  -2.116   0.010  0.00  0.00    +0.000 HD
BRANCH  12  16
ATOM     15  N   UNL     1      -9.946  -8.443   4.056  0.00  0.00    +0.000 NA
ATOM     16  C   UNL     1     -10.807  -6.190   3.806  0.00  0.00    +0.000 A 
ATOM     17  C   UNL     1     -10.462  -5.920   5.127  0.00  0.00    +0.000 A 
ATOM     18  C   UNL     1     -10.535  -7.463   3.326  0.00  0.00    +0.000 A 
ATOM     19  C   UNL     1      -9.868  -6.900   5.914  0.00  0.00    +0.000 A 
ATOM     20  C   UNL     1      -9.633  -8.135   5.332  0.00  0.00    +0.000 A 
ENDBRANCH  12  16
ENDBRANCH   2   9
BRANCH   1  22
ATOM     21  O   UNL     1      -6.815   0.720  -0.001  0.00  0.00    +0.000 OA
ATOM     22  N   UNL     1      -6.281  -1.514   0.330  0.00  0.00    +0.000 N 
ATOM     23  C   UNL     1      -6.041  -0.149   0.382  0.00  0.00    +0.000 C 
ATOM     24  H   UNL     1      -5.627  -2.146   0.778  0.00  0.00    +0.000 HD
BRANCH  23  30
ATOM     25  C   UNL     1      -2.278   1.032   2.018  0.00  0.00    +0.000 A 
ATOM     26  C   UNL     1      -3.357   0.828   2.874  0.00  0.00    +0.000 A 
ATOM     27  C   UNL     1      -2.427   0.857   0.645  0.00  0.00    +0.000 A 
ATOM     28  C   UNL     1      -4.592   0.446   2.354  0.00  0.00    +0.000 A 
ATOM     29  C   UNL     1      -3.662   0.476   0.127  0.00  0.00    +0.000 A 
ATOM     30  C   UNL     1      -4.750   0.270   0.980  0.00  0.00    +0.000 A 
BRANCH  25  31
ATOM     31  C   UNL     1      -1.013   1.422   2.550  0.00  0.00    +0.000 C 
BRANCH  31  32
ATOM     32  N   UNL     1       0.278   1.822   3.094  0.00  0.00    +0.000 N 
ATOM     33  N   UNL     1       2.582   3.145   0.739  0.00  0.00    +0.000 N 
ATOM     34  C   UNL     1       1.322   1.178   2.248  0.00  0.00    +0.000 C 
ATOM     35  C   UNL     1       0.535   3.211   2.620  0.00  0.00    +0.000 C 
ATOM     36  C   UNL     1       2.337   1.759   1.223  0.00  0.00    +0.000 C 
ATOM     37  C   UNL     1       1.550   3.791   1.594  0.00  0.00    +0.000 C 
ATOM     38  C   UNL     1       3.881   3.553   1.255  0.00  0.00    +0.000 C 
ENDBRANCH  31  32
ENDBRANCH  25  31
ENDBRANCH  23  30
ENDBRANCH   1  22
TORSDOF 6
ENDMDL
MODEL 5
REMARK VINA RESULT:      -6.6     13.284     16.535
REMARK  Name = 10074640_Masitinib.pdbqt.pdb
REMARK  6 active torsions:
REMARK  status: ('A' for Active; 'I' for Inactive)
REMARK    1  A    between atoms: C_1  and  N_22
REMARK    2  A    between atoms: C_2  and  N_9
REMARK    3  A    between atoms: C_12  and  C_16
REMARK    4  A    between atoms: C_23  and  C_30
REMARK    5  A    between atoms: C_25  and  C_31
REMARK    6  A    between atoms: C_31  and  N_32
REMARK                            x       y       z     vdW  Elec       q    Type
REMARK                         _______ _______ _______ _____ _____    ______ ____
ROOT
ATOM      1  C   UNL     1       2.893 -16.150 -13.773  0.00  0.00    +0.000 A 
ATOM      2  C   UNL     1       4.215 -17.254 -12.031  0.00  0.00    +0.000 A 
ATOM      3  C   UNL     1       3.298 -17.298 -13.090  0.00  0.00    +0.000 A 
ATOM      4  C   UNL     1       4.720 -15.989 -11.672  0.00  0.00    +0.000 A 
ATOM      5  C   UNL     1       3.430 -14.918 -13.408  0.00  0.00    +0.000 A 
ATOM      6  C   UNL     1       4.335 -14.834 -12.354  0.00  0.00    +0.000 A 
ATOM      7  C   UNL     1       5.707 -15.848 -10.530  0.00  0.00    +0.000 C 
ENDROOT
BRANCH   2   9
ATOM      8  S   UNL     1       5.003 -20.286  -9.487  0.00  0.00    +0.000 S 
ATOM      9  N   UNL     1       4.655 -18.425 -11.371  0.00  0.00    +0.000 N 
ATOM     10  N   UNL     1       3.231 -18.430  -9.465  0.00  0.00    +0.000 NA
ATOM     11  C   UNL     1       4.228 -18.902 -10.180  0.00  0.00    +0.000 A 
ATOM     12  C   UNL     1       3.070 -19.149  -8.297  0.00  0.00    +0.000 A 
ATOM     13  C   UNL     1       3.955 -20.190  -8.156  0.00  0.00    +0.000 A 
ATOM     14  H   UNL     1       5.357 -18.948 -11.891  0.00  0.00    +0.000 HD
BRANCH  12  16
ATOM     15  N   UNL     1       1.466 -18.095  -5.094  0.00  0.00    +0.000 NA
ATOM     16  C   UNL     1       2.041 -18.823  -7.334  0.00  0.00    +0.000 A 
ATOM     17  C   UNL     1       0.689 -18.860  -7.662  0.00  0.00    +0.000 A 
ATOM     18  C   UNL     1       2.373 -18.443  -6.041  0.00  0.00    +0.000 A 
ATOM     19  C   UNL     1      -0.273 -18.524  -6.715  0.00  0.00    +0.000 A 
ATOM     20  C   UNL     1       0.167 -18.150  -5.457  0.00  0.00    +0.000 A 
ENDBRANCH  12  16
ENDBRANCH   2   9
BRANCH   1  22
ATOM     21  O   UNL     1       3.449 -16.513 -16.601  0.00  0.00    +0.000 OA
ATOM     22  N   UNL     1       1.974 -16.181 -14.841  0.00  0.00    +0.000 N 
ATOM     23  C   UNL     1       2.317 -16.311 -16.178  0.00  0.00    +0.000 C 
ATOM     24  H   UNL     1       0.993 -16.130 -14.588  0.00  0.00    +0.000 HD
BRANCH  23  30
ATOM     25  C   UNL     1      -0.858 -15.966 -19.012  0.00  0.00    +0.000 A 
ATOM     26  C   UNL     1      -0.890 -16.999 -18.078  0.00  0.00    +0.000 A 
ATOM     27  C   UNL     1       0.200 -15.062 -19.023  0.00  0.00    +0.000 A 
ATOM     28  C   UNL     1       0.141 -17.125 -17.149  0.00  0.00    +0.000 A 
ATOM     29  C   UNL     1       1.230 -15.190 -18.095  0.00  0.00    +0.000 A 
ATOM     30  C   UNL     1       1.205 -16.224 -17.156  0.00  0.00    +0.000 A 
BRANCH  25  31
ATOM     31  C   UNL     1      -1.914 -15.835 -19.962  0.00  0.00    +0.000 C 
BRANCH  31  32
ATOM     32  N   UNL     1      -2.994 -15.703 -20.932  0.00  0.00    +0.000 N 
ATOM     33  N   UNL     1      -6.092 -14.569 -19.622  0.00  0.00    +0.000 N 
ATOM     34  C   UNL     1      -4.167 -16.430 -20.373  0.00  0.00    +0.000 C 
ATOM     35  C   UNL     1      -3.565 -14.338 -20.760  0.00  0.00    +0.000 C 
ATOM     36  C   UNL     1      -5.528 -15.934 -19.807  0.00  0.00    +0.000 C 
ATOM     37  C   UNL     1      -4.926 -13.842 -20.193  0.00  0.00    +0.000 C 
ATOM     38  C   UNL     1      -7.188 -14.428 -20.570  0.00  0.00    +0.000 C 
ENDBRANCH  31  32
ENDBRANCH  25  31
ENDBRANCH  23  30
ENDBRANCH   1  22
TORSDOF 6
ENDMDL
MODEL 6
REMARK VINA RESULT:      -6.6     16.956     21.815
REMARK  Name = 10074640_Masitinib.pdbqt.pdb
REMARK  6 active torsions:
REMARK  status: ('A' for Active; 'I' for Inactive)
REMARK    1  A    between atoms: C_1  and  N_22
REMARK    2  A    between atoms: C_2  and  N_9
REMARK    3  A    between atoms: C_12  and  C_16
REMARK    4  A    between atoms: C_23  and  C_30
REMARK    5  A    between atoms: C_25  and  C_31
REMARK    6  A    between atoms: C_31  and  N_32
REMARK                            x       y       z     vdW  Elec       q    Type
REMARK                         _______ _______ _______ _____ _____    ______ ____
ROOT
ATOM      1  C   UNL     1      -1.549   1.068   1.048  0.00  0.00    +0.000 A 
ATOM      2  C   UNL     1       0.433   1.501   2.421  0.00  0.00    +0.000 A 
ATOM      3  C   UNL     1      -0.923   1.171   2.292  0.00  0.00    +0.000 A 
ATOM      4  C   UNL     1       1.154   1.729   1.232  0.00  0.00    +0.000 A 
ATOM      5  C   UNL     1      -0.801   1.276  -0.108  0.00  0.00    +0.000 A 
ATOM      6  C   UNL     1       0.546   1.616  -0.018  0.00  0.00    +0.000 A 
ATOM      7  C   UNL     1       2.622   2.102   1.281  0.00  0.00    +0.000 C 
ENDROOT
BRANCH   2   9
ATOM      8  S   UNL     1       2.393   2.505   5.803  0.00  0.00    +0.000 S 
ATOM      9  N   UNL     1       1.072   1.563   3.682  0.00  0.00    +0.000 N 
ATOM     10  N   UNL     1       1.312   3.914   3.950  0.00  0.00    +0.000 NA
ATOM     11  C   UNL     1       1.510   2.669   4.323  0.00  0.00    +0.000 A 
ATOM     12  C   UNL     1       1.902   4.799   4.832  0.00  0.00    +0.000 A 
ATOM     13  C   UNL     1       2.532   4.194   5.892  0.00  0.00    +0.000 A 
ATOM     14  H   UNL     1       1.180   0.655   4.130  0.00  0.00    +0.000 HD
BRANCH  12  16
ATOM     15  N   UNL     1       2.744   8.426   5.120  0.00  0.00    +0.000 NA
ATOM     16  C   UNL     1       1.832   6.231   4.639  0.00  0.00    +0.000 A 
ATOM     17  C   UNL     1       0.884   6.815   3.805  0.00  0.00    +0.000 A 
ATOM     18  C   UNL     1       2.729   7.078   5.274  0.00  0.00    +0.000 A 
ATOM     19  C   UNL     1       0.856   8.194   3.629  0.00  0.00    +0.000 A 
ATOM     20  C   UNL     1       1.802   8.946   4.305  0.00  0.00    +0.000 A 
ENDBRANCH  12  16
ENDBRANCH   2   9
BRANCH   1  22
ATOM     21  O   UNL     1      -3.629   1.126   3.076  0.00  0.00    +0.000 OA
ATOM     22  N   UNL     1      -2.911   0.736   0.903  0.00  0.00    +0.000 N 
ATOM     23  C   UNL     1      -3.842   0.742   1.932  0.00  0.00    +0.000 C 
ATOM     24  H   UNL     1      -3.217   0.506  -0.035  0.00  0.00    +0.000 HD
BRANCH  23  30
ATOM     25  C   UNL     1      -7.775  -0.549   0.885  0.00  0.00    +0.000 A 
ATOM     26  C   UNL     1      -7.183  -1.045   2.045  0.00  0.00    +0.000 A 
ATOM     27  C   UNL     1      -7.089   0.353   0.077  0.00  0.00    +0.000 A 
ATOM     28  C   UNL     1      -5.899  -0.635   2.397  0.00  0.00    +0.000 A 
ATOM     29  C   UNL     1      -5.805   0.761   0.430  0.00  0.00    +0.000 A 
ATOM     30  C   UNL     1      -5.204   0.267   1.590  0.00  0.00    +0.000 A 
BRANCH  25  31
ATOM     31  C   UNL     1      -9.090  -0.967   0.525  0.00  0.00    +0.000 C 
BRANCH  31  32
ATOM     32  N   UNL     1     -10.434  -1.393   0.155  0.00  0.00    +0.000 N 
ATOM     33  N   UNL     1     -10.623  -4.438  -1.660  0.00  0.00    +0.000 N 
ATOM     34  C   UNL     1     -10.406  -1.689  -1.304  0.00  0.00    +0.000 C 
ATOM     35  C   UNL     1     -10.574  -2.810   0.594  0.00  0.00    +0.000 C 
ATOM     36  C   UNL     1     -10.498  -3.022  -2.100  0.00  0.00    +0.000 C 
ATOM     37  C   UNL     1     -10.665  -4.143  -0.202  0.00  0.00    +0.000 C 
ATOM     38  C   UNL     1     -11.954  -4.888  -2.042  0.00  0.00    +0.000 C 
ENDBRANCH  31  32
ENDBRANCH  25  31
ENDBRANCH  23  30
ENDBRANCH   1  22
TORSDOF 6
ENDMDL
MODEL 7
REMARK VINA RESULT:      -6.6     15.556     20.016
REMARK  Name = 10074640_Masitinib.pdbqt.pdb
REMARK  6 active torsions:
REMARK  status: ('A' for Active; 'I' for Inactive)
REMARK    1  A    between atoms: C_1  and  N_22
REMARK    2  A    between atoms: C_2  and  N_9
REMARK    3  A    between atoms: C_12  and  C_16
REMARK    4  A    between atoms: C_23  and  C_30
REMARK    5  A    between atoms: C_25  and  C_31
REMARK    6  A    between atoms: C_31  and  N_32
REMARK                            x       y       z     vdW  Elec       q    Type
REMARK                         _______ _______ _______ _____ _____    ______ ____
ROOT
ATOM      1  C   UNL     1      -7.150  -0.824  -0.149  0.00  0.00    +0.000 A 
ATOM      2  C   UNL     1      -9.543  -0.337  -0.341  0.00  0.00    +0.000 A 
ATOM      3  C   UNL     1      -8.220   0.073  -0.125  0.00  0.00    +0.000 A 
ATOM      4  C   UNL     1      -9.759  -1.707  -0.585  0.00  0.00    +0.000 A 
ATOM      5  C   UNL     1      -7.396  -2.168  -0.416  0.00  0.00    +0.000 A 
ATOM      6  C   UNL     1      -8.699  -2.613  -0.625  0.00  0.00    +0.000 A 
ATOM      7  C   UNL     1     -11.160  -2.238  -0.817  0.00  0.00    +0.000 C 
ENDROOT
BRANCH   2   9
ATOM      8  S   UNL     1     -12.716   2.035   0.431  0.00  0.00    +0.000 S 
ATOM      9  N   UNL     1     -10.618   0.582  -0.359  0.00  0.00    +0.000 N 
ATOM     10  N   UNL     1     -11.117   0.737   1.962  0.00  0.00    +0.000 NA
ATOM     11  C   UNL     1     -11.349   1.007   0.696  0.00  0.00    +0.000 A 
ATOM     12  C   UNL     1     -12.064   1.324   2.780  0.00  0.00    +0.000 A 
ATOM     13  C   UNL     1     -13.004   2.062   2.103  0.00  0.00    +0.000 A 
ATOM     14  H   UNL     1     -10.821   0.956  -1.284  0.00  0.00    +0.000 HD
BRANCH  12  16
ATOM     15  N   UNL     1     -13.092   1.578   6.360  0.00  0.00    +0.000 NA
ATOM     16  C   UNL     1     -12.033   1.171   4.217  0.00  0.00    +0.000 A 
ATOM     17  C   UNL     1     -11.013   0.476   4.861  0.00  0.00    +0.000 A 
ATOM     18  C   UNL     1     -13.038   1.705   5.010  0.00  0.00    +0.000 A 
ATOM     19  C   UNL     1     -11.024   0.335   6.244  0.00  0.00    +0.000 A 
ATOM     20  C   UNL     1     -12.079   0.900   6.940  0.00  0.00    +0.000 A 
ENDBRANCH  12  16
ENDBRANCH   2   9
BRANCH   1  22
ATOM     21  O   UNL     1      -5.653  -0.850   2.341  0.00  0.00    +0.000 OA
ATOM     22  N   UNL     1      -5.815  -0.426   0.065  0.00  0.00    +0.000 N 
ATOM     23  C   UNL     1      -5.177  -0.421   1.297  0.00  0.00    +0.000 C 
ATOM     24  H   UNL     1      -5.292  -0.155  -0.760  0.00  0.00    +0.000 HD
BRANCH  23  30
ATOM     25  C   UNL     1      -1.230   1.200   1.456  0.00  0.00    +0.000 A 
ATOM     26  C   UNL     1      -1.701   0.675   0.255  0.00  0.00    +0.000 A 
ATOM     27  C   UNL     1      -2.036   1.191   2.590  0.00  0.00    +0.000 A 
ATOM     28  C   UNL     1      -2.986   0.139   0.189  0.00  0.00    +0.000 A 
ATOM     29  C   UNL     1      -3.319   0.655   2.523  0.00  0.00    +0.000 A 
ATOM     30  C   UNL     1      -3.799   0.125   1.323  0.00  0.00    +0.000 A 
BRANCH  25  31
ATOM     31  C   UNL     1       0.084   1.749   1.523  0.00  0.00    +0.000 C 
BRANCH  31  32
ATOM     32  N   UNL     1       1.429   2.309   1.592  0.00  0.00    +0.000 N 
ATOM     33  N   UNL     1       3.668   0.632   3.778  0.00  0.00    +0.000 N 
ATOM     34  C   UNL     1       1.744   2.498   3.035  0.00  0.00    +0.000 C 
ATOM     35  C   UNL     1       2.377   1.180   1.376  0.00  0.00    +0.000 C 
ATOM     36  C   UNL     1       2.732   1.769   3.990  0.00  0.00    +0.000 C 
ATOM     37  C   UNL     1       3.364   0.451   2.332  0.00  0.00    +0.000 C 
ATOM     38  C   UNL     1       5.019   1.170   3.865  0.00  0.00    +0.000 C 
ENDBRANCH  31  32
ENDBRANCH  25  31
ENDBRANCH  23  30
ENDBRANCH   1  22
TORSDOF 6
ENDMDL
MODEL 8
REMARK VINA RESULT:      -6.5     13.518     18.974
REMARK  Name = 10074640_Masitinib.pdbqt.pdb
REMARK  6 active torsions:
REMARK  status: ('A' for Active; 'I' for Inactive)
REMARK    1  A    between atoms: C_1  and  N_22
REMARK    2  A    between atoms: C_2  and  N_9
REMARK    3  A    between atoms: C_12  and  C_16
REMARK    4  A    between atoms: C_23  and  C_30
REMARK    5  A    between atoms: C_25  and  C_31
REMARK    6  A    between atoms: C_31  and  N_32
REMARK                            x       y       z     vdW  Elec       q    Type
REMARK                         _______ _______ _______ _____ _____    ______ ____
ROOT
ATOM      1  C   UNL     1     -15.268   3.878 -18.308  0.00  0.00    +0.000 A 
ATOM      2  C   UNL     1     -14.343   3.437 -20.533  0.00  0.00    +0.000 A 
ATOM      3  C   UNL     1     -14.181   3.709 -19.167  0.00  0.00    +0.000 A 
ATOM      4  C   UNL     1     -15.663   3.340 -21.016  0.00  0.00    +0.000 A 
ATOM      5  C   UNL     1     -16.560   3.752 -18.813  0.00  0.00    +0.000 A 
ATOM      6  C   UNL     1     -16.759   3.493 -20.167  0.00  0.00    +0.000 A 
ATOM      7  C   UNL     1     -15.929   3.061 -22.482  0.00  0.00    +0.000 C 
ENDROOT
BRANCH   2   9
ATOM      8  S   UNL     1     -10.920   2.304 -22.346  0.00  0.00    +0.000 S 
ATOM      9  N   UNL     1     -13.238   3.224 -21.391  0.00  0.00    +0.000 N 
ATOM     10  N   UNL     1     -12.214   1.347 -20.348  0.00  0.00    +0.000 NA
ATOM     11  C   UNL     1     -12.258   2.303 -21.249  0.00  0.00    +0.000 A 
ATOM     12  C   UNL     1     -11.068   0.587 -20.481  0.00  0.00    +0.000 A 
ATOM     13  C   UNL     1     -10.257   0.979 -21.519  0.00  0.00    +0.000 A 
ATOM     14  H   UNL     1     -13.226   3.839 -22.202  0.00  0.00    +0.000 HD
BRANCH  12  16
ATOM     15  N   UNL     1     -10.120  -2.845 -19.359  0.00  0.00    +0.000 NA
ATOM     16  C   UNL     1     -10.781  -0.525 -19.604  0.00  0.00    +0.000 A 
ATOM     17  C   UNL     1     -10.827  -0.400 -18.218  0.00  0.00    +0.000 A 
ATOM     18  C   UNL     1     -10.430  -1.765 -20.118  0.00  0.00    +0.000 A 
ATOM     19  C   UNL     1     -10.529  -1.486 -17.403  0.00  0.00    +0.000 A 
ATOM     20  C   UNL     1     -10.183  -2.676 -18.021  0.00  0.00    +0.000 A 
ENDBRANCH  12  16
ENDBRANCH   2   9
BRANCH   1  22
ATOM     21  O   UNL     1     -17.100   5.301 -16.560  0.00  0.00    +0.000 OA
ATOM     22  N   UNL     1     -15.120   4.150 -16.933  0.00  0.00    +0.000 N 
ATOM     23  C   UNL     1     -16.018   4.880 -16.169  0.00  0.00    +0.000 C 
ATOM     24  H   UNL     1     -14.304   3.749 -16.484  0.00  0.00    +0.000 HD
BRANCH  23  30
ATOM     25  C   UNL     1     -14.819   5.558 -12.127  0.00  0.00    +0.000 A 
ATOM     26  C   UNL     1     -16.137   5.815 -12.497  0.00  0.00    +0.000 A 
ATOM     27  C   UNL     1     -13.904   5.089 -13.066  0.00  0.00    +0.000 A 
ATOM     28  C   UNL     1     -16.541   5.602 -13.814  0.00  0.00    +0.000 A 
ATOM     29  C   UNL     1     -14.310   4.877 -14.381  0.00  0.00    +0.000 A 
ATOM     30  C   UNL     1     -15.630   5.135 -14.760  0.00  0.00    +0.000 A 
BRANCH  25  31
ATOM     31  C   UNL     1     -14.405   5.775 -10.780  0.00  0.00    +0.000 C 
BRANCH  31  32
ATOM     32  N   UNL     1     -13.983   5.994  -9.402  0.00  0.00    +0.000 N 
ATOM     33  N   UNL     1     -10.636   7.105  -8.991  0.00  0.00    +0.000 N 
ATOM     34  C   UNL     1     -12.701   5.257  -9.221  0.00  0.00    +0.000 C 
ATOM     35  C   UNL     1     -13.383   7.357  -9.346  0.00  0.00    +0.000 C 
ATOM     36  C   UNL     1     -11.236   5.744  -9.031  0.00  0.00    +0.000 C 
ATOM     37  C   UNL     1     -11.918   7.844  -9.158  0.00  0.00    +0.000 C 
ATOM     38  C   UNL     1     -10.188   7.333  -7.624  0.00  0.00    +0.000 C 
ENDBRANCH  31  32
ENDBRANCH  25  31
ENDBRANCH  23  30
ENDBRANCH   1  22
TORSDOF 6
ENDMDL
MODEL 9
REMARK VINA RESULT:      -6.5      4.636      8.595
REMARK  Name = 10074640_Masitinib.pdbqt.pdb
REMARK  6 active torsions:
REMARK  status: ('A' for Active; 'I' for Inactive)
REMARK    1  A    between atoms: C_1  and  N_22
REMARK    2  A    between atoms: C_2  and  N_9
REMARK    3  A    between atoms: C_12  and  C_16
REMARK    4  A    between atoms: C_23  and  C_30
REMARK    5  A    between atoms: C_25  and  C_31
REMARK    6  A    between atoms: C_31  and  N_32
REMARK                            x       y       z     vdW  Elec       q    Type
REMARK                         _______ _______ _______ _____ _____    ______ ____
ROOT
ATOM      1  C   UNL     1     -10.914 -12.796 -18.120  0.00  0.00    +0.000 A 
ATOM      2  C   UNL     1     -12.425 -13.147 -16.224  0.00  0.00    +0.000 A 
ATOM      3  C   UNL     1     -11.225 -13.402 -16.901  0.00  0.00    +0.000 A 
ATOM      4  C   UNL     1     -13.322 -12.243 -16.827  0.00  0.00    +0.000 A 
ATOM      5  C   UNL     1     -11.813 -11.889 -18.677  0.00  0.00    +0.000 A 
ATOM      6  C   UNL     1     -13.020 -11.619 -18.037  0.00  0.00    +0.000 A 
ATOM      7  C   UNL     1     -14.649 -11.919 -16.169  0.00  0.00    +0.000 C 
ENDROOT
BRANCH   2   9
ATOM      8  S   UNL     1     -12.764 -14.168 -12.335  0.00  0.00    +0.000 S 
ATOM      9  N   UNL     1     -12.716 -13.730 -14.969  0.00  0.00    +0.000 N 
ATOM     10  N   UNL     1     -11.962 -12.023 -13.493  0.00  0.00    +0.000 NA
ATOM     11  C   UNL     1     -12.443 -13.220 -13.747  0.00  0.00    +0.000 A 
ATOM     12  C   UNL     1     -11.796 -11.829 -12.136  0.00  0.00    +0.000 A 
ATOM     13  C   UNL     1     -12.182 -12.901 -11.367  0.00  0.00    +0.000 A 
ATOM     14  H   UNL     1     -13.201 -14.622 -15.036  0.00  0.00    +0.000 HD
BRANCH  12  16
ATOM     15  N   UNL     1     -11.027  -9.109  -9.696  0.00  0.00    +0.000 NA
ATOM     16  C   UNL     1     -11.274 -10.592 -11.599  0.00  0.00    +0.000 A 
ATOM     17  C   UNL     1     -10.510  -9.720 -12.369  0.00  0.00    +0.000 A 
ATOM     18  C   UNL     1     -11.507 -10.236 -10.278  0.00  0.00    +0.000 A 
ATOM     19  C   UNL     1     -10.010  -8.547 -11.815  0.00  0.00    +0.000 A 
ATOM     20  C   UNL     1     -10.296  -8.293 -10.484  0.00  0.00    +0.000 A 
ENDBRANCH  12  16
ENDBRANCH   2   9
BRANCH   1  22
ATOM     21  O   UNL     1     -10.502 -14.485 -20.447  0.00  0.00    +0.000 OA
ATOM     22  N   UNL     1      -9.710 -13.042 -18.811  0.00  0.00    +0.000 N 
ATOM     23  C   UNL     1      -9.579 -13.902 -19.891  0.00  0.00    +0.000 C 
ATOM     24  H   UNL     1      -8.900 -12.520 -18.496  0.00  0.00    +0.000 HD
BRANCH  23  30
ATOM     25  C   UNL     1      -5.609 -14.358 -21.395  0.00  0.00    +0.000 A 
ATOM     26  C   UNL     1      -6.530 -15.386 -21.585  0.00  0.00    +0.000 A 
ATOM     27  C   UNL     1      -5.979 -13.199 -20.720  0.00  0.00    +0.000 A 
ATOM     28  C   UNL     1      -7.828 -15.252 -21.097  0.00  0.00    +0.000 A 
ATOM     29  C   UNL     1      -7.276 -13.068 -20.231  0.00  0.00    +0.000 A 
ATOM     30  C   UNL     1      -8.205 -14.095 -20.416  0.00  0.00    +0.000 A 
BRANCH  25  31
ATOM     31  C   UNL     1      -4.281 -14.494 -21.897  0.00  0.00    +0.000 C 
BRANCH  31  32
ATOM     32  N   UNL     1      -2.923 -14.635 -22.408  0.00  0.00    +0.000 N 
ATOM     33  N   UNL     1      -0.396 -15.015 -19.944  0.00  0.00    +0.000 N 
ATOM     34  C   UNL     1      -2.082 -13.644 -21.680  0.00  0.00    +0.000 C 
ATOM     35  C   UNL     1      -2.338 -15.840 -21.755  0.00  0.00    +0.000 C 
ATOM     36  C   UNL     1      -0.969 -13.812 -20.607  0.00  0.00    +0.000 C 
ATOM     37  C   UNL     1      -1.226 -16.006 -20.681  0.00  0.00    +0.000 C 
ATOM     38  C   UNL     1       0.970 -15.158 -20.427  0.00  0.00    +0.000 C 
ENDBRANCH  31  32
ENDBRANCH  25  31
ENDBRANCH  23  30
ENDBRANCH   1  22
TORSDOF 6
ENDMDL
