MODEL 1
REMARK VINA RESULT:      -7.4      0.000      0.000
REMARK  Name = 101808842_CandidaspongiolideB.pdbqt.pdb
REMARK  12 active torsions:
REMARK  status: ('A' for Active; 'I' for Inactive)
REMARK    1  A    between atoms: C_6  and  C_42
REMARK    2  A    between atoms: C_7  and  O_28
REMARK    3  A    between atoms: C_10  and  O_30
REMARK    4  A    between atoms: C_13  and  O_32
REMARK    5  A    between atoms: C_19  and  O_34
REMARK    6  A    between atoms: C_20  and  O_38
REMARK    7  A    between atoms: C_21  and  O_36
REMARK    8  A    between atoms: O_38  and  C_40
REMARK    9  A    between atoms: C_42  and  C_44
REMARK   10  A    between atoms: C_42  and  O_52
REMARK   11  A    between atoms: C_45  and  C_47
REMARK   12  A    between atoms: C_47  and  C_49
REMARK                            x       y       z     vdW  Elec       q    Type
REMARK                         _______ _______ _______ _____ _____    ______ ____
ROOT
ATOM      1  O   UNL     1      -2.728   3.155 -21.061  0.00  0.00    +0.000 OA
ATOM      2  O   UNL     1      -1.009  -3.148 -18.934  0.00  0.00    +0.000 OA
ATOM      3  O   UNL     1      -3.225  -0.595 -21.501  0.00  0.00    +0.000 OA
ATOM      4  O   UNL     1      -0.006  -2.014 -20.674  0.00  0.00    +0.000 OA
ATOM      5  O   UNL     1       1.916   0.095 -19.883  0.00  0.00    +0.000 OA
ATOM      6  C   UNL     1      -3.295  -1.691 -19.434  0.00  0.00    +0.000 C 
ATOM      7  C   UNL     1      -2.868   0.857 -19.545  0.00  0.00    +0.000 C 
ATOM      8  C   UNL     1      -3.131  -0.475 -20.279  0.00  0.00    +0.000 C 
ATOM      9  C   UNL     1      -2.146  -2.490 -19.173  0.00  0.00    +0.000 C 
ATOM     10  C   UNL     1      -1.357   1.062 -19.315  0.00  0.00    +0.000 C 
ATOM     11  C   UNL     1      -0.810   2.250 -19.886  0.00  0.00    +0.000 C 
ATOM     12  C   UNL     1      -3.140   2.041 -20.422  0.00  0.00    +0.000 C 
ATOM     13  C   UNL     1      -1.296   3.382 -20.735  0.00  0.00    +0.000 C 
ATOM     14  C   UNL     1      -0.489   3.485 -22.037  0.00  0.00    +0.000 C 
ATOM     15  C   UNL     1       0.370   2.426 -22.457  0.00  0.00    +0.000 C 
ATOM     16  C   UNL     1      -0.406   4.704 -22.950  0.00  0.00    +0.000 C 
ATOM     17  C   UNL     1       0.043  -2.752 -19.701  0.00  0.00    +0.000 C 
ATOM     18  C   UNL     1       1.152   1.436 -22.761  0.00  0.00    +0.000 C 
ATOM     19  C   UNL     1       1.314  -3.271 -19.144  0.00  0.00    +0.000 C 
ATOM     20  C   UNL     1       2.554   1.442 -22.412  0.00  0.00    +0.000 C 
ATOM     21  C   UNL     1       2.590  -2.683 -19.504  0.00  0.00    +0.000 C 
ATOM     22  C   UNL     1       3.298   0.340 -21.806  0.00  0.00    +0.000 C 
ATOM     23  C   UNL     1       2.896  -1.932 -20.712  0.00  0.00    +0.000 C 
ATOM     24  C   UNL     1       2.632  -0.459 -20.725  0.00  0.00    +0.000 C 
ATOM     25  C   UNL     1       0.492   0.205 -23.313  0.00  0.00    +0.000 C 
ATOM     26  C   UNL     1       4.823   0.318 -21.899  0.00  0.00    +0.000 C 
ATOM     27  C   UNL     1       3.230  -2.702 -21.986  0.00  0.00    +0.000 C 
ENDROOT
BRANCH   7  28
ATOM     28  O   UNL     1      -3.545   1.036 -18.318  0.00  0.00    +0.000 OA
ATOM     29  H   UNL     1      -4.012   0.199 -18.137  0.00  0.00    +0.000 HD
ENDBRANCH   7  28
BRANCH  10  30
ATOM     30  O   UNL     1      -0.590   0.180 -18.600  0.00  0.00    +0.000 OA
ATOM     31  H   UNL     1      -0.573  -0.703 -19.026  0.00  0.00    +0.000 HD
ENDBRANCH  10  30
BRANCH  13  32
ATOM     32  O   UNL     1      -1.190   4.579 -19.969  0.00  0.00    +0.000 OA
ATOM     33  H   UNL     1      -0.437   4.442 -19.371  0.00  0.00    +0.000 HD
ENDBRANCH  13  32
BRANCH  19  34
ATOM     34  O   UNL     1       1.342  -4.235 -18.154  0.00  0.00    +0.000 OA
ATOM     35  H   UNL     1       1.711  -3.908 -17.308  0.00  0.00    +0.000 HD
ENDBRANCH  19  34
BRANCH  21  36
ATOM     36  O   UNL     1       3.677  -3.192 -18.811  0.00  0.00    +0.000 OA
ATOM     37  C   UNL     1       4.309  -2.185 -18.061  0.00  0.00    +0.000 C 
ENDBRANCH  21  36
BRANCH  20  38
ATOM     38  O   UNL     1       3.301   2.505 -22.972  0.00  0.00    +0.000 OA
BRANCH  38  40
ATOM     39  O   UNL     1       3.752   1.541 -25.045  0.00  0.00    +0.000 OA
ATOM     40  C   UNL     1       3.316   2.423 -24.328  0.00  0.00    +0.000 C 
ATOM     41  C   UNL     1       2.786   3.613 -25.036  0.00  0.00    +0.000 C 
ENDBRANCH  38  40
ENDBRANCH  20  38
BRANCH   6  42
ATOM     42  C   UNL     1      -4.634  -2.125 -19.101  0.00  0.00    +0.000 C 
BRANCH  42  44
ATOM     43  O   UNL     1      -5.452  -3.097 -21.287  0.00  0.00    +0.000 OA
ATOM     44  C   UNL     1      -5.698  -2.261 -20.130  0.00  0.00    +0.000 C 
ATOM     45  C   UNL     1      -6.187  -3.630 -20.263  0.00  0.00    +0.000 C 
ATOM     46  C   UNL     1      -6.474  -0.981 -20.585  0.00  0.00    +0.000 C 
BRANCH  45  47
ATOM     47  C   UNL     1      -7.546  -3.981 -20.549  0.00  0.00    +0.000 C 
ATOM     48  C   UNL     1      -7.927  -4.490 -21.916  0.00  0.00    +0.000 C 
BRANCH  47  49
ATOM     49  C   UNL     1      -8.441  -4.291 -19.494  0.00  0.00    +0.000 C 
ATOM     50  C   UNL     1      -9.249  -4.544 -18.646  0.00  0.00    +0.000 C 
ATOM     51  C   UNL     1     -10.369  -4.829 -17.642  0.00  0.00    +0.000 C 
ENDBRANCH  47  49
ENDBRANCH  45  47
ENDBRANCH  42  44
BRANCH  42  52
ATOM     52  O   UNL     1      -4.843  -2.433 -17.763  0.00  0.00    +0.000 OA
ATOM     53  H   UNL     1      -4.996  -3.390 -17.625  0.00  0.00    +0.000 HD
ENDBRANCH  42  52
ENDBRANCH   6  42
TORSDOF 12
ENDMDL
MODEL 2
REMARK VINA RESULT:      -6.7      1.541      2.325
REMARK  Name = 101808842_CandidaspongiolideB.pdbqt.pdb
REMARK  12 active torsions:
REMARK  status: ('A' for Active; 'I' for Inactive)
REMARK    1  A    between atoms: C_6  and  C_42
REMARK    2  A    between atoms: C_7  and  O_28
REMARK    3  A    between atoms: C_10  and  O_30
REMARK    4  A    between atoms: C_13  and  O_32
REMARK    5  A    between atoms: C_19  and  O_34
REMARK    6  A    between atoms: C_20  and  O_38
REMARK    7  A    between atoms: C_21  and  O_36
REMARK    8  A    between atoms: O_38  and  C_40
REMARK    9  A    between atoms: C_42  and  C_44
REMARK   10  A    between atoms: C_42  and  O_52
REMARK   11  A    between atoms: C_45  and  C_47
REMARK   12  A    between atoms: C_47  and  C_49
REMARK                            x       y       z     vdW  Elec       q    Type
REMARK                         _______ _______ _______ _____ _____    ______ ____
ROOT
ATOM      1  O   UNL     1      -3.224   2.873 -20.891  0.00  0.00    +0.000 OA
ATOM      2  O   UNL     1      -1.708  -3.490 -18.787  0.00  0.00    +0.000 OA
ATOM      3  O   UNL     1      -4.245  -0.796 -20.866  0.00  0.00    +0.000 OA
ATOM      4  O   UNL     1      -1.105  -2.584 -20.821  0.00  0.00    +0.000 OA
ATOM      5  O   UNL     1       1.187  -0.711 -20.755  0.00  0.00    +0.000 OA
ATOM      6  C   UNL     1      -3.862  -1.770 -18.772  0.00  0.00    +0.000 C 
ATOM      7  C   UNL     1      -3.197   0.691 -19.207  0.00  0.00    +0.000 C 
ATOM      8  C   UNL     1      -3.803  -0.630 -19.729  0.00  0.00    +0.000 C 
ATOM      9  C   UNL     1      -2.784  -2.700 -18.765  0.00  0.00    +0.000 C 
ATOM     10  C   UNL     1      -1.669   0.706 -19.410  0.00  0.00    +0.000 C 
ATOM     11  C   UNL     1      -1.171   1.782 -20.204  0.00  0.00    +0.000 C 
ATOM     12  C   UNL     1      -3.566   1.856 -20.073  0.00  0.00    +0.000 C 
ATOM     13  C   UNL     1      -1.742   2.925 -20.982  0.00  0.00    +0.000 C 
ATOM     14  C   UNL     1      -1.322   2.856 -22.457  0.00  0.00    +0.000 C 
ATOM     15  C   UNL     1      -0.738   1.674 -23.003  0.00  0.00    +0.000 C 
ATOM     16  C   UNL     1      -1.357   4.008 -23.457  0.00  0.00    +0.000 C 
ATOM     17  C   UNL     1      -0.872  -3.274 -19.839  0.00  0.00    +0.000 C 
ATOM     18  C   UNL     1      -0.189   0.576 -23.423  0.00  0.00    +0.000 C 
ATOM     19  C   UNL     1       0.436  -3.928 -19.604  0.00  0.00    +0.000 C 
ATOM     20  C   UNL     1       1.246   0.414 -23.466  0.00  0.00    +0.000 C 
ATOM     21  C   UNL     1       1.620  -3.532 -20.341  0.00  0.00    +0.000 C 
ATOM     22  C   UNL     1       2.000  -0.745 -22.993  0.00  0.00    +0.000 C 
ATOM     23  C   UNL     1       1.662  -2.888 -21.646  0.00  0.00    +0.000 C 
ATOM     24  C   UNL     1       1.573  -1.395 -21.709  0.00  0.00    +0.000 C 
ATOM     25  C   UNL     1      -1.111  -0.583 -23.672  0.00  0.00    +0.000 C 
ATOM     26  C   UNL     1       3.426  -0.972 -23.490  0.00  0.00    +0.000 C 
ATOM     27  C   UNL     1       1.540  -3.756 -22.893  0.00  0.00    +0.000 C 
ENDROOT
BRANCH   7  28
ATOM     28  O   UNL     1      -3.483   1.017 -17.862  0.00  0.00    +0.000 OA
ATOM     29  H   UNL     1      -3.778   0.192 -17.435  0.00  0.00    +0.000 HD
ENDBRANCH   7  28
BRANCH  10  30
ATOM     30  O   UNL     1      -0.839  -0.234 -18.856  0.00  0.00    +0.000 OA
ATOM     31  H   UNL     1       0.022   0.160 -18.600  0.00  0.00    +0.000 HD
ENDBRANCH  10  30
BRANCH  13  32
ATOM     32  O   UNL     1      -1.292   4.133 -20.375  0.00  0.00    +0.000 OA
ATOM     33  H   UNL     1      -2.072   4.517 -19.942  0.00  0.00    +0.000 HD
ENDBRANCH  13  32
BRANCH  19  34
ATOM     34  O   UNL     1       0.628  -4.838 -18.580  0.00  0.00    +0.000 OA
ATOM     35  H   UNL     1       0.926  -4.421 -17.746  0.00  0.00    +0.000 HD
ENDBRANCH  19  34
BRANCH  21  36
ATOM     36  O   UNL     1       2.792  -4.145 -19.927  0.00  0.00    +0.000 OA
ATOM     37  C   UNL     1       3.761  -3.189 -19.577  0.00  0.00    +0.000 C 
ENDBRANCH  21  36
BRANCH  20  38
ATOM     38  O   UNL     1       1.924   1.341 -24.293  0.00  0.00    +0.000 OA
BRANCH  38  40
ATOM     39  O   UNL     1       2.691   2.426 -22.379  0.00  0.00    +0.000 OA
ATOM     40  C   UNL     1       2.404   2.379 -23.561  0.00  0.00    +0.000 C 
ATOM     41  C   UNL     1       2.530   3.662 -24.296  0.00  0.00    +0.000 C 
ENDBRANCH  38  40
ENDBRANCH  20  38
BRANCH   6  42
ATOM     42  C   UNL     1      -5.096  -2.007 -18.056  0.00  0.00    +0.000 C 
BRANCH  42  44
ATOM     43  O   UNL     1      -7.597  -2.374 -18.131  0.00  0.00    +0.000 OA
ATOM     44  C   UNL     1      -6.291  -2.597 -18.716  0.00  0.00    +0.000 C 
ATOM     45  C   UNL     1      -7.233  -1.590 -19.192  0.00  0.00    +0.000 C 
ATOM     46  C   UNL     1      -6.213  -4.071 -19.235  0.00  0.00    +0.000 C 
BRANCH  45  47
ATOM     47  C   UNL     1      -8.010  -1.708 -20.388  0.00  0.00    +0.000 C 
ATOM     48  C   UNL     1      -9.400  -2.289 -20.336  0.00  0.00    +0.000 C 
BRANCH  47  49
ATOM     49  C   UNL     1      -7.710  -0.905 -21.518  0.00  0.00    +0.000 C 
ATOM     50  C   UNL     1      -7.391  -0.241 -22.463  0.00  0.00    +0.000 C 
ATOM     51  C   UNL     1      -6.866   0.593 -23.636  0.00  0.00    +0.000 C 
ENDBRANCH  47  49
ENDBRANCH  45  47
ENDBRANCH  42  44
BRANCH  42  52
ATOM     52  O   UNL     1      -5.074  -1.675 -16.708  0.00  0.00    +0.000 OA
ATOM     53  H   UNL     1      -5.093  -2.466 -16.133  0.00  0.00    +0.000 HD
ENDBRANCH  42  52
ENDBRANCH   6  42
TORSDOF 12
ENDMDL
MODEL 3
REMARK VINA RESULT:      -6.6      1.815      2.392
REMARK  Name = 101808842_CandidaspongiolideB.pdbqt.pdb
REMARK  12 active torsions:
REMARK  status: ('A' for Active; 'I' for Inactive)
REMARK    1  A    between atoms: C_6  and  C_42
REMARK    2  A    between atoms: C_7  and  O_28
REMARK    3  A    between atoms: C_10  and  O_30
REMARK    4  A    between atoms: C_13  and  O_32
REMARK    5  A    between atoms: C_19  and  O_34
REMARK    6  A    between atoms: C_20  and  O_38
REMARK    7  A    between atoms: C_21  and  O_36
REMARK    8  A    between atoms: O_38  and  C_40
REMARK    9  A    between atoms: C_42  and  C_44
REMARK   10  A    between atoms: C_42  and  O_52
REMARK   11  A    between atoms: C_45  and  C_47
REMARK   12  A    between atoms: C_47  and  C_49
REMARK                            x       y       z     vdW  Elec       q    Type
REMARK                         _______ _______ _______ _____ _____    ______ ____
ROOT
ATOM      1  O   UNL     1      -3.548   3.821 -22.693  0.00  0.00    +0.000 OA
ATOM      2  O   UNL     1      -3.040  -2.596 -20.291  0.00  0.00    +0.000 OA
ATOM      3  O   UNL     1      -4.175   0.122 -23.347  0.00  0.00    +0.000 OA
ATOM      4  O   UNL     1      -1.474  -1.548 -21.623  0.00  0.00    +0.000 OA
ATOM      5  O   UNL     1       0.275   0.401 -20.242  0.00  0.00    +0.000 OA
ATOM      6  C   UNL     1      -4.950  -0.961 -21.422  0.00  0.00    +0.000 C 
ATOM      7  C   UNL     1      -4.314   1.544 -21.342  0.00  0.00    +0.000 C 
ATOM      8  C   UNL     1      -4.446   0.236 -22.151  0.00  0.00    +0.000 C 
ATOM      9  C   UNL     1      -3.997  -1.850 -20.846  0.00  0.00    +0.000 C 
ATOM     10  C   UNL     1      -2.932   1.628 -20.664  0.00  0.00    +0.000 C 
ATOM     11  C   UNL     1      -2.149   2.768 -21.016  0.00  0.00    +0.000 C 
ATOM     12  C   UNL     1      -4.218   2.745 -22.233  0.00  0.00    +0.000 C 
ATOM     13  C   UNL     1      -2.268   3.933 -21.946  0.00  0.00    +0.000 C 
ATOM     14  C   UNL     1      -1.100   3.969 -22.943  0.00  0.00    +0.000 C 
ATOM     15  C   UNL     1      -0.238   2.844 -23.108  0.00  0.00    +0.000 C 
ATOM     16  C   UNL     1      -0.652   5.176 -23.760  0.00  0.00    +0.000 C 
ATOM     17  C   UNL     1      -1.778  -2.287 -20.697  0.00  0.00    +0.000 C 
ATOM     18  C   UNL     1       0.520   1.795 -23.186  0.00  0.00    +0.000 C 
ATOM     19  C   UNL     1      -0.778  -2.905 -19.795  0.00  0.00    +0.000 C 
ATOM     20  C   UNL     1       1.747   1.688 -22.432  0.00  0.00    +0.000 C 
ATOM     21  C   UNL     1       0.588  -2.422 -19.741  0.00  0.00    +0.000 C 
ATOM     22  C   UNL     1       2.188   0.531 -21.654  0.00  0.00    +0.000 C 
ATOM     23  C   UNL     1       1.301  -1.699 -20.784  0.00  0.00    +0.000 C 
ATOM     24  C   UNL     1       1.167  -0.209 -20.842  0.00  0.00    +0.000 C 
ATOM     25  C   UNL     1      -0.035   0.619 -23.938  0.00  0.00    +0.000 C 
ATOM     26  C   UNL     1       3.663   0.388 -21.285  0.00  0.00    +0.000 C 
ATOM     27  C   UNL     1       1.943  -2.495 -21.916  0.00  0.00    +0.000 C 
ENDROOT
BRANCH   7  28
ATOM     28  O   UNL     1      -5.315   1.778 -20.371  0.00  0.00    +0.000 OA
ATOM     29  H   UNL     1      -5.085   2.620 -19.936  0.00  0.00    +0.000 HD
ENDBRANCH   7  28
BRANCH  10  30
ATOM     30  O   UNL     1      -2.487   0.688 -19.771  0.00  0.00    +0.000 OA
ATOM     31  H   UNL     1      -3.023   0.696 -18.950  0.00  0.00    +0.000 HD
ENDBRANCH  10  30
BRANCH  13  32
ATOM     32  O   UNL     1      -2.306   5.119 -21.157  0.00  0.00    +0.000 OA
ATOM     33  H   UNL     1      -2.858   5.746 -21.650  0.00  0.00    +0.000 HD
ENDBRANCH  13  32
BRANCH  19  34
ATOM     34  O   UNL     1      -1.124  -3.867 -18.865  0.00  0.00    +0.000 OA
ATOM     35  H   UNL     1      -1.108  -4.777 -19.227  0.00  0.00    +0.000 HD
ENDBRANCH  19  34
BRANCH  21  36
ATOM     36  O   UNL     1       1.373  -3.014 -18.766  0.00  0.00    +0.000 OA
ATOM     37  C   UNL     1       2.395  -2.144 -18.346  0.00  0.00    +0.000 C 
ENDBRANCH  21  36
BRANCH  20  38
ATOM     38  O   UNL     1       2.709   2.688 -22.716  0.00  0.00    +0.000 OA
BRANCH  38  40
ATOM     39  O   UNL     1       3.573   1.674 -24.628  0.00  0.00    +0.000 OA
ATOM     40  C   UNL     1       3.109   2.616 -24.012  0.00  0.00    +0.000 C 
ATOM     41  C   UNL     1       3.035   3.892 -24.765  0.00  0.00    +0.000 C 
ENDBRANCH  38  40
ENDBRANCH  20  38
BRANCH   6  42
ATOM     42  C   UNL     1      -6.355  -1.286 -21.517  0.00  0.00    +0.000 C 
BRANCH  42  44
ATOM     43  O   UNL     1      -6.902  -1.899 -19.126  0.00  0.00    +0.000 OA
ATOM     44  C   UNL     1      -7.025  -2.184 -20.540  0.00  0.00    +0.000 C 
ATOM     45  C   UNL     1      -8.052  -1.507 -19.755  0.00  0.00    +0.000 C 
ATOM     46  C   UNL     1      -6.934  -3.732 -20.755  0.00  0.00    +0.000 C 
BRANCH  45  47
ATOM     47  C   UNL     1      -9.274  -2.114 -19.322  0.00  0.00    +0.000 C 
ATOM     48  C   UNL     1      -9.646  -2.112 -17.861  0.00  0.00    +0.000 C 
BRANCH  47  49
ATOM     49  C   UNL     1     -10.338  -2.312 -20.238  0.00  0.00    +0.000 C 
ATOM     50  C   UNL     1     -11.196  -2.461 -21.061  0.00  0.00    +0.000 C 
ATOM     51  C   UNL     1     -12.216  -2.595 -22.195  0.00  0.00    +0.000 C 
ENDBRANCH  47  49
ENDBRANCH  45  47
ENDBRANCH  42  44
BRANCH  42  52
ATOM     52  O   UNL     1      -7.038  -0.676 -22.562  0.00  0.00    +0.000 OA
ATOM     53  H   UNL     1      -7.719  -1.262 -22.948  0.00  0.00    +0.000 HD
ENDBRANCH  42  52
ENDBRANCH   6  42
TORSDOF 12
ENDMDL
MODEL 4
REMARK VINA RESULT:      -6.4     16.853     19.510
REMARK  Name = 101808842_CandidaspongiolideB.pdbqt.pdb
REMARK  12 active torsions:
REMARK  status: ('A' for Active; 'I' for Inactive)
REMARK    1  A    between atoms: C_6  and  C_42
REMARK    2  A    between atoms: C_7  and  O_28
REMARK    3  A    between atoms: C_10  and  O_30
REMARK    4  A    between atoms: C_13  and  O_32
REMARK    5  A    between atoms: C_19  and  O_34
REMARK    6  A    between atoms: C_20  and  O_38
REMARK    7  A    between atoms: C_21  and  O_36
REMARK    8  A    between atoms: O_38  and  C_40
REMARK    9  A    between atoms: C_42  and  C_44
REMARK   10  A    between atoms: C_42  and  O_52
REMARK   11  A    between atoms: C_45  and  C_47
REMARK   12  A    between atoms: C_47  and  C_49
REMARK                            x       y       z     vdW  Elec       q    Type
REMARK                         _______ _______ _______ _____ _____    ______ ____
ROOT
ATOM      1  O   UNL     1     -16.370 -10.265 -15.072  0.00  0.00    +0.000 OA
ATOM      2  O   UNL     1     -10.425 -13.655 -15.684  0.00  0.00    +0.000 OA
ATOM      3  O   UNL     1     -13.987 -12.808 -13.536  0.00  0.00    +0.000 OA
ATOM      4  O   UNL     1     -12.478 -14.436 -16.388  0.00  0.00    +0.000 OA
ATOM      5  O   UNL     1     -13.480 -13.286 -18.925  0.00  0.00    +0.000 OA
ATOM      6  C   UNL     1     -11.756 -12.148 -13.799  0.00  0.00    +0.000 C 
ATOM      7  C   UNL     1     -13.665 -10.722 -14.805  0.00  0.00    +0.000 C 
ATOM      8  C   UNL     1     -13.220 -11.968 -14.010  0.00  0.00    +0.000 C 
ATOM      9  C   UNL     1     -11.033 -12.943 -14.732  0.00  0.00    +0.000 C 
ATOM     10  C   UNL     1     -13.689 -11.021 -16.317  0.00  0.00    +0.000 C 
ATOM     11  C   UNL     1     -14.951 -10.829 -16.956  0.00  0.00    +0.000 C 
ATOM     12  C   UNL     1     -15.116 -10.416 -14.597  0.00  0.00    +0.000 C 
ATOM     13  C   UNL     1     -16.340 -10.456 -16.546  0.00  0.00    +0.000 C 
ATOM     14  C   UNL     1     -17.345 -11.550 -16.935  0.00  0.00    +0.000 C 
ATOM     15  C   UNL     1     -16.905 -12.846 -17.337  0.00  0.00    +0.000 C 
ATOM     16  C   UNL     1     -18.857 -11.381 -17.054  0.00  0.00    +0.000 C 
ATOM     17  C   UNL     1     -11.271 -14.303 -16.530  0.00  0.00    +0.000 C 
ATOM     18  C   UNL     1     -16.432 -13.992 -17.718  0.00  0.00    +0.000 C 
ATOM     19  C   UNL     1     -10.544 -14.769 -17.734  0.00  0.00    +0.000 C 
ATOM     20  C   UNL     1     -16.227 -14.302 -19.114  0.00  0.00    +0.000 C 
ATOM     21  C   UNL     1     -11.248 -15.112 -18.954  0.00  0.00    +0.000 C 
ATOM     22  C   UNL     1     -15.036 -14.913 -19.700  0.00  0.00    +0.000 C 
ATOM     23  C   UNL     1     -12.638 -15.528 -19.073  0.00  0.00    +0.000 C 
ATOM     24  C   UNL     1     -13.692 -14.472 -19.199  0.00  0.00    +0.000 C 
ATOM     25  C   UNL     1     -15.921 -14.901 -16.637  0.00  0.00    +0.000 C 
ATOM     26  C   UNL     1     -15.125 -15.576 -21.073  0.00  0.00    +0.000 C 
ATOM     27  C   UNL     1     -12.988 -16.989 -18.814  0.00  0.00    +0.000 C 
ENDROOT
BRANCH   7  28
ATOM     28  O   UNL     1     -12.916  -9.544 -14.584  0.00  0.00    +0.000 OA
ATOM     29  H   UNL     1     -12.356  -9.422 -15.373  0.00  0.00    +0.000 HD
ENDBRANCH   7  28
BRANCH  10  30
ATOM     30  O   UNL     1     -12.578 -11.426 -17.010  0.00  0.00    +0.000 OA
ATOM     31  H   UNL     1     -11.763 -11.026 -16.641  0.00  0.00    +0.000 HD
ENDBRANCH  10  30
BRANCH  13  32
ATOM     32  O   UNL     1     -16.662  -9.217 -17.171  0.00  0.00    +0.000 OA
ATOM     33  H   UNL     1     -16.092  -9.162 -17.955  0.00  0.00    +0.000 HD
ENDBRANCH  13  32
BRANCH  19  34
ATOM     34  O   UNL     1      -9.163 -14.763 -17.805  0.00  0.00    +0.000 OA
ATOM     35  H   UNL     1      -8.824 -14.860 -18.719  0.00  0.00    +0.000 HD
ENDBRANCH  19  34
BRANCH  21  36
ATOM     36  O   UNL     1     -10.429 -15.412 -20.030  0.00  0.00    +0.000 OA
ATOM     37  C   UNL     1     -10.536 -14.431 -21.032  0.00  0.00    +0.000 C 
ENDBRANCH  21  36
BRANCH  20  38
ATOM     38  O   UNL     1     -17.398 -14.261 -19.909  0.00  0.00    +0.000 OA
BRANCH  38  40
ATOM     39  O   UNL     1     -18.163 -16.393 -19.362  0.00  0.00    +0.000 OA
ATOM     40  C   UNL     1     -18.296 -15.190 -19.492  0.00  0.00    +0.000 C 
ATOM     41  C   UNL     1     -19.659 -14.671 -19.223  0.00  0.00    +0.000 C 
ENDBRANCH  38  40
ENDBRANCH  20  38
BRANCH   6  42
ATOM     42  C   UNL     1     -11.179 -11.697 -12.552  0.00  0.00    +0.000 C 
BRANCH  42  44
ATOM     43  O   UNL     1     -11.332 -11.339 -10.054  0.00  0.00    +0.000 OA
ATOM     44  C   UNL     1     -11.768 -12.055 -11.235  0.00  0.00    +0.000 C 
ATOM     45  C   UNL     1     -12.514 -10.958 -10.628  0.00  0.00    +0.000 C 
ATOM     46  C   UNL     1     -11.943 -13.568 -10.874  0.00  0.00    +0.000 C 
BRANCH  45  47
ATOM     47  C   UNL     1     -13.702 -11.120  -9.846  0.00  0.00    +0.000 C 
ATOM     48  C   UNL     1     -13.704 -10.758  -8.383  0.00  0.00    +0.000 C 
BRANCH  47  49
ATOM     49  C   UNL     1     -14.971 -11.176 -10.477  0.00  0.00    +0.000 C 
ATOM     50  C   UNL     1     -16.040 -11.156 -11.019  0.00  0.00    +0.000 C 
ATOM     51  C   UNL     1     -17.401 -11.008 -11.705  0.00  0.00    +0.000 C 
ENDBRANCH  47  49
ENDBRANCH  45  47
ENDBRANCH  42  44
BRANCH  42  52
ATOM     52  O   UNL     1     -10.023 -10.936 -12.672  0.00  0.00    +0.000 OA
ATOM     53  H   UNL     1      -9.250 -11.479 -12.927  0.00  0.00    +0.000 HD
ENDBRANCH  42  52
ENDBRANCH   6  42
TORSDOF 12
ENDMDL
MODEL 5
REMARK VINA RESULT:      -6.4      2.413      3.653
REMARK  Name = 101808842_CandidaspongiolideB.pdbqt.pdb
REMARK  12 active torsions:
REMARK  status: ('A' for Active; 'I' for Inactive)
REMARK    1  A    between atoms: C_6  and  C_42
REMARK    2  A    between atoms: C_7  and  O_28
REMARK    3  A    between atoms: C_10  and  O_30
REMARK    4  A    between atoms: C_13  and  O_32
REMARK    5  A    between atoms: C_19  and  O_34
REMARK    6  A    between atoms: C_20  and  O_38
REMARK    7  A    between atoms: C_21  and  O_36
REMARK    8  A    between atoms: O_38  and  C_40
REMARK    9  A    between atoms: C_42  and  C_44
REMARK   10  A    between atoms: C_42  and  O_52
REMARK   11  A    between atoms: C_45  and  C_47
REMARK   12  A    between atoms: C_47  and  C_49
REMARK                            x       y       z     vdW  Elec       q    Type
REMARK                         _______ _______ _______ _____ _____    ______ ____
ROOT
ATOM      1  O   UNL     1      -3.198   1.676 -20.234  0.00  0.00    +0.000 OA
ATOM      2  O   UNL     1      -2.170  -4.522 -23.017  0.00  0.00    +0.000 OA
ATOM      3  O   UNL     1      -3.360  -0.464 -23.381  0.00  0.00    +0.000 OA
ATOM      4  O   UNL     1      -0.632  -2.803 -22.998  0.00  0.00    +0.000 OA
ATOM      5  O   UNL     1       0.780  -2.381 -20.430  0.00  0.00    +0.000 OA
ATOM      6  C   UNL     1      -4.156  -2.613 -22.905  0.00  0.00    +0.000 C 
ATOM      7  C   UNL     1      -3.810  -0.900 -20.999  0.00  0.00    +0.000 C 
ATOM      8  C   UNL     1      -3.733  -1.243 -22.503  0.00  0.00    +0.000 C 
ATOM      9  C   UNL     1      -3.159  -3.625 -23.004  0.00  0.00    +0.000 C 
ATOM     10  C   UNL     1      -2.502  -1.294 -20.284  0.00  0.00    +0.000 C 
ATOM     11  C   UNL     1      -1.824  -0.226 -19.623  0.00  0.00    +0.000 C 
ATOM     12  C   UNL     1      -3.778   0.578 -20.761  0.00  0.00    +0.000 C 
ATOM     13  C   UNL     1      -1.999   1.251 -19.465  0.00  0.00    +0.000 C 
ATOM     14  C   UNL     1      -0.769   2.013 -19.979  0.00  0.00    +0.000 C 
ATOM     15  C   UNL     1       0.222   1.363 -20.774  0.00  0.00    +0.000 C 
ATOM     16  C   UNL     1      -0.396   3.452 -19.639  0.00  0.00    +0.000 C 
ATOM     17  C   UNL     1      -0.923  -3.987 -22.914  0.00  0.00    +0.000 C 
ATOM     18  C   UNL     1       1.095   0.700 -21.467  0.00  0.00    +0.000 C 
ATOM     19  C   UNL     1       0.067  -5.040 -22.589  0.00  0.00    +0.000 C 
ATOM     20  C   UNL     1       2.265   0.116 -20.853  0.00  0.00    +0.000 C 
ATOM     21  C   UNL     1       1.364  -4.709 -22.029  0.00  0.00    +0.000 C 
ATOM     22  C   UNL     1       2.769  -1.239 -21.069  0.00  0.00    +0.000 C 
ATOM     23  C   UNL     1       2.070  -3.443 -22.153  0.00  0.00    +0.000 C 
ATOM     24  C   UNL     1       1.777  -2.361 -21.160  0.00  0.00    +0.000 C 
ATOM     25  C   UNL     1       0.733   0.400 -22.893  0.00  0.00    +0.000 C 
ATOM     26  C   UNL     1       4.219  -1.570 -20.717  0.00  0.00    +0.000 C 
ATOM     27  C   UNL     1       2.881  -3.179 -23.417  0.00  0.00    +0.000 C 
ENDROOT
BRANCH   7  28
ATOM     28  O   UNL     1      -4.901  -1.451 -20.291  0.00  0.00    +0.000 OA
ATOM     29  H   UNL     1      -5.538  -1.758 -20.962  0.00  0.00    +0.000 HD
ENDBRANCH   7  28
BRANCH  10  30
ATOM     30  O   UNL     1      -2.025  -2.579 -20.265  0.00  0.00    +0.000 OA
ATOM     31  H   UNL     1      -1.542  -2.791 -21.092  0.00  0.00    +0.000 HD
ENDBRANCH  10  30
BRANCH  13  32
ATOM     32  O   UNL     1      -2.228   1.518 -18.084  0.00  0.00    +0.000 OA
ATOM     33  H   UNL     1      -1.455   1.164 -17.616  0.00  0.00    +0.000 HD
ENDBRANCH  13  32
BRANCH  19  34
ATOM     34  O   UNL     1      -0.241  -6.386 -22.664  0.00  0.00    +0.000 OA
ATOM     35  H   UNL     1       0.550  -6.961 -22.699  0.00  0.00    +0.000 HD
ENDBRANCH  19  34
BRANCH  21  36
ATOM     36  O   UNL     1       2.132  -5.802 -21.663  0.00  0.00    +0.000 OA
ATOM     37  C   UNL     1       2.260  -5.879 -20.265  0.00  0.00    +0.000 C 
ENDBRANCH  21  36
BRANCH  20  38
ATOM     38  O   UNL     1       3.129   1.041 -20.220  0.00  0.00    +0.000 OA
BRANCH  38  40
ATOM     39  O   UNL     1       2.202   0.349 -18.197  0.00  0.00    +0.000 OA
ATOM     40  C   UNL     1       3.005   0.970 -18.869  0.00  0.00    +0.000 C 
ATOM     41  C   UNL     1       3.941   1.830 -18.105  0.00  0.00    +0.000 C 
ENDBRANCH  38  40
ENDBRANCH  20  38
BRANCH   6  42
ATOM     42  C   UNL     1      -5.506  -2.805 -23.387  0.00  0.00    +0.000 C 
BRANCH  42  44
ATOM     43  O   UNL     1      -6.299  -4.024 -21.318  0.00  0.00    +0.000 OA
ATOM     44  C   UNL     1      -6.451  -3.748 -22.732  0.00  0.00    +0.000 C 
ATOM     45  C   UNL     1      -7.253  -3.116 -21.689  0.00  0.00    +0.000 C 
ATOM     46  C   UNL     1      -6.822  -5.077 -23.471  0.00  0.00    +0.000 C 
BRANCH  45  47
ATOM     47  C   UNL     1      -8.616  -3.447 -21.403  0.00  0.00    +0.000 C 
ATOM     48  C   UNL     1      -8.977  -4.125 -20.106  0.00  0.00    +0.000 C 
BRANCH  47  49
ATOM     49  C   UNL     1      -9.671  -2.774 -22.071  0.00  0.00    +0.000 C 
ATOM     50  C   UNL     1     -10.596  -2.265 -22.637  0.00  0.00    +0.000 C 
ATOM     51  C   UNL     1     -11.823  -1.728 -23.380  0.00  0.00    +0.000 C 
ENDBRANCH  47  49
ENDBRANCH  45  47
ENDBRANCH  42  44
BRANCH  42  52
ATOM     52  O   UNL     1      -5.864  -2.027 -24.480  0.00  0.00    +0.000 OA
ATOM     53  H   UNL     1      -5.094  -1.571 -24.875  0.00  0.00    +0.000 HD
ENDBRANCH  42  52
ENDBRANCH   6  42
TORSDOF 12
ENDMDL
MODEL 6
REMARK VINA RESULT:      -6.3     17.065     21.298
REMARK  Name = 101808842_CandidaspongiolideB.pdbqt.pdb
REMARK  12 active torsions:
REMARK  status: ('A' for Active; 'I' for Inactive)
REMARK    1  A    between atoms: C_6  and  C_42
REMARK    2  A    between atoms: C_7  and  O_28
REMARK    3  A    between atoms: C_10  and  O_30
REMARK    4  A    between atoms: C_13  and  O_32
REMARK    5  A    between atoms: C_19  and  O_34
REMARK    6  A    between atoms: C_20  and  O_38
REMARK    7  A    between atoms: C_21  and  O_36
REMARK    8  A    between atoms: O_38  and  C_40
REMARK    9  A    between atoms: C_42  and  C_44
REMARK   10  A    between atoms: C_42  and  O_52
REMARK   11  A    between atoms: C_45  and  C_47
REMARK   12  A    between atoms: C_47  and  C_49
REMARK                            x       y       z     vdW  Elec       q    Type
REMARK                         _______ _______ _______ _____ _____    ______ ____
ROOT
ATOM      1  O   UNL     1     -16.813   1.599  -8.841  0.00  0.00    +0.000 OA
ATOM      2  O   UNL     1     -16.177   7.111 -12.894  0.00  0.00    +0.000 OA
ATOM      3  O   UNL     1     -14.782   3.331 -11.558  0.00  0.00    +0.000 OA
ATOM      4  O   UNL     1     -17.246   5.151 -13.475  0.00  0.00    +0.000 OA
ATOM      5  O   UNL     1     -19.957   4.791 -12.340  0.00  0.00    +0.000 OA
ATOM      6  C   UNL     1     -14.623   5.632 -11.162  0.00  0.00    +0.000 C 
ATOM      7  C   UNL     1     -16.015   4.131  -9.582  0.00  0.00    +0.000 C 
ATOM      8  C   UNL     1     -15.119   4.267 -10.832  0.00  0.00    +0.000 C 
ATOM      9  C   UNL     1     -15.379   6.421 -12.075  0.00  0.00    +0.000 C 
ATOM     10  C   UNL     1     -17.495   4.359  -9.947  0.00  0.00    +0.000 C 
ATOM     11  C   UNL     1     -18.371   3.273  -9.646  0.00  0.00    +0.000 C 
ATOM     12  C   UNL     1     -16.100   2.713  -9.108  0.00  0.00    +0.000 C 
ATOM     13  C   UNL     1     -18.247   1.885  -9.103  0.00  0.00    +0.000 C 
ATOM     14  C   UNL     1     -18.798   0.850 -10.096  0.00  0.00    +0.000 C 
ATOM     15  C   UNL     1     -19.075   1.203 -11.450  0.00  0.00    +0.000 C 
ATOM     16  C   UNL     1     -19.211  -0.581  -9.766  0.00  0.00    +0.000 C 
ATOM     17  C   UNL     1     -17.155   6.370 -13.483  0.00  0.00    +0.000 C 
ATOM     18  C   UNL     1     -19.329   1.602 -12.658  0.00  0.00    +0.000 C 
ATOM     19  C   UNL     1     -18.184   7.252 -14.082  0.00  0.00    +0.000 C 
ATOM     20  C   UNL     1     -20.651   2.030 -13.053  0.00  0.00    +0.000 C 
ATOM     21  C   UNL     1     -19.508   6.757 -14.402  0.00  0.00    +0.000 C 
ATOM     22  C   UNL     1     -20.979   3.231 -13.819  0.00  0.00    +0.000 C 
ATOM     23  C   UNL     1     -19.884   5.376 -14.666  0.00  0.00    +0.000 C 
ATOM     24  C   UNL     1     -20.238   4.497 -13.507  0.00  0.00    +0.000 C 
ATOM     25  C   UNL     1     -18.147   1.787 -13.566  0.00  0.00    +0.000 C 
ATOM     26  C   UNL     1     -22.327   3.326 -14.531  0.00  0.00    +0.000 C 
ATOM     27  C   UNL     1     -19.662   4.814 -16.066  0.00  0.00    +0.000 C 
ENDROOT
BRANCH   7  28
ATOM     28  O   UNL     1     -15.682   4.957  -8.485  0.00  0.00    +0.000 OA
ATOM     29  H   UNL     1     -15.378   5.804  -8.861  0.00  0.00    +0.000 HD
ENDBRANCH   7  28
BRANCH  10  30
ATOM     30  O   UNL     1     -17.950   5.526 -10.505  0.00  0.00    +0.000 OA
ATOM     31  H   UNL     1     -17.397   6.288 -10.233  0.00  0.00    +0.000 HD
ENDBRANCH  10  30
BRANCH  13  32
ATOM     32  O   UNL     1     -18.953   1.836  -7.866  0.00  0.00    +0.000 OA
ATOM     33  H   UNL     1     -19.527   2.619  -7.860  0.00  0.00    +0.000 HD
ENDBRANCH  13  32
BRANCH  19  34
ATOM     34  O   UNL     1     -17.985   8.612 -14.232  0.00  0.00    +0.000 OA
ATOM     35  H   UNL     1     -18.812   9.104 -14.415  0.00  0.00    +0.000 HD
ENDBRANCH  19  34
BRANCH  21  36
ATOM     36  O   UNL     1     -20.397   7.725 -14.840  0.00  0.00    +0.000 OA
ATOM     37  C   UNL     1     -21.426   7.923 -13.902  0.00  0.00    +0.000 C 
ENDBRANCH  21  36
BRANCH  20  38
ATOM     38  O   UNL     1     -21.658   1.045 -12.920  0.00  0.00    +0.000 OA
BRANCH  38  40
ATOM     39  O   UNL     1     -21.276  -0.039 -14.948  0.00  0.00    +0.000 OA
ATOM     40  C   UNL     1     -21.412  -0.011 -13.738  0.00  0.00    +0.000 C 
ATOM     41  C   UNL     1     -21.371  -1.332 -13.065  0.00  0.00    +0.000 C 
ENDBRANCH  38  40
ENDBRANCH  20  38
BRANCH   6  42
ATOM     42  C   UNL     1     -13.299   6.011 -10.721  0.00  0.00    +0.000 C 
BRANCH  42  44
ATOM     43  O   UNL     1     -13.735   6.834  -8.370  0.00  0.00    +0.000 OA
ATOM     44  C   UNL     1     -13.083   7.020  -9.650  0.00  0.00    +0.000 C 
ATOM     45  C   UNL     1     -12.421   6.466  -8.473  0.00  0.00    +0.000 C 
ATOM     46  C   UNL     1     -13.127   8.538 -10.026  0.00  0.00    +0.000 C 
BRANCH  45  47
ATOM     47  C   UNL     1     -11.478   7.177  -7.664  0.00  0.00    +0.000 C 
ATOM     48  C   UNL     1     -10.050   7.333  -8.123  0.00  0.00    +0.000 C 
BRANCH  47  49
ATOM     49  C   UNL     1     -11.926   8.105  -6.690  0.00  0.00    +0.000 C 
ATOM     50  C   UNL     1     -12.285   8.846  -5.820  0.00  0.00    +0.000 C 
ATOM     51  C   UNL     1     -12.722   9.701  -4.627  0.00  0.00    +0.000 C 
ENDBRANCH  47  49
ENDBRANCH  45  47
ENDBRANCH  42  44
BRANCH  42  52
ATOM     52  O   UNL     1     -12.251   5.346 -11.344  0.00  0.00    +0.000 OA
ATOM     53  H   UNL     1     -11.630   5.964 -11.781  0.00  0.00    +0.000 HD
ENDBRANCH  42  52
ENDBRANCH   6  42
TORSDOF 12
ENDMDL
MODEL 7
REMARK VINA RESULT:      -6.3     21.509     26.007
REMARK  Name = 101808842_CandidaspongiolideB.pdbqt.pdb
REMARK  12 active torsions:
REMARK  status: ('A' for Active; 'I' for Inactive)
REMARK    1  A    between atoms: C_6  and  C_42
REMARK    2  A    between atoms: C_7  and  O_28
REMARK    3  A    between atoms: C_10  and  O_30
REMARK    4  A    between atoms: C_13  and  O_32
REMARK    5  A    between atoms: C_19  and  O_34
REMARK    6  A    between atoms: C_20  and  O_38
REMARK    7  A    between atoms: C_21  and  O_36
REMARK    8  A    between atoms: O_38  and  C_40
REMARK    9  A    between atoms: C_42  and  C_44
REMARK   10  A    between atoms: C_42  and  O_52
REMARK   11  A    between atoms: C_45  and  C_47
REMARK   12  A    between atoms: C_47  and  C_49
REMARK                            x       y       z     vdW  Elec       q    Type
REMARK                         _______ _______ _______ _____ _____    ______ ____
ROOT
ATOM      1  O   UNL     1      -6.654   1.814   6.173  0.00  0.00    +0.000 OA
ATOM      2  O   UNL     1      -7.011  -1.494   0.162  0.00  0.00    +0.000 OA
ATOM      3  O   UNL     1      -5.853  -1.370   4.244  0.00  0.00    +0.000 OA
ATOM      4  O   UNL     1      -8.557  -1.663   1.865  0.00  0.00    +0.000 OA
ATOM      5  O   UNL     1     -10.441   0.608   2.109  0.00  0.00    +0.000 OA
ATOM      6  C   UNL     1      -5.120  -0.886   2.073  0.00  0.00    +0.000 C 
ATOM      7  C   UNL     1      -5.857   1.022   3.656  0.00  0.00    +0.000 C 
ATOM      8  C   UNL     1      -5.639  -0.487   3.412  0.00  0.00    +0.000 C 
ATOM      9  C   UNL     1      -6.060  -1.237   1.063  0.00  0.00    +0.000 C 
ATOM     10  C   UNL     1      -7.269   1.447   3.208  0.00  0.00    +0.000 C 
ATOM     11  C   UNL     1      -8.081   2.032   4.225  0.00  0.00    +0.000 C 
ATOM     12  C   UNL     1      -5.962   1.341   5.116  0.00  0.00    +0.000 C 
ATOM     13  C   UNL     1      -7.968   2.312   5.690  0.00  0.00    +0.000 C 
ATOM     14  C   UNL     1      -9.092   1.620   6.475  0.00  0.00    +0.000 C 
ATOM     15  C   UNL     1      -9.901   0.612   5.871  0.00  0.00    +0.000 C 
ATOM     16  C   UNL     1      -9.552   1.972   7.887  0.00  0.00    +0.000 C 
ATOM     17  C   UNL     1      -8.265  -1.599   0.680  0.00  0.00    +0.000 C 
ATOM     18  C   UNL     1     -10.613  -0.275   5.249  0.00  0.00    +0.000 C 
ATOM     19  C   UNL     1      -9.278  -1.536  -0.399  0.00  0.00    +0.000 C 
ATOM     20  C   UNL     1     -11.867   0.065   4.617  0.00  0.00    +0.000 C 
ATOM     21  C   UNL     1     -10.664  -1.216  -0.115  0.00  0.00    +0.000 C 
ATOM     22  C   UNL     1     -12.294  -0.328   3.275  0.00  0.00    +0.000 C 
ATOM     23  C   UNL     1     -11.358  -1.393   1.152  0.00  0.00    +0.000 C 
ATOM     24  C   UNL     1     -11.281  -0.297   2.169  0.00  0.00    +0.000 C 
ATOM     25  C   UNL     1      -9.979  -1.622   5.044  0.00  0.00    +0.000 C 
ATOM     26  C   UNL     1     -13.777  -0.281   2.912  0.00  0.00    +0.000 C 
ATOM     27  C   UNL     1     -11.919  -2.770   1.491  0.00  0.00    +0.000 C 
ENDROOT
BRANCH   7  28
ATOM     28  O   UNL     1      -4.910   1.890   3.068  0.00  0.00    +0.000 OA
ATOM     29  H   UNL     1      -5.369   2.737   2.918  0.00  0.00    +0.000 HD
ENDBRANCH   7  28
BRANCH  10  30
ATOM     30  O   UNL     1      -7.715   1.294   1.921  0.00  0.00    +0.000 OA
ATOM     31  H   UNL     1      -8.657   1.556   1.838  0.00  0.00    +0.000 HD
ENDBRANCH  10  30
BRANCH  13  32
ATOM     32  O   UNL     1      -8.012   3.725   5.868  0.00  0.00    +0.000 OA
ATOM     33  H   UNL     1      -8.924   3.929   6.131  0.00  0.00    +0.000 HD
ENDBRANCH  13  32
BRANCH  19  34
ATOM     34  O   UNL     1      -8.935  -1.635  -1.735  0.00  0.00    +0.000 OA
ATOM     35  H   UNL     1      -7.975  -1.521  -1.895  0.00  0.00    +0.000 HD
ENDBRANCH  19  34
BRANCH  21  36
ATOM     36  O   UNL     1     -11.466  -1.072  -1.235  0.00  0.00    +0.000 OA
ATOM     37  C   UNL     1     -12.131   0.166  -1.220  0.00  0.00    +0.000 C 
ENDBRANCH  21  36
BRANCH  20  38
ATOM     38  O   UNL     1     -12.853   0.578   5.492  0.00  0.00    +0.000 OA
BRANCH  38  40
ATOM     39  O   UNL     1     -13.652  -1.473   6.260  0.00  0.00    +0.000 OA
ATOM     40  C   UNL     1     -13.206  -0.351   6.419  0.00  0.00    +0.000 C 
ATOM     41  C   UNL     1     -13.095   0.093   7.829  0.00  0.00    +0.000 C 
ENDBRANCH  38  40
ENDBRANCH  20  38
BRANCH   6  42
ATOM     42  C   UNL     1      -3.700  -1.111   1.923  0.00  0.00    +0.000 C 
BRANCH  42  44
ATOM     43  O   UNL     1      -3.302   0.848   0.375  0.00  0.00    +0.000 OA
ATOM     44  C   UNL     1      -2.908  -0.465   0.843  0.00  0.00    +0.000 C 
ATOM     45  C   UNL     1      -2.270   0.776   1.271  0.00  0.00    +0.000 C 
ATOM     46  C   UNL     1      -2.464  -1.328  -0.384  0.00  0.00    +0.000 C 
BRANCH  45  47
ATOM     47  C   UNL     1      -0.984   1.221   0.824  0.00  0.00    +0.000 C 
ATOM     48  C   UNL     1      -0.838   1.896  -0.516  0.00  0.00    +0.000 C 
BRANCH  47  49
ATOM     49  C   UNL     1       0.056   1.457   1.759  0.00  0.00    +0.000 C 
ATOM     50  C   UNL     1       0.936   1.721   2.528  0.00  0.00    +0.000 C 
ATOM     51  C   UNL     1       2.070   2.168   3.455  0.00  0.00    +0.000 C 
ENDBRANCH  47  49
ENDBRANCH  45  47
ENDBRANCH  42  44
BRANCH  42  52
ATOM     52  O   UNL     1      -3.126  -1.945   2.874  0.00  0.00    +0.000 OA
ATOM     53  H   UNL     1      -3.557  -1.858   3.748  0.00  0.00    +0.000 HD
ENDBRANCH  42  52
ENDBRANCH   6  42
TORSDOF 12
ENDMDL
MODEL 8
REMARK VINA RESULT:      -6.2     12.305     18.208
REMARK  Name = 101808842_CandidaspongiolideB.pdbqt.pdb
REMARK  12 active torsions:
REMARK  status: ('A' for Active; 'I' for Inactive)
REMARK    1  A    between atoms: C_6  and  C_42
REMARK    2  A    between atoms: C_7  and  O_28
REMARK    3  A    between atoms: C_10  and  O_30
REMARK    4  A    between atoms: C_13  and  O_32
REMARK    5  A    between atoms: C_19  and  O_34
REMARK    6  A    between atoms: C_20  and  O_38
REMARK    7  A    between atoms: C_21  and  O_36
REMARK    8  A    between atoms: O_38  and  C_40
REMARK    9  A    between atoms: C_42  and  C_44
REMARK   10  A    between atoms: C_42  and  O_52
REMARK   11  A    between atoms: C_45  and  C_47
REMARK   12  A    between atoms: C_47  and  C_49
REMARK                            x       y       z     vdW  Elec       q    Type
REMARK                         _______ _______ _______ _____ _____    ______ ____
ROOT
ATOM      1  O   UNL     1      13.636  11.816 -25.901  0.00  0.00    +0.000 OA
ATOM      2  O   UNL     1       8.127  10.657 -21.961  0.00  0.00    +0.000 OA
ATOM      3  O   UNL     1      10.973  13.325 -23.635  0.00  0.00    +0.000 OA
ATOM      4  O   UNL     1       8.066  11.251 -24.189  0.00  0.00    +0.000 OA
ATOM      5  O   UNL     1       8.659   9.075 -26.107  0.00  0.00    +0.000 OA
ATOM      6  C   UNL     1      10.554  11.953 -21.785  0.00  0.00    +0.000 C 
ATOM      7  C   UNL     1      12.233  11.210 -23.607  0.00  0.00    +0.000 C 
ATOM      8  C   UNL     1      11.234  12.259 -23.075  0.00  0.00    +0.000 C 
ATOM      9  C   UNL     1       9.284  11.309 -21.829  0.00  0.00    +0.000 C 
ATOM     10  C   UNL     1      11.510  10.159 -24.472  0.00  0.00    +0.000 C 
ATOM     11  C   UNL     1      11.984  10.043 -25.813  0.00  0.00    +0.000 C 
ATOM     12  C   UNL     1      13.149  11.785 -24.643  0.00  0.00    +0.000 C 
ATOM     13  C   UNL     1      12.996  10.724 -26.679  0.00  0.00    +0.000 C 
ATOM     14  C   UNL     1      12.341  11.314 -27.937  0.00  0.00    +0.000 C 
ATOM     15  C   UNL     1      10.923  11.439 -28.040  0.00  0.00    +0.000 C 
ATOM     16  C   UNL     1      13.060  11.718 -29.220  0.00  0.00    +0.000 C 
ATOM     17  C   UNL     1       7.647  10.614 -23.234  0.00  0.00    +0.000 C 
ATOM     18  C   UNL     1       9.628  11.495 -28.075  0.00  0.00    +0.000 C 
ATOM     19  C   UNL     1       6.573   9.599 -23.348  0.00  0.00    +0.000 C 
ATOM     20  C   UNL     1       8.839  10.454 -28.692  0.00  0.00    +0.000 C 
ATOM     21  C   UNL     1       6.179   9.060 -24.635  0.00  0.00    +0.000 C 
ATOM     22  C   UNL     1       7.648   9.822 -28.129  0.00  0.00    +0.000 C 
ATOM     23  C   UNL     1       6.347   9.693 -25.935  0.00  0.00    +0.000 C 
ATOM     24  C   UNL     1       7.640   9.498 -26.664  0.00  0.00    +0.000 C 
ATOM     25  C   UNL     1       8.982  12.588 -27.272  0.00  0.00    +0.000 C 
ATOM     26  C   UNL     1       6.682   9.077 -29.049  0.00  0.00    +0.000 C 
ATOM     27  C   UNL     1       5.316  10.722 -26.385  0.00  0.00    +0.000 C 
ENDROOT
BRANCH   7  28
ATOM     28  O   UNL     1      13.011  10.543 -22.633  0.00  0.00    +0.000 OA
ATOM     29  H   UNL     1      12.406  10.323 -21.901  0.00  0.00    +0.000 HD
ENDBRANCH   7  28
BRANCH  10  30
ATOM     30  O   UNL     1      10.494   9.375 -23.990  0.00  0.00    +0.000 OA
ATOM     31  H   UNL     1       9.644   9.863 -23.976  0.00  0.00    +0.000 HD
ENDBRANCH  10  30
BRANCH  13  32
ATOM     32  O   UNL     1      13.993   9.765 -27.022  0.00  0.00    +0.000 OA
ATOM     33  H   UNL     1      14.112   9.216 -26.230  0.00  0.00    +0.000 HD
ENDBRANCH  13  32
BRANCH  19  34
ATOM     34  O   UNL     1       5.998   9.012 -22.237  0.00  0.00    +0.000 OA
ATOM     35  H   UNL     1       5.616   8.129 -22.421  0.00  0.00    +0.000 HD
ENDBRANCH  19  34
BRANCH  21  36
ATOM     36  O   UNL     1       5.251   8.034 -24.573  0.00  0.00    +0.000 OA
ATOM     37  C   UNL     1       5.828   6.812 -24.964  0.00  0.00    +0.000 C 
ENDBRANCH  21  36
BRANCH  20  38
ATOM     38  O   UNL     1       9.097  10.250 -30.069  0.00  0.00    +0.000 OA
BRANCH  38  40
ATOM     39  O   UNL     1      10.261   8.295 -29.566  0.00  0.00    +0.000 OA
ATOM     40  C   UNL     1      10.027   9.277 -30.246  0.00  0.00    +0.000 C 
ATOM     41  C   UNL     1      10.937   9.479 -31.401  0.00  0.00    +0.000 C 
ENDBRANCH  38  40
ENDBRANCH  20  38
BRANCH   6  42
ATOM     42  C   UNL     1      11.100  12.510 -20.568  0.00  0.00    +0.000 C 
BRANCH  42  44
ATOM     43  O   UNL     1      13.077  11.074 -19.918  0.00  0.00    +0.000 OA
ATOM     44  C   UNL     1      11.806  11.672 -19.564  0.00  0.00    +0.000 C 
ATOM     45  C   UNL     1      13.101  12.221 -19.174  0.00  0.00    +0.000 C 
ATOM     46  C   UNL     1      10.978  10.643 -18.725  0.00  0.00    +0.000 C 
BRANCH  45  47
ATOM     47  C   UNL     1      13.655  12.134 -17.857  0.00  0.00    +0.000 C 
ATOM     48  C   UNL     1      13.093  12.977 -16.740  0.00  0.00    +0.000 C 
BRANCH  47  49
ATOM     49  C   UNL     1      14.393  10.989 -17.465  0.00  0.00    +0.000 C 
ATOM     50  C   UNL     1      15.031  10.052 -17.075  0.00  0.00    +0.000 C 
ATOM     51  C   UNL     1      15.884   8.926 -16.484  0.00  0.00    +0.000 C 
ENDBRANCH  47  49
ENDBRANCH  45  47
ENDBRANCH  42  44
BRANCH  42  52
ATOM     52  O   UNL     1      10.946  13.883 -20.421  0.00  0.00    +0.000 OA
ATOM     53  H   UNL     1      10.543  14.118 -19.561  0.00  0.00    +0.000 HD
ENDBRANCH  42  52
ENDBRANCH   6  42
TORSDOF 12
ENDMDL
MODEL 9
REMARK VINA RESULT:      -6.1     18.238     22.398
REMARK  Name = 101808842_CandidaspongiolideB.pdbqt.pdb
REMARK  12 active torsions:
REMARK  status: ('A' for Active; 'I' for Inactive)
REMARK    1  A    between atoms: C_6  and  C_42
REMARK    2  A    between atoms: C_7  and  O_28
REMARK    3  A    between atoms: C_10  and  O_30
REMARK    4  A    between atoms: C_13  and  O_32
REMARK    5  A    between atoms: C_19  and  O_34
REMARK    6  A    between atoms: C_20  and  O_38
REMARK    7  A    between atoms: C_21  and  O_36
REMARK    8  A    between atoms: O_38  and  C_40
REMARK    9  A    between atoms: C_42  and  C_44
REMARK   10  A    between atoms: C_42  and  O_52
REMARK   11  A    between atoms: C_45  and  C_47
REMARK   12  A    between atoms: C_47  and  C_49
REMARK                            x       y       z     vdW  Elec       q    Type
REMARK                         _______ _______ _______ _____ _____    ______ ____
ROOT
ATOM      1  O   UNL     1      13.812  12.869  -8.305  0.00  0.00    +0.000 OA
ATOM      2  O   UNL     1      10.337  14.390 -14.035  0.00  0.00    +0.000 OA
ATOM      3  O   UNL     1      13.084  15.475 -10.986  0.00  0.00    +0.000 OA
ATOM      4  O   UNL     1      12.475  13.527 -13.968  0.00  0.00    +0.000 OA
ATOM      5  O   UNL     1      12.664  10.627 -13.402  0.00  0.00    +0.000 OA
ATOM      6  C   UNL     1      10.813  15.496 -11.555  0.00  0.00    +0.000 C 
ATOM      7  C   UNL     1      11.711  13.784  -9.837  0.00  0.00    +0.000 C 
ATOM      8  C   UNL     1      11.981  14.956 -10.804  0.00  0.00    +0.000 C 
ATOM      9  C   UNL     1      10.546  14.974 -12.853  0.00  0.00    +0.000 C 
ATOM     10  C   UNL     1      11.820  12.434 -10.575  0.00  0.00    +0.000 C 
ATOM     11  C   UNL     1      12.789  11.529 -10.048  0.00  0.00    +0.000 C 
ATOM     12  C   UNL     1      12.822  13.608  -8.848  0.00  0.00    +0.000 C 
ATOM     13  C   UNL     1      13.822  11.538  -8.966  0.00  0.00    +0.000 C 
ATOM     14  C   UNL     1      15.222  11.264  -9.534  0.00  0.00    +0.000 C 
ATOM     15  C   UNL     1      15.472  11.321 -10.937  0.00  0.00    +0.000 C 
ATOM     16  C   UNL     1      16.441  10.805  -8.739  0.00  0.00    +0.000 C 
ATOM     17  C   UNL     1      11.359  13.597 -14.460  0.00  0.00    +0.000 C 
ATOM     18  C   UNL     1      15.620  11.364 -12.225  0.00  0.00    +0.000 C 
ATOM     19  C   UNL     1      10.913  12.733 -15.578  0.00  0.00    +0.000 C 
ATOM     20  C   UNL     1      15.541  10.173 -13.038  0.00  0.00    +0.000 C 
ATOM     21  C   UNL     1      11.644  11.535 -15.942  0.00  0.00    +0.000 C 
ATOM     22  C   UNL     1      14.791  10.023 -14.284  0.00  0.00    +0.000 C 
ATOM     23  C   UNL     1      13.049  11.257 -15.684  0.00  0.00    +0.000 C 
ATOM     24  C   UNL     1      13.428  10.645 -14.372  0.00  0.00    +0.000 C 
ATOM     25  C   UNL     1      15.676  12.729 -12.849  0.00  0.00    +0.000 C 
ATOM     26  C   UNL     1      15.143   8.889 -15.245  0.00  0.00    +0.000 C 
ATOM     27  C   UNL     1      14.093  11.824 -16.641  0.00  0.00    +0.000 C 
ENDROOT
BRANCH   7  28
ATOM     28  O   UNL     1      10.483  13.825  -9.138  0.00  0.00    +0.000 OA
ATOM     29  H   UNL     1      10.701  14.034  -8.211  0.00  0.00    +0.000 HD
ENDBRANCH   7  28
BRANCH  10  30
ATOM     30  O   UNL     1      11.033  12.112 -11.649  0.00  0.00    +0.000 OA
ATOM     31  H   UNL     1      10.303  12.757 -11.762  0.00  0.00    +0.000 HD
ENDBRANCH  10  30
BRANCH  13  32
ATOM     32  O   UNL     1      13.455  10.552  -8.005  0.00  0.00    +0.000 OA
ATOM     33  H   UNL     1      12.640  10.879  -7.590  0.00  0.00    +0.000 HD
ENDBRANCH  13  32
BRANCH  19  34
ATOM     34  O   UNL     1       9.713  12.941 -16.231  0.00  0.00    +0.000 OA
ATOM     35  H   UNL     1       9.195  12.119 -16.356  0.00  0.00    +0.000 HD
ENDBRANCH  19  34
BRANCH  21  36
ATOM     36  O   UNL     1      11.040  10.765 -16.923  0.00  0.00    +0.000 OA
ATOM     37  C   UNL     1      10.824   9.453 -16.468  0.00  0.00    +0.000 C 
ENDBRANCH  21  36
BRANCH  20  38
ATOM     38  O   UNL     1      16.500   9.179 -12.730  0.00  0.00    +0.000 OA
BRANCH  38  40
ATOM     39  O   UNL     1      18.252  10.070 -13.983  0.00  0.00    +0.000 OA
ATOM     40  C   UNL     1      17.759   9.637 -12.958  0.00  0.00    +0.000 C 
ATOM     41  C   UNL     1      18.686   9.528 -11.805  0.00  0.00    +0.000 C 
ENDBRANCH  38  40
ENDBRANCH  20  38
BRANCH   6  42
ATOM     42  C   UNL     1      10.139  16.666 -11.035  0.00  0.00    +0.000 C 
BRANCH  42  44
ATOM     43  O   UNL     1      11.633  18.232 -12.343  0.00  0.00    +0.000 OA
ATOM     44  C   UNL     1      10.602  18.044 -11.343  0.00  0.00    +0.000 C 
ATOM     45  C   UNL     1      10.335  18.439 -12.722  0.00  0.00    +0.000 C 
ATOM     46  C   UNL     1      10.859  19.034 -10.159  0.00  0.00    +0.000 C 
BRANCH  45  47
ATOM     47  C   UNL     1       9.977  19.764 -13.132  0.00  0.00    +0.000 C 
ATOM     48  C   UNL     1      11.042  20.733 -13.580  0.00  0.00    +0.000 C 
BRANCH  47  49
ATOM     49  C   UNL     1       8.654  20.049 -13.554  0.00  0.00    +0.000 C 
ATOM     50  C   UNL     1       7.513  20.257 -13.857  0.00  0.00    +0.000 C 
ATOM     51  C   UNL     1       6.023  20.442 -14.155  0.00  0.00    +0.000 C 
ENDBRANCH  47  49
ENDBRANCH  45  47
ENDBRANCH  42  44
BRANCH  42  52
ATOM     52  O   UNL     1       9.017  16.409 -10.258  0.00  0.00    +0.000 OA
ATOM     53  H   UNL     1       8.738  15.473 -10.312  0.00  0.00    +0.000 HD
ENDBRANCH  42  52
ENDBRANCH   6  42
TORSDOF 12
ENDMDL
