MODEL 1
REMARK VINA RESULT:      -6.0      0.000      0.000
REMARK  Name = 101808841_CandidaspongiolideA.pdbqt.pdb
REMARK  13 active torsions:
REMARK  status: ('A' for Active; 'I' for Inactive)
REMARK    1  A    between atoms: C_6  and  C_39
REMARK    2  A    between atoms: C_9  and  O_27
REMARK    3  A    between atoms: C_9  and  C_51
REMARK    4  A    between atoms: C_10  and  O_29
REMARK    5  A    between atoms: C_14  and  O_31
REMARK    6  A    between atoms: C_15  and  O_33
REMARK    7  A    between atoms: C_20  and  O_35
REMARK    8  A    between atoms: O_35  and  C_37
REMARK    9  A    between atoms: C_39  and  C_41
REMARK   10  A    between atoms: C_39  and  O_49
REMARK   11  A    between atoms: C_42  and  C_44
REMARK   12  A    between atoms: C_44  and  C_46
REMARK   13  A    between atoms: C_51  and  O_52
REMARK                            x       y       z     vdW  Elec       q    Type
REMARK                         _______ _______ _______ _____ _____    ______ ____
ROOT
ATOM      1  O   UNL     1     -15.107   4.665  -9.103  0.00  0.00    +0.000 OA
ATOM      2  O   UNL     1     -11.014   4.938  -8.429  0.00  0.00    +0.000 OA
ATOM      3  O   UNL     1     -14.959   2.607 -10.134  0.00  0.00    +0.000 OA
ATOM      4  O   UNL     1     -12.975  11.234  -8.510  0.00  0.00    +0.000 OA
ATOM      5  O   UNL     1     -16.192   6.640  -7.366  0.00  0.00    +0.000 OA
ATOM      6  C   UNL     1     -12.648   5.470 -10.039  0.00  0.00    +0.000 C 
ATOM      7  C   UNL     1     -11.645   5.835  -8.991  0.00  0.00    +0.000 C 
ATOM      8  C   UNL     1     -13.932   5.044  -9.597  0.00  0.00    +0.000 C 
ATOM      9  C   UNL     1     -11.553   7.342  -8.625  0.00  0.00    +0.000 C 
ATOM     10  C   UNL     1     -12.746   7.761  -7.783  0.00  0.00    +0.000 C 
ATOM     11  C   UNL     1     -13.295   9.076  -7.822  0.00  0.00    +0.000 C 
ATOM     12  C   UNL     1     -15.483   3.388  -9.352  0.00  0.00    +0.000 C 
ATOM     13  C   UNL     1     -13.744  10.452  -7.962  0.00  0.00    +0.000 C 
ATOM     14  C   UNL     1     -16.625   2.990  -8.496  0.00  0.00    +0.000 C 
ATOM     15  C   UNL     1     -17.353   3.886  -7.622  0.00  0.00    +0.000 C 
ATOM     16  C   UNL     1     -15.092  10.858  -7.446  0.00  0.00    +0.000 C 
ATOM     17  C   UNL     1     -17.949   5.164  -7.991  0.00  0.00    +0.000 C 
ATOM     18  C   UNL     1     -18.399   7.373  -6.792  0.00  0.00    +0.000 C 
ATOM     19  C   UNL     1     -17.401   6.405  -7.360  0.00  0.00    +0.000 C 
ATOM     20  C   UNL     1     -17.970   8.741  -6.495  0.00  0.00    +0.000 C 
ATOM     21  C   UNL     1     -15.922   9.967  -6.721  0.00  0.00    +0.000 C 
ATOM     22  C   UNL     1     -16.656   9.140  -6.046  0.00  0.00    +0.000 C 
ATOM     23  C   UNL     1     -15.669  12.244  -7.642  0.00  0.00    +0.000 C 
ATOM     24  C   UNL     1     -18.558   5.314  -9.386  0.00  0.00    +0.000 C 
ATOM     25  C   UNL     1     -19.808   6.918  -6.432  0.00  0.00    +0.000 C 
ATOM     26  C   UNL     1     -15.987   8.488  -4.862  0.00  0.00    +0.000 C 
ENDROOT
BRANCH   9  27
ATOM     27  O   UNL     1     -11.557   8.115  -9.826  0.00  0.00    +0.000 OA
ATOM     28  H   UNL     1     -11.893   7.538 -10.536  0.00  0.00    +0.000 HD
ENDBRANCH   9  27
BRANCH  10  29
ATOM     29  O   UNL     1     -13.299   6.831  -6.925  0.00  0.00    +0.000 OA
ATOM     30  H   UNL     1     -13.201   7.056  -5.981  0.00  0.00    +0.000 HD
ENDBRANCH  10  29
BRANCH  14  31
ATOM     31  O   UNL     1     -17.009   1.661  -8.476  0.00  0.00    +0.000 OA
ATOM     32  H   UNL     1     -16.982   1.307  -7.562  0.00  0.00    +0.000 HD
ENDBRANCH  14  31
BRANCH  15  33
ATOM     33  O   UNL     1     -17.928   3.262  -6.528  0.00  0.00    +0.000 OA
ATOM     34  C   UNL     1     -19.327   3.279  -6.637  0.00  0.00    +0.000 C 
ENDBRANCH  15  33
BRANCH  20  35
ATOM     35  O   UNL     1     -18.963   9.734  -6.276  0.00  0.00    +0.000 OA
BRANCH  35  37
ATOM     36  O   UNL     1     -19.981   9.825  -8.374  0.00  0.00    +0.000 OA
ATOM     37  C   UNL     1     -19.427  10.319  -7.410  0.00  0.00    +0.000 C 
ATOM     38  C   UNL     1     -19.169  11.777  -7.502  0.00  0.00    +0.000 C 
ENDBRANCH  35  37
ENDBRANCH  20  35
BRANCH   6  39
ATOM     39  C   UNL     1     -12.276   5.454 -11.439  0.00  0.00    +0.000 C 
BRANCH  39  41
ATOM     40  O   UNL     1     -13.676   5.205 -13.556  0.00  0.00    +0.000 OA
ATOM     41  C   UNL     1     -13.160   6.037 -12.488  0.00  0.00    +0.000 C 
ATOM     42  C   UNL     1     -14.511   5.483 -12.514  0.00  0.00    +0.000 C 
ATOM     43  C   UNL     1     -12.763   7.428 -13.093  0.00  0.00    +0.000 C 
BRANCH  42  44
ATOM     44  C   UNL     1     -15.668   6.298 -12.752  0.00  0.00    +0.000 C 
ATOM     45  C   UNL     1     -16.713   5.856 -13.745  0.00  0.00    +0.000 C 
BRANCH  44  46
ATOM     46  C   UNL     1     -16.115   7.170 -11.723  0.00  0.00    +0.000 C 
ATOM     47  C   UNL     1     -16.524   7.971 -10.929  0.00  0.00    +0.000 C 
ATOM     48  C   UNL     1     -17.062   9.088 -10.024  0.00  0.00    +0.000 C 
ENDBRANCH  44  46
ENDBRANCH  42  44
ENDBRANCH  39  41
BRANCH  39  49
ATOM     49  O   UNL     1     -10.937   5.187 -11.687  0.00  0.00    +0.000 OA
ATOM     50  H   UNL     1     -10.443   5.982 -11.965  0.00  0.00    +0.000 HD
ENDBRANCH  39  49
ENDBRANCH   6  39
BRANCH   9  51
ATOM     51  C   UNL     1     -10.308   7.626  -7.873  0.00  0.00    +0.000 C 
BRANCH  51  52
ATOM     52  O   UNL     1      -9.202   7.900  -7.181  0.00  0.00    +0.000 OA
ATOM     53  H   UNL     1      -8.437   7.994  -7.779  0.00  0.00    +0.000 HD
ENDBRANCH  51  52
ENDBRANCH   9  51
TORSDOF 13
ENDMDL
MODEL 2
REMARK VINA RESULT:      -5.8     11.652     14.127
REMARK  Name = 101808841_CandidaspongiolideA.pdbqt.pdb
REMARK  13 active torsions:
REMARK  status: ('A' for Active; 'I' for Inactive)
REMARK    1  A    between atoms: C_6  and  C_39
REMARK    2  A    between atoms: C_9  and  O_27
REMARK    3  A    between atoms: C_9  and  C_51
REMARK    4  A    between atoms: C_10  and  O_29
REMARK    5  A    between atoms: C_14  and  O_31
REMARK    6  A    between atoms: C_15  and  O_33
REMARK    7  A    between atoms: C_20  and  O_35
REMARK    8  A    between atoms: O_35  and  C_37
REMARK    9  A    between atoms: C_39  and  C_41
REMARK   10  A    between atoms: C_39  and  O_49
REMARK   11  A    between atoms: C_42  and  C_44
REMARK   12  A    between atoms: C_44  and  C_46
REMARK   13  A    between atoms: C_51  and  O_52
REMARK                            x       y       z     vdW  Elec       q    Type
REMARK                         _______ _______ _______ _____ _____    ______ ____
ROOT
ATOM      1  O   UNL     1      -9.277  -0.247   2.184  0.00  0.00    +0.000 OA
ATOM      2  O   UNL     1      -6.944   1.420   5.194  0.00  0.00    +0.000 OA
ATOM      3  O   UNL     1      -7.975  -2.144   2.010  0.00  0.00    +0.000 OA
ATOM      4  O   UNL     1      -9.796   6.662   2.386  0.00  0.00    +0.000 OA
ATOM      5  O   UNL     1     -11.686   1.260   2.309  0.00  0.00    +0.000 OA
ATOM      6  C   UNL     1      -7.128   1.339   2.848  0.00  0.00    +0.000 C 
ATOM      7  C   UNL     1      -7.225   2.039   4.167  0.00  0.00    +0.000 C 
ATOM      8  C   UNL     1      -8.217   0.505   2.468  0.00  0.00    +0.000 C 
ATOM      9  C   UNL     1      -7.775   3.491   4.132  0.00  0.00    +0.000 C 
ATOM     10  C   UNL     1      -9.277   3.487   3.902  0.00  0.00    +0.000 C 
ATOM     11  C   UNL     1      -9.955   4.535   3.211  0.00  0.00    +0.000 C 
ATOM     12  C   UNL     1      -9.059  -1.579   2.070  0.00  0.00    +0.000 C 
ATOM     13  C   UNL     1     -10.510   5.671   2.494  0.00  0.00    +0.000 C 
ATOM     14  C   UNL     1     -10.334  -2.332   2.078  0.00  0.00    +0.000 C 
ATOM     15  C   UNL     1     -11.650  -1.728   2.051  0.00  0.00    +0.000 C 
ATOM     16  C   UNL     1     -11.896   5.599   1.929  0.00  0.00    +0.000 C 
ATOM     17  C   UNL     1     -12.130  -0.737   1.095  0.00  0.00    +0.000 C 
ATOM     18  C   UNL     1     -13.790   1.200   1.166  0.00  0.00    +0.000 C 
ATOM     19  C   UNL     1     -12.476   0.625   1.608  0.00  0.00    +0.000 C 
ATOM     20  C   UNL     1     -14.027   2.637   1.327  0.00  0.00    +0.000 C 
ATOM     21  C   UNL     1     -12.746   4.487   2.156  0.00  0.00    +0.000 C 
ATOM     22  C   UNL     1     -13.510   3.468   2.390  0.00  0.00    +0.000 C 
ATOM     23  C   UNL     1     -12.505   6.700   1.087  0.00  0.00    +0.000 C 
ATOM     24  C   UNL     1     -11.650  -0.823  -0.355  0.00  0.00    +0.000 C 
ATOM     25  C   UNL     1     -14.905   0.296   0.653  0.00  0.00    +0.000 C 
ATOM     26  C   UNL     1     -13.683   3.100   3.843  0.00  0.00    +0.000 C 
ENDROOT
BRANCH   9  27
ATOM     27  O   UNL     1      -7.157   4.200   3.057  0.00  0.00    +0.000 OA
ATOM     28  H   UNL     1      -7.451   5.127   3.119  0.00  0.00    +0.000 HD
ENDBRANCH   9  27
BRANCH  10  29
ATOM     29  O   UNL     1     -10.013   2.436   4.411  0.00  0.00    +0.000 OA
ATOM     30  H   UNL     1      -9.472   1.674   4.691  0.00  0.00    +0.000 HD
ENDBRANCH  10  29
BRANCH  14  31
ATOM     31  O   UNL     1     -10.290  -3.712   2.171  0.00  0.00    +0.000 OA
ATOM     32  H   UNL     1     -10.411  -4.122   1.288  0.00  0.00    +0.000 HD
ENDBRANCH  14  31
BRANCH  15  33
ATOM     33  O   UNL     1     -12.636  -2.497   2.646  0.00  0.00    +0.000 OA
ATOM     34  C   UNL     1     -13.506  -3.012   1.673  0.00  0.00    +0.000 C 
ENDBRANCH  15  33
BRANCH  20  35
ATOM     35  O   UNL     1     -15.109   3.232   0.625  0.00  0.00    +0.000 OA
BRANCH  35  37
ATOM     36  O   UNL     1     -13.869   4.127  -1.137  0.00  0.00    +0.000 OA
ATOM     37  C   UNL     1     -14.830   3.550  -0.666  0.00  0.00    +0.000 C 
ATOM     38  C   UNL     1     -15.889   3.178  -1.636  0.00  0.00    +0.000 C 
ENDBRANCH  35  37
ENDBRANCH  20  35
BRANCH   6  39
ATOM     39  C   UNL     1      -5.921   1.432   2.052  0.00  0.00    +0.000 C 
BRANCH  39  41
ATOM     40  O   UNL     1      -5.374  -0.551   0.545  0.00  0.00    +0.000 OA
ATOM     41  C   UNL     1      -5.100   0.229   1.735  0.00  0.00    +0.000 C 
ATOM     42  C   UNL     1      -4.335   0.331   0.496  0.00  0.00    +0.000 C 
ATOM     43  C   UNL     1      -4.760  -0.757   2.906  0.00  0.00    +0.000 C 
BRANCH  42  44
ATOM     44  C   UNL     1      -2.998  -0.178   0.377  0.00  0.00    +0.000 C 
ATOM     45  C   UNL     1      -2.768  -1.594  -0.087  0.00  0.00    +0.000 C 
BRANCH  44  46
ATOM     46  C   UNL     1      -1.935   0.736   0.146  0.00  0.00    +0.000 C 
ATOM     47  C   UNL     1      -0.996   1.474   0.040  0.00  0.00    +0.000 C 
ATOM     48  C   UNL     1       0.239   2.386   0.041  0.00  0.00    +0.000 C 
ENDBRANCH  44  46
ENDBRANCH  42  44
ENDBRANCH  39  41
BRANCH  39  49
ATOM     49  O   UNL     1      -5.781   2.613   1.338  0.00  0.00    +0.000 OA
ATOM     50  H   UNL     1      -5.271   3.288   1.827  0.00  0.00    +0.000 HD
ENDBRANCH  39  49
ENDBRANCH   6  39
BRANCH   9  51
ATOM     51  C   UNL     1      -7.484   4.195   5.404  0.00  0.00    +0.000 C 
BRANCH  51  52
ATOM     52  O   UNL     1      -7.208   4.846   6.534  0.00  0.00    +0.000 OA
ATOM     53  H   UNL     1      -6.475   4.413   7.010  0.00  0.00    +0.000 HD
ENDBRANCH  51  52
ENDBRANCH   9  51
TORSDOF 13
ENDMDL
MODEL 3
REMARK VINA RESULT:      -5.8     28.284     33.226
REMARK  Name = 101808841_CandidaspongiolideA.pdbqt.pdb
REMARK  13 active torsions:
REMARK  status: ('A' for Active; 'I' for Inactive)
REMARK    1  A    between atoms: C_6  and  C_39
REMARK    2  A    between atoms: C_9  and  O_27
REMARK    3  A    between atoms: C_9  and  C_51
REMARK    4  A    between atoms: C_10  and  O_29
REMARK    5  A    between atoms: C_14  and  O_31
REMARK    6  A    between atoms: C_15  and  O_33
REMARK    7  A    between atoms: C_20  and  O_35
REMARK    8  A    between atoms: O_35  and  C_37
REMARK    9  A    between atoms: C_39  and  C_41
REMARK   10  A    between atoms: C_39  and  O_49
REMARK   11  A    between atoms: C_42  and  C_44
REMARK   12  A    between atoms: C_44  and  C_46
REMARK   13  A    between atoms: C_51  and  O_52
REMARK                            x       y       z     vdW  Elec       q    Type
REMARK                         _______ _______ _______ _____ _____    ______ ____
ROOT
ATOM      1  O   UNL     1      14.144  -3.762  -6.200  0.00  0.00    +0.000 OA
ATOM      2  O   UNL     1       9.995  -4.014  -6.162  0.00  0.00    +0.000 OA
ATOM      3  O   UNL     1      14.176  -1.912  -7.577  0.00  0.00    +0.000 OA
ATOM      4  O   UNL     1      11.914 -10.185  -4.849  0.00  0.00    +0.000 OA
ATOM      5  O   UNL     1      14.921  -5.390  -3.999  0.00  0.00    +0.000 OA
ATOM      6  C   UNL     1      11.868  -4.772  -7.371  0.00  0.00    +0.000 C 
ATOM      7  C   UNL     1      10.705  -4.978  -6.452  0.00  0.00    +0.000 C 
ATOM      8  C   UNL     1      13.064  -4.247  -6.806  0.00  0.00    +0.000 C 
ATOM      9  C   UNL     1      10.548  -6.403  -5.855  0.00  0.00    +0.000 C 
ATOM     10  C   UNL     1      11.585  -6.645  -4.772  0.00  0.00    +0.000 C 
ATOM     11  C   UNL     1      12.127  -7.935  -4.497  0.00  0.00    +0.000 C 
ATOM     12  C   UNL     1      14.561  -2.537  -6.598  0.00  0.00    +0.000 C 
ATOM     13  C   UNL     1      12.587  -9.304  -4.326  0.00  0.00    +0.000 C 
ATOM     14  C   UNL     1      15.549  -1.974  -5.650  0.00  0.00    +0.000 C 
ATOM     15  C   UNL     1      16.120  -2.692  -4.529  0.00  0.00    +0.000 C 
ATOM     16  C   UNL     1      13.830  -9.586  -3.537  0.00  0.00    +0.000 C 
ATOM     17  C   UNL     1      16.764  -3.999  -4.573  0.00  0.00    +0.000 C 
ATOM     18  C   UNL     1      17.001  -5.963  -2.959  0.00  0.00    +0.000 C 
ATOM     19  C   UNL     1      16.114  -5.128  -3.837  0.00  0.00    +0.000 C 
ATOM     20  C   UNL     1      16.523  -7.271  -2.506  0.00  0.00    +0.000 C 
ATOM     21  C   UNL     1      14.534  -8.565  -2.849  0.00  0.00    +0.000 C 
ATOM     22  C   UNL     1      15.151  -7.619  -2.215  0.00  0.00    +0.000 C 
ATOM     23  C   UNL     1      14.425 -10.971  -3.397  0.00  0.00    +0.000 C 
ATOM     24  C   UNL     1      17.592  -4.369  -5.805  0.00  0.00    +0.000 C 
ATOM     25  C   UNL     1      18.335  -5.421  -2.458  0.00  0.00    +0.000 C 
ATOM     26  C   UNL     1      14.301  -6.792  -1.284  0.00  0.00    +0.000 C 
ENDROOT
BRANCH   9  27
ATOM     27  O   UNL     1      10.745  -7.367  -6.890  0.00  0.00    +0.000 OA
ATOM     28  H   UNL     1      11.145  -6.899  -7.646  0.00  0.00    +0.000 HD
ENDBRANCH   9  27
BRANCH  10  29
ATOM     29  O   UNL     1      11.994  -5.571  -4.007  0.00  0.00    +0.000 OA
ATOM     30  H   UNL     1      11.980  -5.742  -3.046  0.00  0.00    +0.000 HD
ENDBRANCH  10  29
BRANCH  14  31
ATOM     31  O   UNL     1      15.931  -0.651  -5.794  0.00  0.00    +0.000 OA
ATOM     32  H   UNL     1      16.415  -0.521  -6.637  0.00  0.00    +0.000 HD
ENDBRANCH  14  31
BRANCH  15  33
ATOM     33  O   UNL     1      16.512  -1.878  -3.479  0.00  0.00    +0.000 OA
ATOM     34  C   UNL     1      17.910  -1.869  -3.365  0.00  0.00    +0.000 C 
ENDBRANCH  15  33
BRANCH  20  35
ATOM     35  O   UNL     1      17.463  -8.189  -1.963  0.00  0.00    +0.000 OA
BRANCH  35  37
ATOM     36  O   UNL     1      18.461  -8.826  -3.974  0.00  0.00    +0.000 OA
ATOM     37  C   UNL     1      17.995  -9.046  -2.872  0.00  0.00    +0.000 C 
ATOM     38  C   UNL     1      17.951 -10.474  -2.473  0.00  0.00    +0.000 C 
ENDBRANCH  35  37
ENDBRANCH  20  35
BRANCH   6  39
ATOM     39  C   UNL     1      11.730  -5.001  -8.795  0.00  0.00    +0.000 C 
BRANCH  39  41
ATOM     40  O   UNL     1      13.385  -4.935 -10.735  0.00  0.00    +0.000 OA
ATOM     41  C   UNL     1      12.822  -5.629  -9.594  0.00  0.00    +0.000 C 
ATOM     42  C   UNL     1      14.086  -4.898  -9.564  0.00  0.00    +0.000 C 
ATOM     43  C   UNL     1      12.686  -7.148  -9.955  0.00  0.00    +0.000 C 
BRANCH  42  44
ATOM     44  C   UNL     1      15.354  -5.565  -9.495  0.00  0.00    +0.000 C 
ATOM     45  C   UNL     1      16.542  -5.010 -10.239  0.00  0.00    +0.000 C 
BRANCH  44  46
ATOM     46  C   UNL     1      15.648  -6.361  -8.355  0.00  0.00    +0.000 C 
ATOM     47  C   UNL     1      15.800  -7.072  -7.401  0.00  0.00    +0.000 C 
ATOM     48  C   UNL     1      15.851  -8.005  -6.183  0.00  0.00    +0.000 C 
ENDBRANCH  44  46
ENDBRANCH  42  44
ENDBRANCH  39  41
BRANCH  39  49
ATOM     49  O   UNL     1      10.432  -4.924  -9.278  0.00  0.00    +0.000 OA
ATOM     50  H   UNL     1       9.856  -4.369  -8.717  0.00  0.00    +0.000 HD
ENDBRANCH  39  49
ENDBRANCH   6  39
BRANCH   9  51
ATOM     51  C   UNL     1       9.195  -6.585  -5.278  0.00  0.00    +0.000 C 
BRANCH  51  52
ATOM     52  O   UNL     1       7.988  -6.739  -4.734  0.00  0.00    +0.000 OA
ATOM     53  H   UNL     1       7.806  -6.026  -4.094  0.00  0.00    +0.000 HD
ENDBRANCH  51  52
ENDBRANCH   9  51
TORSDOF 13
ENDMDL
MODEL 4
REMARK VINA RESULT:      -5.6     14.385     18.277
REMARK  Name = 101808841_CandidaspongiolideA.pdbqt.pdb
REMARK  13 active torsions:
REMARK  status: ('A' for Active; 'I' for Inactive)
REMARK    1  A    between atoms: C_6  and  C_39
REMARK    2  A    between atoms: C_9  and  O_27
REMARK    3  A    between atoms: C_9  and  C_51
REMARK    4  A    between atoms: C_10  and  O_29
REMARK    5  A    between atoms: C_14  and  O_31
REMARK    6  A    between atoms: C_15  and  O_33
REMARK    7  A    between atoms: C_20  and  O_35
REMARK    8  A    between atoms: O_35  and  C_37
REMARK    9  A    between atoms: C_39  and  C_41
REMARK   10  A    between atoms: C_39  and  O_49
REMARK   11  A    between atoms: C_42  and  C_44
REMARK   12  A    between atoms: C_44  and  C_46
REMARK   13  A    between atoms: C_51  and  O_52
REMARK                            x       y       z     vdW  Elec       q    Type
REMARK                         _______ _______ _______ _____ _____    ______ ____
ROOT
ATOM      1  O   UNL     1      -9.352   0.035 -21.075  0.00  0.00    +0.000 OA
ATOM      2  O   UNL     1      -7.564  -2.036 -17.945  0.00  0.00    +0.000 OA
ATOM      3  O   UNL     1     -11.421   0.101 -20.057  0.00  0.00    +0.000 OA
ATOM      4  O   UNL     1      -3.806  -3.572 -23.142  0.00  0.00    +0.000 OA
ATOM      5  O   UNL     1      -7.136   1.045 -22.545  0.00  0.00    +0.000 OA
ATOM      6  C   UNL     1      -8.724  -2.402 -19.962  0.00  0.00    +0.000 C 
ATOM      7  C   UNL     1      -7.492  -2.426 -19.112  0.00  0.00    +0.000 C 
ATOM      8  C   UNL     1      -9.087  -1.160 -20.553  0.00  0.00    +0.000 C 
ATOM      9  C   UNL     1      -6.180  -2.860 -19.819  0.00  0.00    +0.000 C 
ATOM     10  C   UNL     1      -5.666  -1.750 -20.720  0.00  0.00    +0.000 C 
ATOM     11  C   UNL     1      -4.935  -2.004 -21.918  0.00  0.00    +0.000 C 
ATOM     12  C   UNL     1     -10.508   0.621 -20.683  0.00  0.00    +0.000 C 
ATOM     13  C   UNL     1      -4.201  -2.411 -23.105  0.00  0.00    +0.000 C 
ATOM     14  C   UNL     1     -10.538   2.053 -21.062  0.00  0.00    +0.000 C 
ATOM     15  C   UNL     1      -9.541   2.710 -21.883  0.00  0.00    +0.000 C 
ATOM     16  C   UNL     1      -3.956  -1.430 -24.211  0.00  0.00    +0.000 C 
ATOM     17  C   UNL     1      -9.068   2.273 -23.190  0.00  0.00    +0.000 C 
ATOM     18  C   UNL     1      -6.868   2.438 -24.475  0.00  0.00    +0.000 C 
ATOM     19  C   UNL     1      -7.635   1.863 -23.320  0.00  0.00    +0.000 C 
ATOM     20  C   UNL     1      -5.602   1.816 -24.867  0.00  0.00    +0.000 C 
ATOM     21  C   UNL     1      -4.325  -0.065 -24.104  0.00  0.00    +0.000 C 
ATOM     22  C   UNL     1      -4.658   1.180 -23.976  0.00  0.00    +0.000 C 
ATOM     23  C   UNL     1      -3.288  -1.804 -25.517  0.00  0.00    +0.000 C 
ATOM     24  C   UNL     1     -10.061   1.609 -24.146  0.00  0.00    +0.000 C 
ATOM     25  C   UNL     1      -7.341   3.710 -25.169  0.00  0.00    +0.000 C 
ATOM     26  C   UNL     1      -4.136   1.873 -22.743  0.00  0.00    +0.000 C 
ENDROOT
BRANCH   9  27
ATOM     27  O   UNL     1      -6.442  -4.009 -20.626  0.00  0.00    +0.000 OA
ATOM     28  H   UNL     1      -5.909  -3.917 -21.437  0.00  0.00    +0.000 HD
ENDBRANCH   9  27
BRANCH  10  29
ATOM     29  O   UNL     1      -5.897  -0.443 -20.342  0.00  0.00    +0.000 OA
ATOM     30  H   UNL     1      -6.358   0.089 -21.019  0.00  0.00    +0.000 HD
ENDBRANCH  10  29
BRANCH  14  31
ATOM     31  O   UNL     1     -11.554   2.851 -20.567  0.00  0.00    +0.000 OA
ATOM     32  H   UNL     1     -12.428   2.435 -20.723  0.00  0.00    +0.000 HD
ENDBRANCH  14  31
BRANCH  15  33
ATOM     33  O   UNL     1      -9.410   4.066 -21.632  0.00  0.00    +0.000 OA
ATOM     34  C   UNL     1      -9.782   4.809 -22.763  0.00  0.00    +0.000 C 
ENDBRANCH  15  33
BRANCH  20  35
ATOM     35  O   UNL     1      -5.048   2.138 -26.135  0.00  0.00    +0.000 OA
BRANCH  35  37
ATOM     36  O   UNL     1      -3.882   4.082 -25.582  0.00  0.00    +0.000 OA
ATOM     37  C   UNL     1      -3.982   2.978 -26.081  0.00  0.00    +0.000 C 
ATOM     38  C   UNL     1      -2.773   2.487 -26.787  0.00  0.00    +0.000 C 
ENDBRANCH  35  37
ENDBRANCH  20  35
BRANCH   6  39
ATOM     39  C   UNL     1      -9.559  -3.579 -20.081  0.00  0.00    +0.000 C 
BRANCH  39  41
ATOM     40  O   UNL     1     -11.284  -4.880 -21.436  0.00  0.00    +0.000 OA
ATOM     41  C   UNL     1     -10.133  -4.001 -21.391  0.00  0.00    +0.000 C 
ATOM     42  C   UNL     1     -11.501  -3.546 -21.623  0.00  0.00    +0.000 C 
ATOM     43  C   UNL     1      -9.138  -4.428 -22.524  0.00  0.00    +0.000 C 
BRANCH  42  44
ATOM     44  C   UNL     1     -11.948  -3.091 -22.908  0.00  0.00    +0.000 C 
ATOM     45  C   UNL     1     -12.513  -4.072 -23.904  0.00  0.00    +0.000 C 
BRANCH  44  46
ATOM     46  C   UNL     1     -12.380  -1.744 -23.045  0.00  0.00    +0.000 C 
ATOM     47  C   UNL     1     -12.836  -0.645 -23.193  0.00  0.00    +0.000 C 
ATOM     48  C   UNL     1     -13.531   0.700 -23.451  0.00  0.00    +0.000 C 
ENDBRANCH  44  46
ENDBRANCH  42  44
ENDBRANCH  39  41
BRANCH  39  49
ATOM     49  O   UNL     1      -9.501  -4.450 -19.002  0.00  0.00    +0.000 OA
ATOM     50  H   UNL     1      -9.277  -3.996 -18.166  0.00  0.00    +0.000 HD
ENDBRANCH  39  49
ENDBRANCH   6  39
BRANCH   9  51
ATOM     51  C   UNL     1      -5.133  -3.198 -18.825  0.00  0.00    +0.000 C 
BRANCH  51  52
ATOM     52  O   UNL     1      -4.185  -3.522 -17.947  0.00  0.00    +0.000 OA
ATOM     53  H   UNL     1      -3.613  -2.754 -17.759  0.00  0.00    +0.000 HD
ENDBRANCH  51  52
ENDBRANCH   9  51
TORSDOF 13
ENDMDL
MODEL 5
REMARK VINA RESULT:      -5.4     10.256     12.526
REMARK  Name = 101808841_CandidaspongiolideA.pdbqt.pdb
REMARK  13 active torsions:
REMARK  status: ('A' for Active; 'I' for Inactive)
REMARK    1  A    between atoms: C_6  and  C_39
REMARK    2  A    between atoms: C_9  and  O_27
REMARK    3  A    between atoms: C_9  and  C_51
REMARK    4  A    between atoms: C_10  and  O_29
REMARK    5  A    between atoms: C_14  and  O_31
REMARK    6  A    between atoms: C_15  and  O_33
REMARK    7  A    between atoms: C_20  and  O_35
REMARK    8  A    between atoms: O_35  and  C_37
REMARK    9  A    between atoms: C_39  and  C_41
REMARK   10  A    between atoms: C_39  and  O_49
REMARK   11  A    between atoms: C_42  and  C_44
REMARK   12  A    between atoms: C_44  and  C_46
REMARK   13  A    between atoms: C_51  and  O_52
REMARK                            x       y       z     vdW  Elec       q    Type
REMARK                         _______ _______ _______ _____ _____    ______ ____
ROOT
ATOM      1  O   UNL     1     -12.455   1.969   0.436  0.00  0.00    +0.000 OA
ATOM      2  O   UNL     1     -10.885  -0.873   3.033  0.00  0.00    +0.000 OA
ATOM      3  O   UNL     1     -13.514   0.405  -0.887  0.00  0.00    +0.000 OA
ATOM      4  O   UNL     1      -6.734   4.215   3.643  0.00  0.00    +0.000 OA
ATOM      5  O   UNL     1     -12.177   4.404   1.882  0.00  0.00    +0.000 OA
ATOM      6  C   UNL     1     -10.378   0.266   1.035  0.00  0.00    +0.000 C 
ATOM      7  C   UNL     1     -10.177  -0.023   2.490  0.00  0.00    +0.000 C 
ATOM      8  C   UNL     1     -11.444   1.140   0.682  0.00  0.00    +0.000 C 
ATOM      9  C   UNL     1      -9.136   0.862   3.227  0.00  0.00    +0.000 C 
ATOM     10  C   UNL     1      -9.695   2.254   3.470  0.00  0.00    +0.000 C 
ATOM     11  C   UNL     1      -8.874   3.419   3.512  0.00  0.00    +0.000 C 
ATOM     12  C   UNL     1     -13.488   1.467  -0.280  0.00  0.00    +0.000 C 
ATOM     13  C   UNL     1      -7.918   4.514   3.533  0.00  0.00    +0.000 C 
ATOM     14  C   UNL     1     -14.670   2.357  -0.211  0.00  0.00    +0.000 C 
ATOM     15  C   UNL     1     -14.681   3.668   0.404  0.00  0.00    +0.000 C 
ATOM     16  C   UNL     1      -8.395   5.931   3.425  0.00  0.00    +0.000 C 
ATOM     17  C   UNL     1     -13.753   4.760   0.137  0.00  0.00    +0.000 C 
ATOM     18  C   UNL     1     -12.778   6.690   1.495  0.00  0.00    +0.000 C 
ATOM     19  C   UNL     1     -12.858   5.211   1.248  0.00  0.00    +0.000 C 
ATOM     20  C   UNL     1     -11.675   7.217   2.301  0.00  0.00    +0.000 C 
ATOM     21  C   UNL     1      -9.773   6.263   3.408  0.00  0.00    +0.000 C 
ATOM     22  C   UNL     1     -11.038   6.544   3.410  0.00  0.00    +0.000 C 
ATOM     23  C   UNL     1      -7.457   7.116   3.340  0.00  0.00    +0.000 C 
ATOM     24  C   UNL     1     -13.226   4.944  -1.287  0.00  0.00    +0.000 C 
ATOM     25  C   UNL     1     -13.880   7.623   1.005  0.00  0.00    +0.000 C 
ATOM     26  C   UNL     1     -11.833   5.971   4.556  0.00  0.00    +0.000 C 
ENDROOT
BRANCH   9  27
ATOM     27  O   UNL     1      -7.967   0.983   2.416  0.00  0.00    +0.000 OA
ATOM     28  H   UNL     1      -7.649   0.079   2.237  0.00  0.00    +0.000 HD
ENDBRANCH   9  27
BRANCH  10  29
ATOM     29  O   UNL     1     -11.052   2.384   3.687  0.00  0.00    +0.000 OA
ATOM     30  H   UNL     1     -11.604   1.942   3.015  0.00  0.00    +0.000 HD
ENDBRANCH  10  29
BRANCH  14  31
ATOM     31  O   UNL     1     -15.874   1.903  -0.719  0.00  0.00    +0.000 OA
ATOM     32  H   UNL     1     -15.752   1.531  -1.618  0.00  0.00    +0.000 HD
ENDBRANCH  14  31
BRANCH  15  33
ATOM     33  O   UNL     1     -15.921   4.054   0.887  0.00  0.00    +0.000 OA
ATOM     34  C   UNL     1     -16.043   3.716   2.243  0.00  0.00    +0.000 C 
ENDBRANCH  15  33
BRANCH  20  35
ATOM     35  O   UNL     1     -11.410   8.612   2.264  0.00  0.00    +0.000 OA
BRANCH  35  37
ATOM     36  O   UNL     1      -9.819   8.322   0.583  0.00  0.00    +0.000 OA
ATOM     37  C   UNL     1     -10.383   8.964   1.448  0.00  0.00    +0.000 C 
ATOM     38  C   UNL     1      -9.839  10.323   1.690  0.00  0.00    +0.000 C 
ENDBRANCH  35  37
ENDBRANCH  20  35
BRANCH   6  39
ATOM     39  C   UNL     1      -9.577  -0.408   0.034  0.00  0.00    +0.000 C 
BRANCH  39  41
ATOM     40  O   UNL     1     -11.239  -2.195  -0.705  0.00  0.00    +0.000 OA
ATOM     41  C   UNL     1      -9.878  -1.803  -0.398  0.00  0.00    +0.000 C 
ATOM     42  C   UNL     1     -10.412  -1.912  -1.752  0.00  0.00    +0.000 C 
ATOM     43  C   UNL     1      -9.188  -2.976   0.379  0.00  0.00    +0.000 C 
BRANCH  42  44
ATOM     44  C   UNL     1     -10.032  -2.972  -2.642  0.00  0.00    +0.000 C 
ATOM     45  C   UNL     1     -10.727  -4.308  -2.565  0.00  0.00    +0.000 C 
BRANCH  44  46
ATOM     46  C   UNL     1      -9.455  -2.640  -3.896  0.00  0.00    +0.000 C 
ATOM     47  C   UNL     1      -8.877  -2.394  -4.918  0.00  0.00    +0.000 C 
ATOM     48  C   UNL     1      -8.014  -2.102  -6.154  0.00  0.00    +0.000 C 
ENDBRANCH  44  46
ENDBRANCH  42  44
ENDBRANCH  39  41
BRANCH  39  49
ATOM     49  O   UNL     1      -8.761   0.423  -0.720  0.00  0.00    +0.000 OA
ATOM     50  H   UNL     1      -8.253   1.050  -0.170  0.00  0.00    +0.000 HD
ENDBRANCH  39  49
ENDBRANCH   6  39
BRANCH   9  51
ATOM     51  C   UNL     1      -8.760   0.260   4.528  0.00  0.00    +0.000 C 
BRANCH  51  52
ATOM     52  O   UNL     1      -8.449  -0.285   5.704  0.00  0.00    +0.000 OA
ATOM     53  H   UNL     1      -7.580   0.033   6.012  0.00  0.00    +0.000 HD
ENDBRANCH  51  52
ENDBRANCH   9  51
TORSDOF 13
ENDMDL
MODEL 6
REMARK VINA RESULT:      -5.4     19.591     24.652
REMARK  Name = 101808841_CandidaspongiolideA.pdbqt.pdb
REMARK  13 active torsions:
REMARK  status: ('A' for Active; 'I' for Inactive)
REMARK    1  A    between atoms: C_6  and  C_39
REMARK    2  A    between atoms: C_9  and  O_27
REMARK    3  A    between atoms: C_9  and  C_51
REMARK    4  A    between atoms: C_10  and  O_29
REMARK    5  A    between atoms: C_14  and  O_31
REMARK    6  A    between atoms: C_15  and  O_33
REMARK    7  A    between atoms: C_20  and  O_35
REMARK    8  A    between atoms: O_35  and  C_37
REMARK    9  A    between atoms: C_39  and  C_41
REMARK   10  A    between atoms: C_39  and  O_49
REMARK   11  A    between atoms: C_42  and  C_44
REMARK   12  A    between atoms: C_44  and  C_46
REMARK   13  A    between atoms: C_51  and  O_52
REMARK                            x       y       z     vdW  Elec       q    Type
REMARK                         _______ _______ _______ _____ _____    ______ ____
ROOT
ATOM      1  O   UNL     1       2.855   1.251 -20.371  0.00  0.00    +0.000 OA
ATOM      2  O   UNL     1       0.729   0.895 -23.926  0.00  0.00    +0.000 OA
ATOM      3  O   UNL     1       1.028   0.768 -19.047  0.00  0.00    +0.000 OA
ATOM      4  O   UNL     1       5.724   4.895 -25.522  0.00  0.00    +0.000 OA
ATOM      5  O   UNL     1       5.569   1.130 -21.214  0.00  0.00    +0.000 OA
ATOM      6  C   UNL     1       1.317   2.485 -22.291  0.00  0.00    +0.000 C 
ATOM      7  C   UNL     1       1.401   1.895 -23.663  0.00  0.00    +0.000 C 
ATOM      8  C   UNL     1       2.094   1.874 -21.267  0.00  0.00    +0.000 C 
ATOM      9  C   UNL     1       2.423   2.552 -24.631  0.00  0.00    +0.000 C 
ATOM     10  C   UNL     1       3.842   2.156 -24.257  0.00  0.00    +0.000 C 
ATOM     11  C   UNL     1       4.963   3.009 -24.475  0.00  0.00    +0.000 C 
ATOM     12  C   UNL     1       2.208   0.646 -19.346  0.00  0.00    +0.000 C 
ATOM     13  C   UNL     1       6.009   3.979 -24.759  0.00  0.00    +0.000 C 
ATOM     14  C   UNL     1       3.110  -0.270 -18.611  0.00  0.00    +0.000 C 
ATOM     15  C   UNL     1       4.534  -0.393 -18.846  0.00  0.00    +0.000 C 
ATOM     16  C   UNL     1       7.362   3.830 -24.130  0.00  0.00    +0.000 C 
ATOM     17  C   UNL     1       5.505   0.695 -18.876  0.00  0.00    +0.000 C 
ATOM     18  C   UNL     1       7.695   1.140 -20.110  0.00  0.00    +0.000 C 
ATOM     19  C   UNL     1       6.204   0.978 -20.168  0.00  0.00    +0.000 C 
ATOM     20  C   UNL     1       8.386   1.764 -21.240  0.00  0.00    +0.000 C 
ATOM     21  C   UNL     1       7.706   2.707 -23.337  0.00  0.00    +0.000 C 
ATOM     22  C   UNL     1       8.003   1.663 -22.630  0.00  0.00    +0.000 C 
ATOM     23  C   UNL     1       8.469   4.850 -24.298  0.00  0.00    +0.000 C 
ATOM     24  C   UNL     1       5.313   1.877 -17.926  0.00  0.00    +0.000 C 
ATOM     25  C   UNL     1       8.495   0.575 -18.942  0.00  0.00    +0.000 C 
ATOM     26  C   UNL     1       7.754   0.332 -23.292  0.00  0.00    +0.000 C 
ENDROOT
BRANCH   9  27
ATOM     27  O   UNL     1       2.312   3.972 -24.533  0.00  0.00    +0.000 OA
ATOM     28  H   UNL     1       2.073   4.178 -23.611  0.00  0.00    +0.000 HD
ENDBRANCH   9  27
BRANCH  10  29
ATOM     29  O   UNL     1       4.049   0.905 -23.711  0.00  0.00    +0.000 OA
ATOM     30  H   UNL     1       3.908   0.867 -22.746  0.00  0.00    +0.000 HD
ENDBRANCH  10  29
BRANCH  14  31
ATOM     31  O   UNL     1       2.566  -1.117 -17.661  0.00  0.00    +0.000 OA
ATOM     32  H   UNL     1       1.699  -1.462 -17.961  0.00  0.00    +0.000 HD
ENDBRANCH  14  31
BRANCH  15  33
ATOM     33  O   UNL     1       5.053  -1.637 -18.529  0.00  0.00    +0.000 OA
ATOM     34  C   UNL     1       5.057  -2.466 -19.660  0.00  0.00    +0.000 C 
ENDBRANCH  15  33
BRANCH  20  35
ATOM     35  O   UNL     1       9.722   2.214 -21.058  0.00  0.00    +0.000 OA
BRANCH  35  37
ATOM     36  O   UNL     1      10.893   0.252 -21.530  0.00  0.00    +0.000 OA
ATOM     37  C   UNL     1      10.659   1.438 -21.662  0.00  0.00    +0.000 C 
ATOM     38  C   UNL     1      11.564   2.168 -22.583  0.00  0.00    +0.000 C 
ENDBRANCH  35  37
ENDBRANCH  20  35
BRANCH   6  39
ATOM     39  C   UNL     1       0.397   3.567 -22.010  0.00  0.00    +0.000 C 
BRANCH  39  41
ATOM     40  O   UNL     1      -2.125   3.730 -21.669  0.00  0.00    +0.000 OA
ATOM     41  C   UNL     1      -0.816   3.362 -21.168  0.00  0.00    +0.000 C 
ATOM     42  C   UNL     1      -1.778   2.412 -21.720  0.00  0.00    +0.000 C 
ATOM     43  C   UNL     1      -0.735   3.761 -19.654  0.00  0.00    +0.000 C 
BRANCH  42  44
ATOM     44  C   UNL     1      -2.489   1.476 -20.896  0.00  0.00    +0.000 C 
ATOM     45  C   UNL     1      -3.973   1.631 -20.683  0.00  0.00    +0.000 C 
BRANCH  44  46
ATOM     46  C   UNL     1      -1.971   0.161 -20.750  0.00  0.00    +0.000 C 
ATOM     47  C   UNL     1      -1.545  -0.937 -20.525  0.00  0.00    +0.000 C 
ATOM     48  C   UNL     1      -0.990  -2.303 -20.098  0.00  0.00    +0.000 C 
ENDBRANCH  44  46
ENDBRANCH  42  44
ENDBRANCH  39  41
BRANCH  39  49
ATOM     49  O   UNL     1       0.889   4.838 -22.273  0.00  0.00    +0.000 OA
ATOM     50  H   UNL     1       0.735   5.459 -21.536  0.00  0.00    +0.000 HD
ENDBRANCH  39  49
ENDBRANCH   6  39
BRANCH   9  51
ATOM     51  C   UNL     1       2.161   2.142 -26.031  0.00  0.00    +0.000 C 
BRANCH  51  52
ATOM     52  O   UNL     1       1.943   1.793 -27.298  0.00  0.00    +0.000 OA
ATOM     53  H   UNL     1       2.296   2.468 -27.907  0.00  0.00    +0.000 HD
ENDBRANCH  51  52
ENDBRANCH   9  51
TORSDOF 13
ENDMDL
MODEL 7
REMARK VINA RESULT:      -5.3     28.416     33.187
REMARK  Name = 101808841_CandidaspongiolideA.pdbqt.pdb
REMARK  13 active torsions:
REMARK  status: ('A' for Active; 'I' for Inactive)
REMARK    1  A    between atoms: C_6  and  C_39
REMARK    2  A    between atoms: C_9  and  O_27
REMARK    3  A    between atoms: C_9  and  C_51
REMARK    4  A    between atoms: C_10  and  O_29
REMARK    5  A    between atoms: C_14  and  O_31
REMARK    6  A    between atoms: C_15  and  O_33
REMARK    7  A    between atoms: C_20  and  O_35
REMARK    8  A    between atoms: O_35  and  C_37
REMARK    9  A    between atoms: C_39  and  C_41
REMARK   10  A    between atoms: C_39  and  O_49
REMARK   11  A    between atoms: C_42  and  C_44
REMARK   12  A    between atoms: C_44  and  C_46
REMARK   13  A    between atoms: C_51  and  O_52
REMARK                            x       y       z     vdW  Elec       q    Type
REMARK                         _______ _______ _______ _____ _____    ______ ____
ROOT
ATOM      1  O   UNL     1      11.792  -6.012  -3.837  0.00  0.00    +0.000 OA
ATOM      2  O   UNL     1      13.897  -4.419  -0.625  0.00  0.00    +0.000 OA
ATOM      3  O   UNL     1       9.776  -6.016  -2.716  0.00  0.00    +0.000 OA
ATOM      4  O   UNL     1      18.529  -7.629  -4.051  0.00  0.00    +0.000 OA
ATOM      5  O   UNL     1      13.552  -5.617  -6.036  0.00  0.00    +0.000 OA
ATOM      6  C   UNL     1      13.232  -6.485  -1.540  0.00  0.00    +0.000 C 
ATOM      7  C   UNL     1      14.257  -5.451  -1.195  0.00  0.00    +0.000 C 
ATOM      8  C   UNL     1      12.462  -6.276  -2.718  0.00  0.00    +0.000 C 
ATOM      9  C   UNL     1      15.705  -5.731  -1.683  0.00  0.00    +0.000 C 
ATOM     10  C   UNL     1      15.818  -5.499  -3.181  0.00  0.00    +0.000 C 
ATOM     11  C   UNL     1      16.722  -6.227  -4.008  0.00  0.00    +0.000 C 
ATOM     12  C   UNL     1      10.460  -5.803  -3.707  0.00  0.00    +0.000 C 
ATOM     13  C   UNL     1      17.691  -7.040  -4.725  0.00  0.00    +0.000 C 
ATOM     14  C   UNL     1       9.890  -5.208  -4.938  0.00  0.00    +0.000 C 
ATOM     15  C   UNL     1      10.616  -5.018  -6.176  0.00  0.00    +0.000 C 
ATOM     16  C   UNL     1      17.638  -7.129  -6.221  0.00  0.00    +0.000 C 
ATOM     17  C   UNL     1      11.375  -6.030  -6.901  0.00  0.00    +0.000 C 
ATOM     18  C   UNL     1      13.446  -6.025  -8.394  0.00  0.00    +0.000 C 
ATOM     19  C   UNL     1      12.855  -5.845  -7.026  0.00  0.00    +0.000 C 
ATOM     20  C   UNL     1      14.892  -6.216  -8.523  0.00  0.00    +0.000 C 
ATOM     21  C   UNL     1      16.731  -6.358  -6.990  0.00  0.00    +0.000 C 
ATOM     22  C   UNL     1      15.904  -5.631  -7.673  0.00  0.00    +0.000 C 
ATOM     23  C   UNL     1      18.547  -8.030  -7.029  0.00  0.00    +0.000 C 
ATOM     24  C   UNL     1      10.860  -7.471  -6.906  0.00  0.00    +0.000 C 
ATOM     25  C   UNL     1      12.576  -5.911  -9.641  0.00  0.00    +0.000 C 
ATOM     26  C   UNL     1      15.948  -4.150  -7.391  0.00  0.00    +0.000 C 
ENDROOT
BRANCH   9  27
ATOM     27  O   UNL     1      16.033  -7.095  -1.413  0.00  0.00    +0.000 OA
ATOM     28  H   UNL     1      15.320  -7.641  -1.793  0.00  0.00    +0.000 HD
ENDBRANCH   9  27
BRANCH  10  29
ATOM     29  O   UNL     1      15.028  -4.521  -3.752  0.00  0.00    +0.000 OA
ATOM     30  H   UNL     1      14.479  -4.839  -4.493  0.00  0.00    +0.000 HD
ENDBRANCH  10  29
BRANCH  14  31
ATOM     31  O   UNL     1       8.586  -4.746  -4.910  0.00  0.00    +0.000 OA
ATOM     32  H   UNL     1       8.226  -4.673  -5.819  0.00  0.00    +0.000 HD
ENDBRANCH  14  31
BRANCH  15  33
ATOM     33  O   UNL     1      10.149  -3.967  -6.948  0.00  0.00    +0.000 OA
ATOM     34  C   UNL     1       9.498  -4.455  -8.092  0.00  0.00    +0.000 C 
ENDBRANCH  15  33
BRANCH  20  35
ATOM     35  O   UNL     1      15.408  -6.707  -9.753  0.00  0.00    +0.000 OA
BRANCH  35  37
ATOM     36  O   UNL     1      15.607  -4.720 -10.958  0.00  0.00    +0.000 OA
ATOM     37  C   UNL     1      16.030  -5.769 -10.512  0.00  0.00    +0.000 C 
ATOM     38  C   UNL     1      17.423  -6.108 -10.894  0.00  0.00    +0.000 C 
ENDBRANCH  35  37
ENDBRANCH  20  35
BRANCH   6  39
ATOM     39  C   UNL     1      12.974  -7.592  -0.643  0.00  0.00    +0.000 C 
BRANCH  39  41
ATOM     40  O   UNL     1      12.269  -9.974  -1.221  0.00  0.00    +0.000 OA
ATOM     41  C   UNL     1      13.317  -8.995  -1.015  0.00  0.00    +0.000 C 
ATOM     42  C   UNL     1      12.829  -9.406  -2.328  0.00  0.00    +0.000 C 
ATOM     43  C   UNL     1      14.499  -9.687  -0.253  0.00  0.00    +0.000 C 
BRANCH  42  44
ATOM     44  C   UNL     1      13.606 -10.228  -3.210  0.00  0.00    +0.000 C 
ATOM     45  C   UNL     1      13.598 -11.727  -3.050  0.00  0.00    +0.000 C 
BRANCH  44  46
ATOM     46  C   UNL     1      13.910  -9.741  -4.510  0.00  0.00    +0.000 C 
ATOM     47  C   UNL     1      14.137  -9.422  -5.644  0.00  0.00    +0.000 C 
ATOM     48  C   UNL     1      14.412  -9.154  -7.130  0.00  0.00    +0.000 C 
ENDBRANCH  44  46
ENDBRANCH  42  44
ENDBRANCH  39  41
BRANCH  39  49
ATOM     49  O   UNL     1      12.721  -7.233   0.673  0.00  0.00    +0.000 OA
ATOM     50  H   UNL     1      13.472  -6.763   1.084  0.00  0.00    +0.000 HD
ENDBRANCH  39  49
ENDBRANCH   6  39
BRANCH   9  51
ATOM     51  C   UNL     1      16.674  -4.854  -0.985  0.00  0.00    +0.000 C 
BRANCH  51  52
ATOM     52  O   UNL     1      17.530  -4.045  -0.361  0.00  0.00    +0.000 OA
ATOM     53  H   UNL     1      17.133  -3.687   0.454  0.00  0.00    +0.000 HD
ENDBRANCH  51  52
ENDBRANCH   9  51
TORSDOF 13
ENDMDL
MODEL 8
REMARK VINA RESULT:      -5.0     23.923     28.678
REMARK  Name = 101808841_CandidaspongiolideA.pdbqt.pdb
REMARK  13 active torsions:
REMARK  status: ('A' for Active; 'I' for Inactive)
REMARK    1  A    between atoms: C_6  and  C_39
REMARK    2  A    between atoms: C_9  and  O_27
REMARK    3  A    between atoms: C_9  and  C_51
REMARK    4  A    between atoms: C_10  and  O_29
REMARK    5  A    between atoms: C_14  and  O_31
REMARK    6  A    between atoms: C_15  and  O_33
REMARK    7  A    between atoms: C_20  and  O_35
REMARK    8  A    between atoms: O_35  and  C_37
REMARK    9  A    between atoms: C_39  and  C_41
REMARK   10  A    between atoms: C_39  and  O_49
REMARK   11  A    between atoms: C_42  and  C_44
REMARK   12  A    between atoms: C_44  and  C_46
REMARK   13  A    between atoms: C_51  and  O_52
REMARK                            x       y       z     vdW  Elec       q    Type
REMARK                         _______ _______ _______ _____ _____    ______ ____
ROOT
ATOM      1  O   UNL     1       7.977   0.285 -19.471  0.00  0.00    +0.000 OA
ATOM      2  O   UNL     1       4.074  -0.737 -18.466  0.00  0.00    +0.000 OA
ATOM      3  O   UNL     1       7.703   2.508 -18.922  0.00  0.00    +0.000 OA
ATOM      4  O   UNL     1       5.792  -5.366 -22.839  0.00  0.00    +0.000 OA
ATOM      5  O   UNL     1       9.305  -2.228 -19.588  0.00  0.00    +0.000 OA
ATOM      6  C   UNL     1       5.363   0.017 -20.288  0.00  0.00    +0.000 C 
ATOM      7  C   UNL     1       4.562  -1.018 -19.563  0.00  0.00    +0.000 C 
ATOM      8  C   UNL     1       6.719   0.190 -19.894  0.00  0.00    +0.000 C 
ATOM      9  C   UNL     1       4.493  -2.421 -20.227  0.00  0.00    +0.000 C 
ATOM     10  C   UNL     1       5.809  -3.160 -20.051  0.00  0.00    +0.000 C 
ATOM     11  C   UNL     1       6.300  -4.099 -21.004  0.00  0.00    +0.000 C 
ATOM     12  C   UNL     1       8.338   1.463 -18.911  0.00  0.00    +0.000 C 
ATOM     13  C   UNL     1       6.673  -5.032 -22.055  0.00  0.00    +0.000 C 
ATOM     14  C   UNL     1       9.632   1.343 -18.199  0.00  0.00    +0.000 C 
ATOM     15  C   UNL     1      10.482   0.170 -18.225  0.00  0.00    +0.000 C 
ATOM     16  C   UNL     1       8.080  -5.542 -22.143  0.00  0.00    +0.000 C 
ATOM     17  C   UNL     1      10.960  -0.529 -19.411  0.00  0.00    +0.000 C 
ATOM     18  C   UNL     1      11.556  -2.945 -19.979  0.00  0.00    +0.000 C 
ATOM     19  C   UNL     1      10.501  -1.936 -19.632  0.00  0.00    +0.000 C 
ATOM     20  C   UNL     1      11.149  -4.230 -20.552  0.00  0.00    +0.000 C 
ATOM     21  C   UNL     1       9.058  -5.230 -21.165  0.00  0.00    +0.000 C 
ATOM     22  C   UNL     1       9.930  -4.945 -20.251  0.00  0.00    +0.000 C 
ATOM     23  C   UNL     1       8.568  -6.435 -23.264  0.00  0.00    +0.000 C 
ATOM     24  C   UNL     1      11.293   0.288 -20.661  0.00  0.00    +0.000 C 
ATOM     25  C   UNL     1      13.022  -2.686 -19.649  0.00  0.00    +0.000 C 
ATOM     26  C   UNL     1       9.514  -5.247 -18.833  0.00  0.00    +0.000 C 
ENDROOT
BRANCH   9  27
ATOM     27  O   UNL     1       4.250  -2.264 -21.625  0.00  0.00    +0.000 OA
ATOM     28  H   UNL     1       4.156  -3.158 -22.001  0.00  0.00    +0.000 HD
ENDBRANCH   9  27
BRANCH  10  29
ATOM     29  O   UNL     1       6.540  -2.927 -18.903  0.00  0.00    +0.000 OA
ATOM     30  H   UNL     1       6.437  -2.025 -18.544  0.00  0.00    +0.000 HD
ENDBRANCH  10  29
BRANCH  14  31
ATOM     31  O   UNL     1      10.053   2.394 -17.404  0.00  0.00    +0.000 OA
ATOM     32  H   UNL     1      10.254   2.081 -16.496  0.00  0.00    +0.000 HD
ENDBRANCH  14  31
BRANCH  15  33
ATOM     33  O   UNL     1      11.271   0.021 -17.096  0.00  0.00    +0.000 OA
ATOM     34  C   UNL     1      11.191  -1.295 -16.617  0.00  0.00    +0.000 C 
ENDBRANCH  15  33
BRANCH  20  35
ATOM     35  O   UNL     1      12.135  -5.040 -21.178  0.00  0.00    +0.000 OA
BRANCH  35  37
ATOM     36  O   UNL     1      12.572  -3.720 -23.051  0.00  0.00    +0.000 OA
ATOM     37  C   UNL     1      12.322  -4.773 -22.496  0.00  0.00    +0.000 C 
ATOM     38  C   UNL     1      12.144  -5.940 -23.394  0.00  0.00    +0.000 C 
ENDBRANCH  35  37
ENDBRANCH  20  35
BRANCH   6  39
ATOM     39  C   UNL     1       4.737   0.873 -21.275  0.00  0.00    +0.000 C 
BRANCH  39  41
ATOM     40  O   UNL     1       5.552   2.504 -23.059  0.00  0.00    +0.000 OA
ATOM     41  C   UNL     1       5.379   1.142 -22.594  0.00  0.00    +0.000 C 
ATOM     42  C   UNL     1       6.636   1.882 -22.512  0.00  0.00    +0.000 C 
ATOM     43  C   UNL     1       4.954   0.253 -23.812  0.00  0.00    +0.000 C 
BRANCH  42  44
ATOM     44  C   UNL     1       7.758   1.579 -23.353  0.00  0.00    +0.000 C 
ATOM     45  C   UNL     1       8.593   2.694 -23.929  0.00  0.00    +0.000 C 
BRANCH  44  46
ATOM     46  C   UNL     1       8.410   0.325 -23.200  0.00  0.00    +0.000 C 
ATOM     47  C   UNL     1       8.908  -0.764 -23.155  0.00  0.00    +0.000 C 
ATOM     48  C   UNL     1       9.447  -2.202 -23.196  0.00  0.00    +0.000 C 
ENDBRANCH  44  46
ENDBRANCH  42  44
ENDBRANCH  39  41
BRANCH  39  49
ATOM     49  O   UNL     1       3.391   1.129 -21.059  0.00  0.00    +0.000 OA
ATOM     50  H   UNL     1       3.156   2.063 -21.226  0.00  0.00    +0.000 HD
ENDBRANCH  39  49
ENDBRANCH   6  39
BRANCH   9  51
ATOM     51  C   UNL     1       3.402  -3.230 -19.635  0.00  0.00    +0.000 C 
BRANCH  51  52
ATOM     52  O   UNL     1       2.435  -3.982 -19.108  0.00  0.00    +0.000 OA
ATOM     53  H   UNL     1       1.583  -3.802 -19.548  0.00  0.00    +0.000 HD
ENDBRANCH  51  52
ENDBRANCH   9  51
TORSDOF 13
ENDMDL
MODEL 9
REMARK VINA RESULT:      -5.0     26.865     31.837
REMARK  Name = 101808841_CandidaspongiolideA.pdbqt.pdb
REMARK  13 active torsions:
REMARK  status: ('A' for Active; 'I' for Inactive)
REMARK    1  A    between atoms: C_6  and  C_39
REMARK    2  A    between atoms: C_9  and  O_27
REMARK    3  A    between atoms: C_9  and  C_51
REMARK    4  A    between atoms: C_10  and  O_29
REMARK    5  A    between atoms: C_14  and  O_31
REMARK    6  A    between atoms: C_15  and  O_33
REMARK    7  A    between atoms: C_20  and  O_35
REMARK    8  A    between atoms: O_35  and  C_37
REMARK    9  A    between atoms: C_39  and  C_41
REMARK   10  A    between atoms: C_39  and  O_49
REMARK   11  A    between atoms: C_42  and  C_44
REMARK   12  A    between atoms: C_44  and  C_46
REMARK   13  A    between atoms: C_51  and  O_52
REMARK                            x       y       z     vdW  Elec       q    Type
REMARK                         _______ _______ _______ _____ _____    ______ ____
ROOT
ATOM      1  O   UNL     1      12.532   0.896 -21.995  0.00  0.00    +0.000 OA
ATOM      2  O   UNL     1      12.080   1.557 -17.916  0.00  0.00    +0.000 OA
ATOM      3  O   UNL     1      12.671   3.142 -22.503  0.00  0.00    +0.000 OA
ATOM      4  O   UNL     1       9.268  -4.338 -18.832  0.00  0.00    +0.000 OA
ATOM      5  O   UNL     1      13.226  -1.859 -22.142  0.00  0.00    +0.000 OA
ATOM      6  C   UNL     1      10.815   1.333 -19.889  0.00  0.00    +0.000 C 
ATOM      7  C   UNL     1      11.294   0.855 -18.555  0.00  0.00    +0.000 C 
ATOM      8  C   UNL     1      11.675   1.130 -21.005  0.00  0.00    +0.000 C 
ATOM      9  C   UNL     1      10.823  -0.561 -18.124  0.00  0.00    +0.000 C 
ATOM     10  C   UNL     1      11.574  -1.632 -18.898  0.00  0.00    +0.000 C 
ATOM     11  C   UNL     1      10.997  -2.894 -19.227  0.00  0.00    +0.000 C 
ATOM     12  C   UNL     1      13.046   1.983 -22.618  0.00  0.00    +0.000 C 
ATOM     13  C   UNL     1      10.285  -4.134 -19.487  0.00  0.00    +0.000 C 
ATOM     14  C   UNL     1      14.207   1.617 -23.461  0.00  0.00    +0.000 C 
ATOM     15  C   UNL     1      14.645   0.261 -23.719  0.00  0.00    +0.000 C 
ATOM     16  C   UNL     1      10.802  -5.097 -20.513  0.00  0.00    +0.000 C 
ATOM     17  C   UNL     1      13.822  -0.839 -24.206  0.00  0.00    +0.000 C 
ATOM     18  C   UNL     1      13.811  -3.373 -23.902  0.00  0.00    +0.000 C 
ATOM     19  C   UNL     1      13.609  -2.012 -23.303  0.00  0.00    +0.000 C 
ATOM     20  C   UNL     1      13.280  -4.545 -23.201  0.00  0.00    +0.000 C 
ATOM     21  C   UNL     1      12.035  -4.896 -21.182  0.00  0.00    +0.000 C 
ATOM     22  C   UNL     1      13.174  -4.699 -21.768  0.00  0.00    +0.000 C 
ATOM     23  C   UNL     1      10.065  -6.359 -20.909  0.00  0.00    +0.000 C 
ATOM     24  C   UNL     1      12.709  -0.534 -25.210  0.00  0.00    +0.000 C 
ATOM     25  C   UNL     1      14.644  -3.553 -25.167  0.00  0.00    +0.000 C 
ATOM     26  C   UNL     1      14.349  -4.467 -20.853  0.00  0.00    +0.000 C 
ENDROOT
BRANCH   9  27
ATOM     27  O   UNL     1       9.430  -0.696 -18.407  0.00  0.00    +0.000 OA
ATOM     28  H   UNL     1       9.313  -1.545 -18.870  0.00  0.00    +0.000 HD
ENDBRANCH   9  27
BRANCH  10  29
ATOM     29  O   UNL     1      12.878  -1.375 -19.270  0.00  0.00    +0.000 OA
ATOM     30  H   UNL     1      13.074  -1.591 -20.202  0.00  0.00    +0.000 HD
ENDBRANCH  10  29
BRANCH  14  31
ATOM     31  O   UNL     1      14.975   2.629 -24.011  0.00  0.00    +0.000 OA
ATOM     32  H   UNL     1      14.791   3.483 -23.566  0.00  0.00    +0.000 HD
ENDBRANCH  14  31
BRANCH  15  33
ATOM     33  O   UNL     1      15.999   0.148 -23.990  0.00  0.00    +0.000 OA
ATOM     34  C   UNL     1      16.611  -0.709 -23.063  0.00  0.00    +0.000 C 
ENDBRANCH  15  33
BRANCH  20  35
ATOM     35  O   UNL     1      13.178  -5.773 -23.907  0.00  0.00    +0.000 OA
BRANCH  35  37
ATOM     36  O   UNL     1      11.360  -5.227 -25.263  0.00  0.00    +0.000 OA
ATOM     37  C   UNL     1      11.984  -5.964 -24.525  0.00  0.00    +0.000 C 
ATOM     38  C   UNL     1      11.321  -7.252 -24.203  0.00  0.00    +0.000 C 
ENDBRANCH  35  37
ENDBRANCH  20  35
BRANCH   6  39
ATOM     39  C   UNL     1       9.571   2.066 -20.005  0.00  0.00    +0.000 C 
BRANCH  39  41
ATOM     40  O   UNL     1       8.013   2.810 -21.882  0.00  0.00    +0.000 OA
ATOM     41  C   UNL     1       8.575   1.750 -21.068  0.00  0.00    +0.000 C 
ATOM     42  C   UNL     1       9.020   2.066 -22.423  0.00  0.00    +0.000 C 
ATOM     43  C   UNL     1       7.435   0.731 -20.726  0.00  0.00    +0.000 C 
BRANCH  42  44
ATOM     44  C   UNL     1       8.729   1.215 -23.542  0.00  0.00    +0.000 C 
ATOM     45  C   UNL     1       8.436   1.817 -24.893  0.00  0.00    +0.000 C 
BRANCH  44  46
ATOM     46  C   UNL     1       9.242  -0.110 -23.546  0.00  0.00    +0.000 C 
ATOM     47  C   UNL     1       9.601  -1.252 -23.481  0.00  0.00    +0.000 C 
ATOM     48  C   UNL     1       9.975  -2.728 -23.281  0.00  0.00    +0.000 C 
ENDBRANCH  44  46
ENDBRANCH  42  44
ENDBRANCH  39  41
BRANCH  39  49
ATOM     49  O   UNL     1       9.226   2.814 -18.889  0.00  0.00    +0.000 OA
ATOM     50  H   UNL     1       9.129   3.765 -19.090  0.00  0.00    +0.000 HD
ENDBRANCH  39  49
ENDBRANCH   6  39
BRANCH   9  51
ATOM     51  C   UNL     1      11.043  -0.771 -16.674  0.00  0.00    +0.000 C 
BRANCH  51  52
ATOM     52  O   UNL     1      11.251  -0.934 -15.367  0.00  0.00    +0.000 OA
ATOM     53  H   UNL     1      10.405  -1.036 -14.894  0.00  0.00    +0.000 HD
ENDBRANCH  51  52
ENDBRANCH   9  51
TORSDOF 13
ENDMDL
