MODEL 1
REMARK VINA RESULT:      -5.6      0.000      0.000
REMARK  Name = 102471178_CandidaspongiolideCore.pdbqt.pdb
REMARK  13 active torsions:
REMARK  status: ('A' for Active; 'I' for Inactive)
REMARK    1  A    between atoms: C_6  and  C_39
REMARK    2  A    between atoms: C_8  and  O_27
REMARK    3  A    between atoms: C_8  and  C_51
REMARK    4  A    between atoms: C_10  and  O_29
REMARK    5  A    between atoms: C_15  and  O_31
REMARK    6  A    between atoms: C_16  and  O_33
REMARK    7  A    between atoms: C_21  and  O_35
REMARK    8  A    between atoms: O_35  and  C_37
REMARK    9  A    between atoms: C_39  and  C_41
REMARK   10  A    between atoms: C_39  and  O_49
REMARK   11  A    between atoms: C_42  and  C_44
REMARK   12  A    between atoms: C_44  and  C_46
REMARK   13  A    between atoms: C_51  and  O_52
REMARK                            x       y       z     vdW  Elec       q    Type
REMARK                         _______ _______ _______ _____ _____    ______ ____
ROOT
ATOM      1  O   UNL     1       1.427   0.690 -18.910  0.00  0.00    +0.000 OA
ATOM      2  O   UNL     1       2.277  -0.560 -20.639  0.00  0.00    +0.000 OA
ATOM      3  O   UNL     1       2.182  -3.861 -24.318  0.00  0.00    +0.000 OA
ATOM      4  O   UNL     1       2.222   2.740 -19.424  0.00  0.00    +0.000 OA
ATOM      5  O   UNL     1       4.987   1.458 -21.185  0.00  0.00    +0.000 OA
ATOM      6  C   UNL     1       0.173  -1.119 -19.636  0.00  0.00    +0.000 C 
ATOM      7  C   UNL     1       0.137  -2.508 -19.941  0.00  0.00    +0.000 C 
ATOM      8  C   UNL     1       0.010  -3.957 -20.117  0.00  0.00    +0.000 C 
ATOM      9  C   UNL     1       1.410  -0.314 -19.811  0.00  0.00    +0.000 C 
ATOM     10  C   UNL     1      -0.120  -4.347 -21.573  0.00  0.00    +0.000 C 
ATOM     11  C   UNL     1       0.635  -3.771 -22.630  0.00  0.00    +0.000 C 
ATOM     12  C   UNL     1       1.455  -3.141 -23.642  0.00  0.00    +0.000 C 
ATOM     13  C   UNL     1       2.420   1.586 -19.061  0.00  0.00    +0.000 C 
ATOM     14  C   UNL     1       1.441  -1.656 -23.813  0.00  0.00    +0.000 C 
ATOM     15  C   UNL     1       3.727   1.215 -18.465  0.00  0.00    +0.000 C 
ATOM     16  C   UNL     1       4.379  -0.066 -18.646  0.00  0.00    +0.000 C 
ATOM     17  C   UNL     1       5.288  -0.410 -19.732  0.00  0.00    +0.000 C 
ATOM     18  C   UNL     1       2.613  -0.991 -24.247  0.00  0.00    +0.000 C 
ATOM     19  C   UNL     1       4.959  -0.657 -22.262  0.00  0.00    +0.000 C 
ATOM     20  C   UNL     1       0.318  -0.785 -23.268  0.00  0.00    +0.000 C 
ATOM     21  C   UNL     1       4.709  -0.026 -23.553  0.00  0.00    +0.000 C 
ATOM     22  C   UNL     1       5.096   0.236 -21.066  0.00  0.00    +0.000 C 
ATOM     23  C   UNL     1       3.743  -0.435 -24.563  0.00  0.00    +0.000 C 
ATOM     24  C   UNL     1       6.592  -1.156 -19.467  0.00  0.00    +0.000 C 
ATOM     25  C   UNL     1       4.778  -2.163 -22.127  0.00  0.00    +0.000 C 
ATOM     26  C   UNL     1       3.971  -0.194 -26.033  0.00  0.00    +0.000 C 
ENDROOT
BRANCH   8  27
ATOM     27  O   UNL     1      -1.192  -4.326 -19.437  0.00  0.00    +0.000 OA
ATOM     28  H   UNL     1      -1.400  -5.219 -19.780  0.00  0.00    +0.000 HD
ENDBRANCH   8  27
BRANCH  10  29
ATOM     29  O   UNL     1      -1.004  -5.372 -21.872  0.00  0.00    +0.000 OA
ATOM     30  H   UNL     1      -1.805  -5.048 -22.324  0.00  0.00    +0.000 HD
ENDBRANCH  10  29
BRANCH  15  31
ATOM     31  O   UNL     1       4.599   2.240 -18.133  0.00  0.00    +0.000 OA
ATOM     32  H   UNL     1       4.100   3.029 -17.829  0.00  0.00    +0.000 HD
ENDBRANCH  15  31
BRANCH  16  33
ATOM     33  O   UNL     1       4.541  -0.812 -17.492  0.00  0.00    +0.000 OA
ATOM     34  C   UNL     1       3.601  -1.857 -17.479  0.00  0.00    +0.000 C 
ENDBRANCH  16  33
BRANCH  21  35
ATOM     35  O   UNL     1       5.638   0.988 -23.899  0.00  0.00    +0.000 OA
BRANCH  35  37
ATOM     36  O   UNL     1       7.294  -0.383 -24.821  0.00  0.00    +0.000 OA
ATOM     37  C   UNL     1       6.898   0.509 -24.093  0.00  0.00    +0.000 C 
ATOM     38  C   UNL     1       7.952   1.215 -23.319  0.00  0.00    +0.000 C 
ENDBRANCH  35  37
ENDBRANCH  21  35
BRANCH   6  39
ATOM     39  C   UNL     1      -1.066  -0.495 -19.231  0.00  0.00    +0.000 C 
BRANCH  39  41
ATOM     40  O   UNL     1      -2.661   1.422 -19.767  0.00  0.00    +0.000 OA
ATOM     41  C   UNL     1      -1.859   0.302 -20.209  0.00  0.00    +0.000 C 
ATOM     42  C   UNL     1      -1.420   1.693 -20.271  0.00  0.00    +0.000 C 
ATOM     43  C   UNL     1      -2.598  -0.440 -21.379  0.00  0.00    +0.000 C 
BRANCH  42  44
ATOM     44  C   UNL     1      -1.352   2.469 -21.472  0.00  0.00    +0.000 C 
ATOM     45  C   UNL     1      -2.430   3.482 -21.784  0.00  0.00    +0.000 C 
BRANCH  44  46
ATOM     46  C   UNL     1      -0.115   2.659 -22.138  0.00  0.00    +0.000 C 
ATOM     47  C   UNL     1       0.935   2.770 -22.707  0.00  0.00    +0.000 C 
ATOM     48  C   UNL     1       2.275   2.843 -23.451  0.00  0.00    +0.000 C 
ENDBRANCH  44  46
ENDBRANCH  42  44
ENDBRANCH  39  41
BRANCH  39  49
ATOM     49  O   UNL     1      -1.426  -0.620 -17.899  0.00  0.00    +0.000 OA
ATOM     50  H   UNL     1      -1.410   0.217 -17.396  0.00  0.00    +0.000 HD
ENDBRANCH  39  49
ENDBRANCH   6  39
BRANCH   8  51
ATOM     51  C   UNL     1       1.122  -4.689 -19.488  0.00  0.00    +0.000 C 
BRANCH  51  52
ATOM     52  O   UNL     1       2.101  -5.383 -18.906  0.00  0.00    +0.000 OA
ATOM     53  H   UNL     1       2.807  -5.599 -19.549  0.00  0.00    +0.000 HD
ENDBRANCH  51  52
ENDBRANCH   8  51
TORSDOF 13
ENDMDL
MODEL 2
REMARK VINA RESULT:      -5.4      3.319      8.314
REMARK  Name = 102471178_CandidaspongiolideCore.pdbqt.pdb
REMARK  13 active torsions:
REMARK  status: ('A' for Active; 'I' for Inactive)
REMARK    1  A    between atoms: C_6  and  C_39
REMARK    2  A    between atoms: C_8  and  O_27
REMARK    3  A    between atoms: C_8  and  C_51
REMARK    4  A    between atoms: C_10  and  O_29
REMARK    5  A    between atoms: C_15  and  O_31
REMARK    6  A    between atoms: C_16  and  O_33
REMARK    7  A    between atoms: C_21  and  O_35
REMARK    8  A    between atoms: O_35  and  C_37
REMARK    9  A    between atoms: C_39  and  C_41
REMARK   10  A    between atoms: C_39  and  O_49
REMARK   11  A    between atoms: C_42  and  C_44
REMARK   12  A    between atoms: C_44  and  C_46
REMARK   13  A    between atoms: C_51  and  O_52
REMARK                            x       y       z     vdW  Elec       q    Type
REMARK                         _______ _______ _______ _____ _____    ______ ____
ROOT
ATOM      1  O   UNL     1      -1.778  -2.233 -18.739  0.00  0.00    +0.000 OA
ATOM      2  O   UNL     1      -2.460  -2.289 -20.932  0.00  0.00    +0.000 OA
ATOM      3  O   UNL     1      -1.916  -2.390 -25.845  0.00  0.00    +0.000 OA
ATOM      4  O   UNL     1      -3.070  -3.853 -17.841  0.00  0.00    +0.000 OA
ATOM      5  O   UNL     1      -5.602  -3.465 -20.255  0.00  0.00    +0.000 OA
ATOM      6  C   UNL     1      -0.204  -1.711 -20.359  0.00  0.00    +0.000 C 
ATOM      7  C   UNL     1       0.127  -0.930 -21.501  0.00  0.00    +0.000 C 
ATOM      8  C   UNL     1       0.573  -0.042 -22.578  0.00  0.00    +0.000 C 
ATOM      9  C   UNL     1      -1.605  -2.117 -20.072  0.00  0.00    +0.000 C 
ATOM     10  C   UNL     1       0.664  -0.758 -23.908  0.00  0.00    +0.000 C 
ATOM     11  C   UNL     1      -0.293  -1.694 -24.384  0.00  0.00    +0.000 C 
ATOM     12  C   UNL     1      -1.322  -2.624 -24.798  0.00  0.00    +0.000 C 
ATOM     13  C   UNL     1      -2.962  -2.744 -18.351  0.00  0.00    +0.000 C 
ATOM     14  C   UNL     1      -1.668  -3.800 -23.943  0.00  0.00    +0.000 C 
ATOM     15  C   UNL     1      -4.090  -1.783 -18.274  0.00  0.00    +0.000 C 
ATOM     16  C   UNL     1      -4.439  -0.838 -19.315  0.00  0.00    +0.000 C 
ATOM     17  C   UNL     1      -5.333  -1.102 -20.435  0.00  0.00    +0.000 C 
ATOM     18  C   UNL     1      -2.996  -4.291 -23.935  0.00  0.00    +0.000 C 
ATOM     19  C   UNL     1      -5.175  -2.675 -22.453  0.00  0.00    +0.000 C 
ATOM     20  C   UNL     1      -0.736  -4.320 -22.857  0.00  0.00    +0.000 C 
ATOM     21  C   UNL     1      -5.191  -4.038 -22.974  0.00  0.00    +0.000 C 
ATOM     22  C   UNL     1      -5.412  -2.489 -20.985  0.00  0.00    +0.000 C 
ATOM     23  C   UNL     1      -4.247  -4.636 -23.907  0.00  0.00    +0.000 C 
ATOM     24  C   UNL     1      -6.399  -0.093 -20.851  0.00  0.00    +0.000 C 
ATOM     25  C   UNL     1      -4.638  -1.553 -23.331  0.00  0.00    +0.000 C 
ATOM     26  C   UNL     1      -4.652  -5.728 -24.863  0.00  0.00    +0.000 C 
ENDROOT
BRANCH   8  27
ATOM     27  O   UNL     1       1.882   0.393 -22.204  0.00  0.00    +0.000 OA
ATOM     28  H   UNL     1       1.861   0.409 -21.226  0.00  0.00    +0.000 HD
ENDBRANCH   8  27
BRANCH  10  29
ATOM     29  O   UNL     1       1.733  -0.428 -24.726  0.00  0.00    +0.000 OA
ATOM     30  H   UNL     1       1.591   0.414 -25.198  0.00  0.00    +0.000 HD
ENDBRANCH  10  29
BRANCH  15  31
ATOM     31  O   UNL     1      -5.145  -2.094 -17.430  0.00  0.00    +0.000 OA
ATOM     32  H   UNL     1      -5.525  -2.967 -17.664  0.00  0.00    +0.000 HD
ENDBRANCH  15  31
BRANCH  16  33
ATOM     33  O   UNL     1      -4.323   0.495 -18.964  0.00  0.00    +0.000 OA
ATOM     34  C   UNL     1      -3.129   1.014 -19.497  0.00  0.00    +0.000 C 
ENDBRANCH  16  33
BRANCH  21  35
ATOM     35  O   UNL     1      -6.358  -4.775 -22.648  0.00  0.00    +0.000 OA
BRANCH  35  37
ATOM     36  O   UNL     1      -7.717  -3.976 -24.375  0.00  0.00    +0.000 OA
ATOM     37  C   UNL     1      -7.485  -4.264 -23.215  0.00  0.00    +0.000 C 
ATOM     38  C   UNL     1      -8.615  -4.065 -22.271  0.00  0.00    +0.000 C 
ENDBRANCH  35  37
ENDBRANCH  21  35
BRANCH   6  39
ATOM     39  C   UNL     1       0.885  -2.175 -19.530  0.00  0.00    +0.000 C 
BRANCH  39  41
ATOM     40  O   UNL     1       2.070   0.082 -19.445  0.00  0.00    +0.000 OA
ATOM     41  C   UNL     1       2.127  -1.363 -19.402  0.00  0.00    +0.000 C 
ATOM     42  C   UNL     1       2.110  -0.512 -18.215  0.00  0.00    +0.000 C 
ATOM     43  C   UNL     1       3.439  -1.855 -20.113  0.00  0.00    +0.000 C 
BRANCH  42  44
ATOM     44  C   UNL     1       3.250  -0.245 -17.392  0.00  0.00    +0.000 C 
ATOM     45  C   UNL     1       3.612  -1.187 -16.267  0.00  0.00    +0.000 C 
BRANCH  44  46
ATOM     46  C   UNL     1       4.298   0.588 -17.861  0.00  0.00    +0.000 C 
ATOM     47  C   UNL     1       5.154   1.332 -18.250  0.00  0.00    +0.000 C 
ATOM     48  C   UNL     1       6.210   2.338 -18.725  0.00  0.00    +0.000 C 
ENDBRANCH  44  46
ENDBRANCH  42  44
ENDBRANCH  39  41
BRANCH  39  49
ATOM     49  O   UNL     1       0.737  -3.417 -18.937  0.00  0.00    +0.000 OA
ATOM     50  H   UNL     1      -0.161  -3.794 -19.007  0.00  0.00    +0.000 HD
ENDBRANCH  39  49
ENDBRANCH   6  39
BRANCH   8  51
ATOM     51  C   UNL     1      -0.280   1.152 -22.696  0.00  0.00    +0.000 C 
BRANCH  51  52
ATOM     52  O   UNL     1      -1.077   2.213 -22.832  0.00  0.00    +0.000 OA
ATOM     53  H   UNL     1      -1.781   2.211 -22.152  0.00  0.00    +0.000 HD
ENDBRANCH  51  52
ENDBRANCH   8  51
TORSDOF 13
ENDMDL
MODEL 3
REMARK VINA RESULT:      -5.2      2.538      6.991
REMARK  Name = 102471178_CandidaspongiolideCore.pdbqt.pdb
REMARK  13 active torsions:
REMARK  status: ('A' for Active; 'I' for Inactive)
REMARK    1  A    between atoms: C_6  and  C_39
REMARK    2  A    between atoms: C_8  and  O_27
REMARK    3  A    between atoms: C_8  and  C_51
REMARK    4  A    between atoms: C_10  and  O_29
REMARK    5  A    between atoms: C_15  and  O_31
REMARK    6  A    between atoms: C_16  and  O_33
REMARK    7  A    between atoms: C_21  and  O_35
REMARK    8  A    between atoms: O_35  and  C_37
REMARK    9  A    between atoms: C_39  and  C_41
REMARK   10  A    between atoms: C_39  and  O_49
REMARK   11  A    between atoms: C_42  and  C_44
REMARK   12  A    between atoms: C_44  and  C_46
REMARK   13  A    between atoms: C_51  and  O_52
REMARK                            x       y       z     vdW  Elec       q    Type
REMARK                         _______ _______ _______ _____ _____    ______ ____
ROOT
ATOM      1  O   UNL     1       4.824  -3.290 -20.935  0.00  0.00    +0.000 OA
ATOM      2  O   UNL     1       3.091  -2.190 -21.966  0.00  0.00    +0.000 OA
ATOM      3  O   UNL     1       0.248   1.676 -23.154  0.00  0.00    +0.000 OA
ATOM      4  O   UNL     1       5.670  -4.479 -22.659  0.00  0.00    +0.000 OA
ATOM      5  O   UNL     1       2.601  -4.564 -24.381  0.00  0.00    +0.000 OA
ATOM      6  C   UNL     1       4.280  -1.181 -20.143  0.00  0.00    +0.000 C 
ATOM      7  C   UNL     1       3.266  -0.303 -19.669  0.00  0.00    +0.000 C 
ATOM      8  C   UNL     1       2.290   0.584 -19.029  0.00  0.00    +0.000 C 
ATOM      9  C   UNL     1       3.984  -2.253 -21.130  0.00  0.00    +0.000 C 
ATOM     10  C   UNL     1       1.883   1.730 -19.930  0.00  0.00    +0.000 C 
ATOM     11  C   UNL     1       1.621   1.605 -21.321  0.00  0.00    +0.000 C 
ATOM     12  C   UNL     1       1.360   1.385 -22.728  0.00  0.00    +0.000 C 
ATOM     13  C   UNL     1       4.764  -4.266 -21.861  0.00  0.00    +0.000 C 
ATOM     14  C   UNL     1       2.406   0.779 -23.607  0.00  0.00    +0.000 C 
ATOM     15  C   UNL     1       3.694  -5.276 -21.672  0.00  0.00    +0.000 C 
ATOM     16  C   UNL     1       2.307  -4.964 -21.399  0.00  0.00    +0.000 C 
ATOM     17  C   UNL     1       1.278  -4.725 -22.403  0.00  0.00    +0.000 C 
ATOM     18  C   UNL     1       2.015  -0.029 -24.703  0.00  0.00    +0.000 C 
ATOM     19  C   UNL     1       0.947  -2.877 -24.148  0.00  0.00    +0.000 C 
ATOM     20  C   UNL     1       3.877   0.746 -23.218  0.00  0.00    +0.000 C 
ATOM     21  C   UNL     1       1.377  -2.248 -25.393  0.00  0.00    +0.000 C 
ATOM     22  C   UNL     1       1.671  -4.114 -23.709  0.00  0.00    +0.000 C 
ATOM     23  C   UNL     1       1.594  -0.828 -25.634  0.00  0.00    +0.000 C 
ATOM     24  C   UNL     1      -0.107  -5.354 -22.283  0.00  0.00    +0.000 C 
ATOM     25  C   UNL     1       0.015  -2.115 -23.217  0.00  0.00    +0.000 C 
ATOM     26  C   UNL     1       1.391  -0.208 -26.993  0.00  0.00    +0.000 C 
ENDROOT
BRANCH   8  27
ATOM     27  O   UNL     1       2.950   1.120 -17.880  0.00  0.00    +0.000 OA
ATOM     28  H   UNL     1       2.501   0.693 -17.123  0.00  0.00    +0.000 HD
ENDBRANCH   8  27
BRANCH  10  29
ATOM     29  O   UNL     1       1.710   2.968 -19.332  0.00  0.00    +0.000 OA
ATOM     30  H   UNL     1       0.838   3.051 -18.903  0.00  0.00    +0.000 HD
ENDBRANCH  10  29
BRANCH  15  31
ATOM     31  O   UNL     1       3.881  -6.527 -22.240  0.00  0.00    +0.000 OA
ATOM     32  H   UNL     1       3.058  -6.831 -22.678  0.00  0.00    +0.000 HD
ENDBRANCH  15  31
BRANCH  16  33
ATOM     33  O   UNL     1       1.835  -5.399 -20.173  0.00  0.00    +0.000 OA
ATOM     34  C   UNL     1       1.730  -4.302 -19.300  0.00  0.00    +0.000 C 
ENDBRANCH  16  33
BRANCH  21  35
ATOM     35  O   UNL     1       1.415  -3.122 -26.508  0.00  0.00    +0.000 OA
BRANCH  35  37
ATOM     36  O   UNL     1      -0.839  -2.966 -27.114  0.00  0.00    +0.000 OA
ATOM     37  C   UNL     1       0.183  -3.580 -26.867  0.00  0.00    +0.000 C 
ATOM     38  C   UNL     1       0.091  -5.056 -27.011  0.00  0.00    +0.000 C 
ENDBRANCH  35  37
ENDBRANCH  21  35
BRANCH   6  39
ATOM     39  C   UNL     1       5.633  -0.936 -19.699  0.00  0.00    +0.000 C 
BRANCH  39  41
ATOM     40  O   UNL     1       5.680   1.608 -19.539  0.00  0.00    +0.000 OA
ATOM     41  C   UNL     1       6.289   0.372 -19.978  0.00  0.00    +0.000 C 
ATOM     42  C   UNL     1       6.662   1.074 -18.753  0.00  0.00    +0.000 C 
ATOM     43  C   UNL     1       6.985   0.597 -21.368  0.00  0.00    +0.000 C 
BRANCH  42  44
ATOM     44  C   UNL     1       7.862   1.836 -18.589  0.00  0.00    +0.000 C 
ATOM     45  C   UNL     1       7.873   3.314 -18.908  0.00  0.00    +0.000 C 
BRANCH  44  46
ATOM     46  C   UNL     1       8.891   1.384 -17.725  0.00  0.00    +0.000 C 
ATOM     47  C   UNL     1       9.775   0.968 -17.029  0.00  0.00    +0.000 C 
ATOM     48  C   UNL     1      10.931   0.400 -16.195  0.00  0.00    +0.000 C 
ENDBRANCH  44  46
ENDBRANCH  42  44
ENDBRANCH  39  41
BRANCH  39  49
ATOM     49  O   UNL     1       6.289  -1.987 -19.078  0.00  0.00    +0.000 OA
ATOM     50  H   UNL     1       5.713  -2.738 -18.841  0.00  0.00    +0.000 HD
ENDBRANCH  39  49
ENDBRANCH   6  39
BRANCH   8  51
ATOM     51  C   UNL     1       1.102  -0.148 -18.562  0.00  0.00    +0.000 C 
BRANCH  51  52
ATOM     52  O   UNL     1       0.017  -0.824 -18.181  0.00  0.00    +0.000 OA
ATOM     53  H   UNL     1      -0.518  -0.300 -17.551  0.00  0.00    +0.000 HD
ENDBRANCH  51  52
ENDBRANCH   8  51
TORSDOF 13
ENDMDL
MODEL 4
REMARK VINA RESULT:      -5.2      1.871      3.178
REMARK  Name = 102471178_CandidaspongiolideCore.pdbqt.pdb
REMARK  13 active torsions:
REMARK  status: ('A' for Active; 'I' for Inactive)
REMARK    1  A    between atoms: C_6  and  C_39
REMARK    2  A    between atoms: C_8  and  O_27
REMARK    3  A    between atoms: C_8  and  C_51
REMARK    4  A    between atoms: C_10  and  O_29
REMARK    5  A    between atoms: C_15  and  O_31
REMARK    6  A    between atoms: C_16  and  O_33
REMARK    7  A    between atoms: C_21  and  O_35
REMARK    8  A    between atoms: O_35  and  C_37
REMARK    9  A    between atoms: C_39  and  C_41
REMARK   10  A    between atoms: C_39  and  O_49
REMARK   11  A    between atoms: C_42  and  C_44
REMARK   12  A    between atoms: C_44  and  C_46
REMARK   13  A    between atoms: C_51  and  O_52
REMARK                            x       y       z     vdW  Elec       q    Type
REMARK                         _______ _______ _______ _____ _____    ______ ____
ROOT
ATOM      1  O   UNL     1       1.799  -0.025 -19.080  0.00  0.00    +0.000 OA
ATOM      2  O   UNL     1       2.334  -0.908 -21.131  0.00  0.00    +0.000 OA
ATOM      3  O   UNL     1       1.672  -3.629 -25.205  0.00  0.00    +0.000 OA
ATOM      4  O   UNL     1       2.298   2.154 -19.400  0.00  0.00    +0.000 OA
ATOM      5  O   UNL     1       4.689   1.457 -21.888  0.00  0.00    +0.000 OA
ATOM      6  C   UNL     1       0.557  -1.838 -19.817  0.00  0.00    +0.000 C 
ATOM      7  C   UNL     1       0.561  -3.163 -20.334  0.00  0.00    +0.000 C 
ATOM      8  C   UNL     1       0.510  -4.576 -20.718  0.00  0.00    +0.000 C 
ATOM      9  C   UNL     1       1.657  -0.883 -20.111  0.00  0.00    +0.000 C 
ATOM     10  C   UNL     1       0.087  -4.762 -22.159  0.00  0.00    +0.000 C 
ATOM     11  C   UNL     1       0.539  -3.958 -23.240  0.00  0.00    +0.000 C 
ATOM     12  C   UNL     1       1.061  -3.100 -24.282  0.00  0.00    +0.000 C 
ATOM     13  C   UNL     1       2.661   0.989 -19.283  0.00  0.00    +0.000 C 
ATOM     14  C   UNL     1       0.894  -1.618 -24.197  0.00  0.00    +0.000 C 
ATOM     15  C   UNL     1       4.093   0.683 -19.044  0.00  0.00    +0.000 C 
ATOM     16  C   UNL     1       4.784  -0.478 -19.567  0.00  0.00    +0.000 C 
ATOM     17  C   UNL     1       5.450  -0.557 -20.861  0.00  0.00    +0.000 C 
ATOM     18  C   UNL     1       1.885  -0.770 -24.750  0.00  0.00    +0.000 C 
ATOM     19  C   UNL     1       4.583  -0.469 -23.272  0.00  0.00    +0.000 C 
ATOM     20  C   UNL     1      -0.142  -0.965 -23.292  0.00  0.00    +0.000 C 
ATOM     21  C   UNL     1       4.002   0.312 -24.358  0.00  0.00    +0.000 C 
ATOM     22  C   UNL     1       4.916   0.250 -22.000  0.00  0.00    +0.000 C 
ATOM     23  C   UNL     1       2.869  -0.052 -25.198  0.00  0.00    +0.000 C 
ATOM     24  C   UNL     1       6.834  -1.183 -21.002  0.00  0.00    +0.000 C 
ATOM     25  C   UNL     1       4.554  -1.989 -23.354  0.00  0.00    +0.000 C 
ATOM     26  C   UNL     1       2.743   0.425 -26.622  0.00  0.00    +0.000 C 
ENDROOT
BRANCH   8  27
ATOM     27  O   UNL     1      -0.478  -5.171 -19.873  0.00  0.00    +0.000 OA
ATOM     28  H   UNL     1      -0.418  -4.665 -19.038  0.00  0.00    +0.000 HD
ENDBRANCH   8  27
BRANCH  10  29
ATOM     29  O   UNL     1      -0.760  -5.825 -22.433  0.00  0.00    +0.000 OA
ATOM     30  H   UNL     1      -0.360  -6.684 -22.202  0.00  0.00    +0.000 HD
ENDBRANCH  10  29
BRANCH  15  31
ATOM     31  O   UNL     1       4.935   1.740 -18.736  0.00  0.00    +0.000 OA
ATOM     32  H   UNL     1       5.868   1.500 -18.922  0.00  0.00    +0.000 HD
ENDBRANCH  15  31
BRANCH  16  33
ATOM     33  O   UNL     1       5.258  -1.361 -18.613  0.00  0.00    +0.000 OA
ATOM     34  C   UNL     1       4.346  -2.422 -18.469  0.00  0.00    +0.000 C 
ENDBRANCH  16  33
BRANCH  21  35
ATOM     35  O   UNL     1       4.750   1.462 -24.718  0.00  0.00    +0.000 OA
BRANCH  35  37
ATOM     36  O   UNL     1       6.261   0.433 -26.177  0.00  0.00    +0.000 OA
ATOM     37  C   UNL     1       5.969   1.160 -25.245  0.00  0.00    +0.000 C 
ATOM     38  C   UNL     1       7.110   1.859 -24.600  0.00  0.00    +0.000 C 
ENDBRANCH  35  37
ENDBRANCH  21  35
BRANCH   6  39
ATOM     39  C   UNL     1      -0.604  -1.421 -19.064  0.00  0.00    +0.000 C 
BRANCH  39  41
ATOM     40  O   UNL     1      -2.475  -3.129 -18.768  0.00  0.00    +0.000 OA
ATOM     41  C   UNL     1      -1.954  -1.945 -19.416  0.00  0.00    +0.000 C 
ATOM     42  C   UNL     1      -2.870  -1.915 -18.279  0.00  0.00    +0.000 C 
ATOM     43  C   UNL     1      -2.413  -1.927 -20.917  0.00  0.00    +0.000 C 
BRANCH  42  44
ATOM     44  C   UNL     1      -4.262  -1.591 -18.369  0.00  0.00    +0.000 C 
ATOM     45  C   UNL     1      -4.695  -0.169 -18.640  0.00  0.00    +0.000 C 
BRANCH  44  46
ATOM     46  C   UNL     1      -5.217  -2.595 -18.669  0.00  0.00    +0.000 C 
ATOM     47  C   UNL     1      -6.054  -3.409 -18.943  0.00  0.00    +0.000 C 
ATOM     48  C   UNL     1      -7.157  -4.401 -19.334  0.00  0.00    +0.000 C 
ENDBRANCH  44  46
ENDBRANCH  42  44
ENDBRANCH  39  41
BRANCH  39  49
ATOM     49  O   UNL     1      -0.402  -0.477 -18.071  0.00  0.00    +0.000 OA
ATOM     50  H   UNL     1      -1.046   0.256 -18.073  0.00  0.00    +0.000 HD
ENDBRANCH  39  49
ENDBRANCH   6  39
BRANCH   8  51
ATOM     51  C   UNL     1       1.787  -5.263 -20.466  0.00  0.00    +0.000 C 
BRANCH  51  52
ATOM     52  O   UNL     1       2.922  -5.923 -20.231  0.00  0.00    +0.000 OA
ATOM     53  H   UNL     1       2.740  -6.841 -19.946  0.00  0.00    +0.000 HD
ENDBRANCH  51  52
ENDBRANCH   8  51
TORSDOF 13
ENDMDL
MODEL 5
REMARK VINA RESULT:      -5.0      6.647     11.658
REMARK  Name = 102471178_CandidaspongiolideCore.pdbqt.pdb
REMARK  13 active torsions:
REMARK  status: ('A' for Active; 'I' for Inactive)
REMARK    1  A    between atoms: C_6  and  C_39
REMARK    2  A    between atoms: C_8  and  O_27
REMARK    3  A    between atoms: C_8  and  C_51
REMARK    4  A    between atoms: C_10  and  O_29
REMARK    5  A    between atoms: C_15  and  O_31
REMARK    6  A    between atoms: C_16  and  O_33
REMARK    7  A    between atoms: C_21  and  O_35
REMARK    8  A    between atoms: O_35  and  C_37
REMARK    9  A    between atoms: C_39  and  C_41
REMARK   10  A    between atoms: C_39  and  O_49
REMARK   11  A    between atoms: C_42  and  C_44
REMARK   12  A    between atoms: C_44  and  C_46
REMARK   13  A    between atoms: C_51  and  O_52
REMARK                            x       y       z     vdW  Elec       q    Type
REMARK                         _______ _______ _______ _____ _____    ______ ____
ROOT
ATOM      1  O   UNL     1      12.338  -2.114 -18.189  0.00  0.00    +0.000 OA
ATOM      2  O   UNL     1      10.558  -2.105 -19.640  0.00  0.00    +0.000 OA
ATOM      3  O   UNL     1       7.514  -3.917 -23.089  0.00  0.00    +0.000 OA
ATOM      4  O   UNL     1      11.367  -1.336 -16.305  0.00  0.00    +0.000 OA
ATOM      5  O   UNL     1       8.878   0.425 -18.063  0.00  0.00    +0.000 OA
ATOM      6  C   UNL     1      12.297  -3.743 -19.837  0.00  0.00    +0.000 C 
ATOM      7  C   UNL     1      12.169  -4.046 -21.222  0.00  0.00    +0.000 C 
ATOM      8  C   UNL     1      12.200  -4.392 -22.645  0.00  0.00    +0.000 C 
ATOM      9  C   UNL     1      11.611  -2.574 -19.228  0.00  0.00    +0.000 C 
ATOM     10  C   UNL     1      10.934  -5.091 -23.091  0.00  0.00    +0.000 C 
ATOM     11  C   UNL     1       9.624  -4.716 -22.687  0.00  0.00    +0.000 C 
ATOM     12  C   UNL     1       8.327  -4.258 -22.236  0.00  0.00    +0.000 C 
ATOM     13  C   UNL     1      11.752  -1.151 -17.454  0.00  0.00    +0.000 C 
ATOM     14  C   UNL     1       8.021  -4.166 -20.776  0.00  0.00    +0.000 C 
ATOM     15  C   UNL     1      11.878   0.233 -17.975  0.00  0.00    +0.000 C 
ATOM     16  C   UNL     1      11.609   0.623 -19.344  0.00  0.00    +0.000 C 
ATOM     17  C   UNL     1      10.312   1.025 -19.873  0.00  0.00    +0.000 C 
ATOM     18  C   UNL     1       7.132  -3.168 -20.310  0.00  0.00    +0.000 C 
ATOM     19  C   UNL     1       8.105  -0.235 -20.208  0.00  0.00    +0.000 C 
ATOM     20  C   UNL     1       8.838  -4.904 -19.725  0.00  0.00    +0.000 C 
ATOM     21  C   UNL     1       6.930  -0.869 -19.618  0.00  0.00    +0.000 C 
ATOM     22  C   UNL     1       9.075   0.431 -19.280  0.00  0.00    +0.000 C 
ATOM     23  C   UNL     1       6.379  -2.177 -19.940  0.00  0.00    +0.000 C 
ATOM     24  C   UNL     1      10.170   2.242 -20.782  0.00  0.00    +0.000 C 
ATOM     25  C   UNL     1       8.449  -0.523 -21.663  0.00  0.00    +0.000 C 
ATOM     26  C   UNL     1       4.908  -2.478 -19.813  0.00  0.00    +0.000 C 
ENDROOT
BRANCH   8  27
ATOM     27  O   UNL     1      13.298  -5.294 -22.801  0.00  0.00    +0.000 OA
ATOM     28  H   UNL     1      12.895  -6.182 -22.709  0.00  0.00    +0.000 HD
ENDBRANCH   8  27
BRANCH  10  29
ATOM     29  O   UNL     1      11.076  -6.132 -23.994  0.00  0.00    +0.000 OA
ATOM     30  H   UNL     1      10.414  -6.835 -23.854  0.00  0.00    +0.000 HD
ENDBRANCH  10  29
BRANCH  15  31
ATOM     31  O   UNL     1      11.770   1.276 -17.069  0.00  0.00    +0.000 OA
ATOM     32  H   UNL     1      11.105   1.063 -16.379  0.00  0.00    +0.000 HD
ENDBRANCH  15  31
BRANCH  16  33
ATOM     33  O   UNL     1      12.699   1.112 -20.042  0.00  0.00    +0.000 OA
ATOM     34  C   UNL     1      13.097   0.166 -21.004  0.00  0.00    +0.000 C 
ENDBRANCH  16  33
BRANCH  21  35
ATOM     35  O   UNL     1       6.173  -0.022 -18.768  0.00  0.00    +0.000 OA
BRANCH  35  37
ATOM     36  O   UNL     1       5.036   1.183 -20.419  0.00  0.00    +0.000 OA
ATOM     37  C   UNL     1       5.702   1.086 -19.404  0.00  0.00    +0.000 C 
ATOM     38  C   UNL     1       6.025   2.369 -18.729  0.00  0.00    +0.000 C 
ENDBRANCH  35  37
ENDBRANCH  21  35
BRANCH   6  39
ATOM     39  C   UNL     1      13.051  -4.668 -19.021  0.00  0.00    +0.000 C 
BRANCH  39  41
ATOM     40  O   UNL     1      15.327  -3.780 -19.752  0.00  0.00    +0.000 OA
ATOM     41  C   UNL     1      14.507  -4.867 -19.263  0.00  0.00    +0.000 C 
ATOM     42  C   UNL     1      15.330  -4.018 -18.406  0.00  0.00    +0.000 C 
ATOM     43  C   UNL     1      14.999  -6.217 -19.897  0.00  0.00    +0.000 C 
BRANCH  42  44
ATOM     44  C   UNL     1      16.567  -4.424 -17.812  0.00  0.00    +0.000 C 
ATOM     45  C   UNL     1      17.880  -3.984 -18.417  0.00  0.00    +0.000 C 
BRANCH  44  46
ATOM     46  C   UNL     1      16.617  -4.823 -16.452  0.00  0.00    +0.000 C 
ATOM     47  C   UNL     1      16.652  -5.114 -15.289  0.00  0.00    +0.000 C 
ATOM     48  C   UNL     1      16.673  -5.420 -13.786  0.00  0.00    +0.000 C 
ENDBRANCH  44  46
ENDBRANCH  42  44
ENDBRANCH  39  41
BRANCH  39  49
ATOM     49  O   UNL     1      12.342  -5.389 -18.074  0.00  0.00    +0.000 OA
ATOM     50  H   UNL     1      11.737  -4.852 -17.527  0.00  0.00    +0.000 HD
ENDBRANCH  39  49
ENDBRANCH   6  39
BRANCH   8  51
ATOM     51  C   UNL     1      12.462  -3.217 -23.493  0.00  0.00    +0.000 C 
BRANCH  51  52
ATOM     52  O   UNL     1      12.743  -2.156 -24.250  0.00  0.00    +0.000 OA
ATOM     53  H   UNL     1      12.502  -2.318 -25.184  0.00  0.00    +0.000 HD
ENDBRANCH  51  52
ENDBRANCH   8  51
TORSDOF 13
ENDMDL
MODEL 6
REMARK VINA RESULT:      -5.0      2.418      7.489
REMARK  Name = 102471178_CandidaspongiolideCore.pdbqt.pdb
REMARK  13 active torsions:
REMARK  status: ('A' for Active; 'I' for Inactive)
REMARK    1  A    between atoms: C_6  and  C_39
REMARK    2  A    between atoms: C_8  and  O_27
REMARK    3  A    between atoms: C_8  and  C_51
REMARK    4  A    between atoms: C_10  and  O_29
REMARK    5  A    between atoms: C_15  and  O_31
REMARK    6  A    between atoms: C_16  and  O_33
REMARK    7  A    between atoms: C_21  and  O_35
REMARK    8  A    between atoms: O_35  and  C_37
REMARK    9  A    between atoms: C_39  and  C_41
REMARK   10  A    between atoms: C_39  and  O_49
REMARK   11  A    between atoms: C_42  and  C_44
REMARK   12  A    between atoms: C_44  and  C_46
REMARK   13  A    between atoms: C_51  and  O_52
REMARK                            x       y       z     vdW  Elec       q    Type
REMARK                         _______ _______ _______ _____ _____    ______ ____
ROOT
ATOM      1  O   UNL     1       5.532  -0.708 -19.574  0.00  0.00    +0.000 OA
ATOM      2  O   UNL     1       4.084  -1.326 -21.247  0.00  0.00    +0.000 OA
ATOM      3  O   UNL     1       2.440  -1.748 -25.890  0.00  0.00    +0.000 OA
ATOM      4  O   UNL     1       5.656  -2.619 -18.378  0.00  0.00    +0.000 OA
ATOM      5  O   UNL     1       2.471  -3.714 -19.401  0.00  0.00    +0.000 OA
ATOM      6  C   UNL     1       5.820   0.278 -21.652  0.00  0.00    +0.000 C 
ATOM      7  C   UNL     1       5.228   0.983 -22.737  0.00  0.00    +0.000 C 
ATOM      8  C   UNL     1       4.704   1.843 -23.801  0.00  0.00    +0.000 C 
ATOM      9  C   UNL     1       5.040  -0.684 -20.830  0.00  0.00    +0.000 C 
ATOM     10  C   UNL     1       4.531   1.096 -25.106  0.00  0.00    +0.000 C 
ATOM     11  C   UNL     1       4.011  -0.222 -25.215  0.00  0.00    +0.000 C 
ATOM     12  C   UNL     1       3.460  -1.560 -25.235  0.00  0.00    +0.000 C 
ATOM     13  C   UNL     1       5.013  -1.651 -18.766  0.00  0.00    +0.000 C 
ATOM     14  C   UNL     1       4.098  -2.655 -24.442  0.00  0.00    +0.000 C 
ATOM     15  C   UNL     1       3.728  -1.308 -18.108  0.00  0.00    +0.000 C 
ATOM     16  C   UNL     1       2.575  -0.756 -18.790  0.00  0.00    +0.000 C 
ATOM     17  C   UNL     1       1.520  -1.528 -19.432  0.00  0.00    +0.000 C 
ATOM     18  C   UNL     1       3.294  -3.692 -23.910  0.00  0.00    +0.000 C 
ATOM     19  C   UNL     1       1.496  -3.082 -21.470  0.00  0.00    +0.000 C 
ATOM     20  C   UNL     1       5.528  -2.561 -23.929  0.00  0.00    +0.000 C 
ATOM     21  C   UNL     1       1.884  -4.354 -22.072  0.00  0.00    +0.000 C 
ATOM     22  C   UNL     1       1.857  -2.853 -20.034  0.00  0.00    +0.000 C 
ATOM     23  C   UNL     1       2.491  -4.562 -23.379  0.00  0.00    +0.000 C 
ATOM     24  C   UNL     1       0.048  -1.172 -19.238  0.00  0.00    +0.000 C 
ATOM     25  C   UNL     1       1.022  -1.951 -22.373  0.00  0.00    +0.000 C 
ATOM     26  C   UNL     1       2.266  -5.823 -24.173  0.00  0.00    +0.000 C 
ENDROOT
BRANCH   8  27
ATOM     27  O   UNL     1       5.683   2.867 -23.989  0.00  0.00    +0.000 OA
ATOM     28  H   UNL     1       6.177   2.887 -23.144  0.00  0.00    +0.000 HD
ENDBRANCH   8  27
BRANCH  10  29
ATOM     29  O   UNL     1       4.859   1.777 -26.268  0.00  0.00    +0.000 OA
ATOM     30  H   UNL     1       4.119   1.802 -26.902  0.00  0.00    +0.000 HD
ENDBRANCH  10  29
BRANCH  15  31
ATOM     31  O   UNL     1       3.413  -1.963 -16.927  0.00  0.00    +0.000 OA
ATOM     32  H   UNL     1       3.541  -1.365 -16.160  0.00  0.00    +0.000 HD
ENDBRANCH  15  31
BRANCH  16  33
ATOM     33  O   UNL     1       2.206   0.515 -18.387  0.00  0.00    +0.000 OA
ATOM     34  C   UNL     1       2.540   1.438 -19.395  0.00  0.00    +0.000 C 
ENDBRANCH  16  33
BRANCH  21  35
ATOM     35  O   UNL     1       1.455  -5.497 -21.351  0.00  0.00    +0.000 OA
BRANCH  35  37
ATOM     36  O   UNL     1      -0.807  -5.474 -21.946  0.00  0.00    +0.000 OA
ATOM     37  C   UNL     1       0.110  -5.522 -21.145  0.00  0.00    +0.000 C 
ATOM     38  C   UNL     1      -0.295  -5.667 -19.723  0.00  0.00    +0.000 C 
ENDBRANCH  35  37
ENDBRANCH  21  35
BRANCH   6  39
ATOM     39  C   UNL     1       7.236   0.462 -21.431  0.00  0.00    +0.000 C 
BRANCH  39  41
ATOM     40  O   UNL     1       6.888   2.464 -19.890  0.00  0.00    +0.000 OA
ATOM     41  C   UNL     1       7.738   1.705 -20.781  0.00  0.00    +0.000 C 
ATOM     42  C   UNL     1       7.775   1.590 -19.326  0.00  0.00    +0.000 C 
ATOM     43  C   UNL     1       8.637   2.691 -21.609  0.00  0.00    +0.000 C 
BRANCH  42  44
ATOM     44  C   UNL     1       8.803   2.140 -18.496  0.00  0.00    +0.000 C 
ATOM     45  C   UNL     1       8.797   3.612 -18.153  0.00  0.00    +0.000 C 
BRANCH  44  46
ATOM     46  C   UNL     1       9.547   1.307 -17.623  0.00  0.00    +0.000 C 
ATOM     47  C   UNL     1      10.216   0.607 -16.914  0.00  0.00    +0.000 C 
ATOM     48  C   UNL     1      11.129  -0.267 -16.045  0.00  0.00    +0.000 C 
ENDBRANCH  44  46
ENDBRANCH  42  44
ENDBRANCH  39  41
BRANCH  39  49
ATOM     49  O   UNL     1       8.079  -0.526 -21.910  0.00  0.00    +0.000 OA
ATOM     50  H   UNL     1       7.903  -1.417 -21.551  0.00  0.00    +0.000 HD
ENDBRANCH  39  49
ENDBRANCH   6  39
BRANCH   8  51
ATOM     51  C   UNL     1       3.443   2.495 -23.413  0.00  0.00    +0.000 C 
BRANCH  51  52
ATOM     52  O   UNL     1       2.321   3.103 -23.026  0.00  0.00    +0.000 OA
ATOM     53  H   UNL     1       2.393   3.417 -22.102  0.00  0.00    +0.000 HD
ENDBRANCH  51  52
ENDBRANCH   8  51
TORSDOF 13
ENDMDL
MODEL 7
REMARK VINA RESULT:      -5.0      4.681      8.449
REMARK  Name = 102471178_CandidaspongiolideCore.pdbqt.pdb
REMARK  13 active torsions:
REMARK  status: ('A' for Active; 'I' for Inactive)
REMARK    1  A    between atoms: C_6  and  C_39
REMARK    2  A    between atoms: C_8  and  O_27
REMARK    3  A    between atoms: C_8  and  C_51
REMARK    4  A    between atoms: C_10  and  O_29
REMARK    5  A    between atoms: C_15  and  O_31
REMARK    6  A    between atoms: C_16  and  O_33
REMARK    7  A    between atoms: C_21  and  O_35
REMARK    8  A    between atoms: O_35  and  C_37
REMARK    9  A    between atoms: C_39  and  C_41
REMARK   10  A    between atoms: C_39  and  O_49
REMARK   11  A    between atoms: C_42  and  C_44
REMARK   12  A    between atoms: C_44  and  C_46
REMARK   13  A    between atoms: C_51  and  O_52
REMARK                            x       y       z     vdW  Elec       q    Type
REMARK                         _______ _______ _______ _____ _____    ______ ____
ROOT
ATOM      1  O   UNL     1       8.485  -4.966 -20.756  0.00  0.00    +0.000 OA
ATOM      2  O   UNL     1       8.784  -2.703 -21.005  0.00  0.00    +0.000 OA
ATOM      3  O   UNL     1       7.953   1.799 -22.872  0.00  0.00    +0.000 OA
ATOM      4  O   UNL     1       8.402  -5.149 -18.507  0.00  0.00    +0.000 OA
ATOM      5  O   UNL     1      10.340  -2.256 -17.990  0.00  0.00    +0.000 OA
ATOM      6  C   UNL     1       7.565  -3.970 -22.636  0.00  0.00    +0.000 C 
ATOM      7  C   UNL     1       7.766  -3.134 -23.770  0.00  0.00    +0.000 C 
ATOM      8  C   UNL     1       7.961  -2.411 -25.029  0.00  0.00    +0.000 C 
ATOM      9  C   UNL     1       8.338  -3.780 -21.381  0.00  0.00    +0.000 C 
ATOM     10  C   UNL     1       7.312  -1.045 -25.011  0.00  0.00    +0.000 C 
ATOM     11  C   UNL     1       7.344  -0.155 -23.904  0.00  0.00    +0.000 C 
ATOM     12  C   UNL     1       7.437   0.695 -22.736  0.00  0.00    +0.000 C 
ATOM     13  C   UNL     1       9.035  -4.911 -19.529  0.00  0.00    +0.000 C 
ATOM     14  C   UNL     1       6.958   0.210 -21.406  0.00  0.00    +0.000 C 
ATOM     15  C   UNL     1      10.518  -4.860 -19.483  0.00  0.00    +0.000 C 
ATOM     16  C   UNL     1      11.335  -3.965 -20.276  0.00  0.00    +0.000 C 
ATOM     17  C   UNL     1      11.728  -2.615 -19.896  0.00  0.00    +0.000 C 
ATOM     18  C   UNL     1       7.599   0.659 -20.226  0.00  0.00    +0.000 C 
ATOM     19  C   UNL     1      10.399  -0.453 -19.533  0.00  0.00    +0.000 C 
ATOM     20  C   UNL     1       6.004  -0.968 -21.264  0.00  0.00    +0.000 C 
ATOM     21  C   UNL     1       9.450   0.304 -18.724  0.00  0.00    +0.000 C 
ATOM     22  C   UNL     1      10.807  -1.808 -19.039  0.00  0.00    +0.000 C 
ATOM     23  C   UNL     1       8.284   1.041 -19.191  0.00  0.00    +0.000 C 
ATOM     24  C   UNL     1      13.161  -2.125 -20.083  0.00  0.00    +0.000 C 
ATOM     25  C   UNL     1      10.699   0.012 -20.951  0.00  0.00    +0.000 C 
ATOM     26  C   UNL     1       7.770   2.263 -18.474  0.00  0.00    +0.000 C 
ENDROOT
BRANCH   8  27
ATOM     27  O   UNL     1       7.325  -3.205 -26.034  0.00  0.00    +0.000 OA
ATOM     28  H   UNL     1       6.831  -2.558 -26.576  0.00  0.00    +0.000 HD
ENDBRANCH   8  27
BRANCH  10  29
ATOM     29  O   UNL     1       6.691  -0.629 -26.178  0.00  0.00    +0.000 OA
ATOM     30  H   UNL     1       6.295   0.258 -26.090  0.00  0.00    +0.000 HD
ENDBRANCH  10  29
BRANCH  15  31
ATOM     31  O   UNL     1      11.142  -5.308 -18.329  0.00  0.00    +0.000 OA
ATOM     32  H   UNL     1      11.990  -5.752 -18.549  0.00  0.00    +0.000 HD
ENDBRANCH  15  31
BRANCH  16  33
ATOM     33  O   UNL     1      12.178  -4.584 -21.181  0.00  0.00    +0.000 OA
ATOM     34  C   UNL     1      11.631  -4.480 -22.473  0.00  0.00    +0.000 C 
ENDBRANCH  16  33
BRANCH  21  35
ATOM     35  O   UNL     1       9.829   0.457 -17.366  0.00  0.00    +0.000 OA
BRANCH  35  37
ATOM     36  O   UNL     1      11.221   2.315 -17.653  0.00  0.00    +0.000 OA
ATOM     37  C   UNL     1      10.951   1.213 -17.210  0.00  0.00    +0.000 C 
ATOM     38  C   UNL     1      11.985   0.608 -16.332  0.00  0.00    +0.000 C 
ENDBRANCH  35  37
ENDBRANCH  21  35
BRANCH   6  39
ATOM     39  C   UNL     1       6.515  -4.959 -22.716  0.00  0.00    +0.000 C 
BRANCH  39  41
ATOM     40  O   UNL     1       4.026  -5.498 -22.587  0.00  0.00    +0.000 OA
ATOM     41  C   UNL     1       5.088  -4.535 -22.776  0.00  0.00    +0.000 C 
ATOM     42  C   UNL     1       4.396  -4.747 -21.508  0.00  0.00    +0.000 C 
ATOM     43  C   UNL     1       4.650  -3.478 -23.851  0.00  0.00    +0.000 C 
BRANCH  42  44
ATOM     44  C   UNL     1       3.419  -3.857 -20.959  0.00  0.00    +0.000 C 
ATOM     45  C   UNL     1       1.956  -4.036 -21.292  0.00  0.00    +0.000 C 
BRANCH  44  46
ATOM     46  C   UNL     1       3.698  -3.119 -19.780  0.00  0.00    +0.000 C 
ATOM     47  C   UNL     1       3.888  -2.502 -18.769  0.00  0.00    +0.000 C 
ATOM     48  C   UNL     1       4.067  -1.737 -17.452  0.00  0.00    +0.000 C 
ENDBRANCH  44  46
ENDBRANCH  42  44
ENDBRANCH  39  41
BRANCH  39  49
ATOM     49  O   UNL     1       6.901  -6.288 -22.665  0.00  0.00    +0.000 OA
ATOM     50  H   UNL     1       7.274  -6.633 -23.499  0.00  0.00    +0.000 HD
ENDBRANCH  39  49
ENDBRANCH   6  39
BRANCH   8  51
ATOM     51  C   UNL     1       9.385  -2.297 -25.385  0.00  0.00    +0.000 C 
BRANCH  51  52
ATOM     52  O   UNL     1      10.673  -2.232 -25.728  0.00  0.00    +0.000 OA
ATOM     53  H   UNL     1      10.888  -1.361 -26.116  0.00  0.00    +0.000 HD
ENDBRANCH  51  52
ENDBRANCH   8  51
TORSDOF 13
ENDMDL
MODEL 8
REMARK VINA RESULT:      -4.9      2.768      7.799
REMARK  Name = 102471178_CandidaspongiolideCore.pdbqt.pdb
REMARK  13 active torsions:
REMARK  status: ('A' for Active; 'I' for Inactive)
REMARK    1  A    between atoms: C_6  and  C_39
REMARK    2  A    between atoms: C_8  and  O_27
REMARK    3  A    between atoms: C_8  and  C_51
REMARK    4  A    between atoms: C_10  and  O_29
REMARK    5  A    between atoms: C_15  and  O_31
REMARK    6  A    between atoms: C_16  and  O_33
REMARK    7  A    between atoms: C_21  and  O_35
REMARK    8  A    between atoms: O_35  and  C_37
REMARK    9  A    between atoms: C_39  and  C_41
REMARK   10  A    between atoms: C_39  and  O_49
REMARK   11  A    between atoms: C_42  and  C_44
REMARK   12  A    between atoms: C_44  and  C_46
REMARK   13  A    between atoms: C_51  and  O_52
REMARK                            x       y       z     vdW  Elec       q    Type
REMARK                         _______ _______ _______ _____ _____    ______ ____
ROOT
ATOM      1  O   UNL     1       6.301   1.311 -23.027  0.00  0.00    +0.000 OA
ATOM      2  O   UNL     1       4.296   1.009 -21.949  0.00  0.00    +0.000 OA
ATOM      3  O   UNL     1       1.301  -0.197 -18.205  0.00  0.00    +0.000 OA
ATOM      4  O   UNL     1       6.008   3.363 -23.922  0.00  0.00    +0.000 OA
ATOM      5  O   UNL     1       2.505   3.044 -24.038  0.00  0.00    +0.000 OA
ATOM      6  C   UNL     1       6.315   0.050 -21.082  0.00  0.00    +0.000 C 
ATOM      7  C   UNL     1       5.757  -1.036 -20.353  0.00  0.00    +0.000 C 
ATOM      8  C   UNL     1       5.323  -2.236 -19.633  0.00  0.00    +0.000 C 
ATOM      9  C   UNL     1       5.505   0.843 -22.044  0.00  0.00    +0.000 C 
ATOM     10  C   UNL     1       4.482  -1.902 -18.420  0.00  0.00    +0.000 C 
ATOM     11  C   UNL     1       3.473  -0.902 -18.393  0.00  0.00    +0.000 C 
ATOM     12  C   UNL     1       2.456   0.126 -18.457  0.00  0.00    +0.000 C 
ATOM     13  C   UNL     1       5.720   2.173 -23.882  0.00  0.00    +0.000 C 
ATOM     14  C   UNL     1       2.812   1.520 -18.864  0.00  0.00    +0.000 C 
ATOM     15  C   UNL     1       4.943   1.564 -24.990  0.00  0.00    +0.000 C 
ATOM     16  C   UNL     1       3.959   0.514 -24.826  0.00  0.00    +0.000 C 
ATOM     17  C   UNL     1       2.543   0.715 -24.547  0.00  0.00    +0.000 C 
ATOM     18  C   UNL     1       1.863   2.309 -19.559  0.00  0.00    +0.000 C 
ATOM     19  C   UNL     1       1.287   1.675 -22.529  0.00  0.00    +0.000 C 
ATOM     20  C   UNL     1       4.243   2.039 -18.828  0.00  0.00    +0.000 C 
ATOM     21  C   UNL     1       0.934   2.836 -21.719  0.00  0.00    +0.000 C 
ATOM     22  C   UNL     1       2.125   1.908 -23.750  0.00  0.00    +0.000 C 
ATOM     23  C   UNL     1       0.982   2.946 -20.268  0.00  0.00    +0.000 C 
ATOM     24  C   UNL     1       1.470  -0.071 -25.294  0.00  0.00    +0.000 C 
ATOM     25  C   UNL     1       1.054   0.280 -21.965  0.00  0.00    +0.000 C 
ATOM     26  C   UNL     1       0.045   3.844 -19.503  0.00  0.00    +0.000 C 
ENDROOT
BRANCH   8  27
ATOM     27  O   UNL     1       6.523  -2.877 -19.192  0.00  0.00    +0.000 OA
ATOM     28  H   UNL     1       7.024  -3.045 -20.016  0.00  0.00    +0.000 HD
ENDBRANCH   8  27
BRANCH  10  29
ATOM     29  O   UNL     1       4.686  -2.668 -17.284  0.00  0.00    +0.000 OA
ATOM     30  H   UNL     1       5.171  -2.181 -16.592  0.00  0.00    +0.000 HD
ENDBRANCH  10  29
BRANCH  15  31
ATOM     31  O   UNL     1       4.767   2.316 -26.142  0.00  0.00    +0.000 OA
ATOM     32  H   UNL     1       5.480   2.125 -26.788  0.00  0.00    +0.000 HD
ENDBRANCH  15  31
BRANCH  16  33
ATOM     33  O   UNL     1       4.267  -0.684 -25.445  0.00  0.00    +0.000 OA
ATOM     34  C   UNL     1       4.719  -1.603 -24.481  0.00  0.00    +0.000 C 
ENDBRANCH  16  33
BRANCH  21  35
ATOM     35  O   UNL     1       0.326   3.893 -22.443  0.00  0.00    +0.000 OA
BRANCH  35  37
ATOM     36  O   UNL     1      -1.876   3.104 -22.393  0.00  0.00    +0.000 OA
ATOM     37  C   UNL     1      -0.892   3.556 -22.950  0.00  0.00    +0.000 C 
ATOM     38  C   UNL     1      -1.049   3.818 -24.404  0.00  0.00    +0.000 C 
ENDBRANCH  35  37
ENDBRANCH  21  35
BRANCH   6  39
ATOM     39  C   UNL     1       7.682   0.417 -20.787  0.00  0.00    +0.000 C 
BRANCH  39  41
ATOM     40  O   UNL     1       7.613   0.893 -18.283  0.00  0.00    +0.000 OA
ATOM     41  C   UNL     1       7.989   1.292 -19.622  0.00  0.00    +0.000 C 
ATOM     42  C   UNL     1       8.900   0.652 -18.676  0.00  0.00    +0.000 C 
ATOM     43  C   UNL     1       7.823   2.847 -19.769  0.00  0.00    +0.000 C 
BRANCH  42  44
ATOM     44  C   UNL     1       9.942   1.332 -17.969  0.00  0.00    +0.000 C 
ATOM     45  C   UNL     1      10.032   1.229 -16.464  0.00  0.00    +0.000 C 
BRANCH  44  46
ATOM     46  C   UNL     1      11.137   1.708 -18.634  0.00  0.00    +0.000 C 
ATOM     47  C   UNL     1      12.153   1.980 -19.209  0.00  0.00    +0.000 C 
ATOM     48  C   UNL     1      13.453   2.261 -19.974  0.00  0.00    +0.000 C 
ENDBRANCH  44  46
ENDBRANCH  42  44
ENDBRANCH  39  41
BRANCH  39  49
ATOM     49  O   UNL     1       8.654  -0.026 -21.669  0.00  0.00    +0.000 OA
ATOM     50  H   UNL     1       9.115   0.687 -22.153  0.00  0.00    +0.000 HD
ENDBRANCH  39  49
ENDBRANCH   6  39
BRANCH   8  51
ATOM     51  C   UNL     1       4.608  -3.179 -20.509  0.00  0.00    +0.000 C 
BRANCH  51  52
ATOM     52  O   UNL     1       3.987  -4.020 -21.336  0.00  0.00    +0.000 OA
ATOM     53  H   UNL     1       4.253  -4.945 -21.159  0.00  0.00    +0.000 HD
ENDBRANCH  51  52
ENDBRANCH   8  51
TORSDOF 13
ENDMDL
MODEL 9
REMARK VINA RESULT:      -4.9      4.139      9.436
REMARK  Name = 102471178_CandidaspongiolideCore.pdbqt.pdb
REMARK  13 active torsions:
REMARK  status: ('A' for Active; 'I' for Inactive)
REMARK    1  A    between atoms: C_6  and  C_39
REMARK    2  A    between atoms: C_8  and  O_27
REMARK    3  A    between atoms: C_8  and  C_51
REMARK    4  A    between atoms: C_10  and  O_29
REMARK    5  A    between atoms: C_15  and  O_31
REMARK    6  A    between atoms: C_16  and  O_33
REMARK    7  A    between atoms: C_21  and  O_35
REMARK    8  A    between atoms: O_35  and  C_37
REMARK    9  A    between atoms: C_39  and  C_41
REMARK   10  A    between atoms: C_39  and  O_49
REMARK   11  A    between atoms: C_42  and  C_44
REMARK   12  A    between atoms: C_44  and  C_46
REMARK   13  A    between atoms: C_51  and  O_52
REMARK                            x       y       z     vdW  Elec       q    Type
REMARK                         _______ _______ _______ _____ _____    ______ ____
ROOT
ATOM      1  O   UNL     1       8.387  -0.436 -24.706  0.00  0.00    +0.000 OA
ATOM      2  O   UNL     1       8.328  -0.194 -22.423  0.00  0.00    +0.000 OA
ATOM      3  O   UNL     1       9.269   1.949 -18.068  0.00  0.00    +0.000 OA
ATOM      4  O   UNL     1       6.221  -0.893 -25.150  0.00  0.00    +0.000 OA
ATOM      5  O   UNL     1       5.633  -2.250 -21.956  0.00  0.00    +0.000 OA
ATOM      6  C   UNL     1       9.876   1.064 -23.754  0.00  0.00    +0.000 C 
ATOM      7  C   UNL     1      10.881   1.298 -22.775  0.00  0.00    +0.000 C 
ATOM      8  C   UNL     1      12.024   1.542 -21.892  0.00  0.00    +0.000 C 
ATOM      9  C   UNL     1       8.777   0.089 -23.526  0.00  0.00    +0.000 C 
ATOM     10  C   UNL     1      11.667   2.442 -20.729  0.00  0.00    +0.000 C 
ATOM     11  C   UNL     1      10.460   2.352 -19.984  0.00  0.00    +0.000 C 
ATOM     12  C   UNL     1       9.212   2.181 -19.271  0.00  0.00    +0.000 C 
ATOM     13  C   UNL     1       7.294  -1.220 -24.658  0.00  0.00    +0.000 C 
ATOM     14  C   UNL     1       7.909   2.242 -20.000  0.00  0.00    +0.000 C 
ATOM     15  C   UNL     1       7.524  -2.632 -24.263  0.00  0.00    +0.000 C 
ATOM     16  C   UNL     1       8.307  -3.049 -23.117  0.00  0.00    +0.000 C 
ATOM     17  C   UNL     1       7.801  -3.226 -21.763  0.00  0.00    +0.000 C 
ATOM     18  C   UNL     1       6.816   1.464 -19.544  0.00  0.00    +0.000 C 
ATOM     19  C   UNL     1       6.854  -1.589 -20.032  0.00  0.00    +0.000 C 
ATOM     20  C   UNL     1       7.775   2.873 -21.378  0.00  0.00    +0.000 C 
ATOM     21  C   UNL     1       5.771  -0.706 -19.615  0.00  0.00    +0.000 C 
ATOM     22  C   UNL     1       6.667  -2.370 -21.297  0.00  0.00    +0.000 C 
ATOM     23  C   UNL     1       5.885   0.662 -19.128  0.00  0.00    +0.000 C 
ATOM     24  C   UNL     1       8.178  -4.448 -20.930  0.00  0.00    +0.000 C 
ATOM     25  C   UNL     1       8.213  -1.464 -19.355  0.00  0.00    +0.000 C 
ATOM     26  C   UNL     1       4.899   1.247 -18.150  0.00  0.00    +0.000 C 
ENDROOT
BRANCH   8  27
ATOM     27  O   UNL     1      13.001   2.205 -22.698  0.00  0.00    +0.000 OA
ATOM     28  H   UNL     1      13.344   2.919 -22.123  0.00  0.00    +0.000 HD
ENDBRANCH   8  27
BRANCH  10  29
ATOM     29  O   UNL     1      12.614   3.378 -20.345  0.00  0.00    +0.000 OA
ATOM     30  H   UNL     1      12.282   3.975 -19.649  0.00  0.00    +0.000 HD
ENDBRANCH  10  29
BRANCH  15  31
ATOM     31  O   UNL     1       6.596  -3.576 -24.675  0.00  0.00    +0.000 OA
ATOM     32  H   UNL     1       6.480  -3.540 -25.648  0.00  0.00    +0.000 HD
ENDBRANCH  15  31
BRANCH  16  33
ATOM     33  O   UNL     1       9.443  -3.781 -23.415  0.00  0.00    +0.000 OA
ATOM     34  C   UNL     1      10.575  -2.958 -23.279  0.00  0.00    +0.000 C 
ENDBRANCH  16  33
BRANCH  21  35
ATOM     35  O   UNL     1       4.503  -1.336 -19.527  0.00  0.00    +0.000 OA
BRANCH  35  37
ATOM     36  O   UNL     1       5.101  -2.622 -17.667  0.00  0.00    +0.000 OA
ATOM     37  C   UNL     1       4.314  -1.988 -18.347  0.00  0.00    +0.000 C 
ATOM     38  C   UNL     1       2.942  -1.872 -17.790  0.00  0.00    +0.000 C 
ENDBRANCH  35  37
ENDBRANCH  21  35
BRANCH   6  39
ATOM     39  C   UNL     1       9.909   1.876 -24.949  0.00  0.00    +0.000 C 
BRANCH  39  41
ATOM     40  O   UNL     1       8.564   3.458 -26.430  0.00  0.00    +0.000 OA
ATOM     41  C   UNL     1       8.958   3.011 -25.112  0.00  0.00    +0.000 C 
ATOM     42  C   UNL     1       7.722   2.604 -25.775  0.00  0.00    +0.000 C 
ATOM     43  C   UNL     1       9.075   4.250 -24.154  0.00  0.00    +0.000 C 
BRANCH  42  44
ATOM     44  C   UNL     1       6.421   3.094 -25.435  0.00  0.00    +0.000 C 
ATOM     45  C   UNL     1       5.644   3.934 -26.422  0.00  0.00    +0.000 C 
BRANCH  44  46
ATOM     46  C   UNL     1       5.653   2.460 -24.426  0.00  0.00    +0.000 C 
ATOM     47  C   UNL     1       5.018   1.880 -23.590  0.00  0.00    +0.000 C 
ATOM     48  C   UNL     1       4.236   1.077 -22.542  0.00  0.00    +0.000 C 
ENDBRANCH  44  46
ENDBRANCH  42  44
ENDBRANCH  39  41
BRANCH  39  49
ATOM     49  O   UNL     1      10.807   1.503 -25.936  0.00  0.00    +0.000 OA
ATOM     50  H   UNL     1      11.552   0.958 -25.619  0.00  0.00    +0.000 HD
ENDBRANCH  39  49
ENDBRANCH   6  39
BRANCH   8  51
ATOM     51  C   UNL     1      12.622   0.288 -21.404  0.00  0.00    +0.000 C 
BRANCH  51  52
ATOM     52  O   UNL     1      13.188  -0.850 -21.000  0.00  0.00    +0.000 OA
ATOM     53  H   UNL     1      13.638  -1.301 -21.743  0.00  0.00    +0.000 HD
ENDBRANCH  51  52
ENDBRANCH   8  51
TORSDOF 13
ENDMDL
