MODEL 1
REMARK VINA RESULT:      -5.6      0.000      0.000
REMARK  Name = 10288191_Binimetinib.pdbqt.pdb
REMARK  6 active torsions:
REMARK  status: ('A' for Active; 'I' for Inactive)
REMARK    1  A    between atoms: C_6  and  N_21
REMARK    2  A    between atoms: C_7  and  C_14
REMARK    3  A    between atoms: N_13  and  O_16
REMARK    4  A    between atoms: O_16  and  C_17
REMARK    5  A    between atoms: C_18  and  O_19
REMARK    6  A    between atoms: N_21  and  C_25
REMARK                            x       y       z     vdW  Elec       q    Type
REMARK                         _______ _______ _______ _____ _____    ______ ____
ROOT
ATOM      1  F   UNL     1       8.513  -5.540  -4.791  0.00  0.00    +0.000 F 
ATOM      2  N   UNL     1      11.344  -5.629  -8.313  0.00  0.00    +0.000 N 
ATOM      3  N   UNL     1       9.516  -4.749  -7.445  0.00  0.00    +0.000 NA
ATOM      4  C   UNL     1      11.230  -6.219  -7.088  0.00  0.00    +0.000 A 
ATOM      5  C   UNL     1      10.077  -5.649  -6.557  0.00  0.00    +0.000 A 
ATOM      6  C   UNL     1      10.396  -6.994  -4.525  0.00  0.00    +0.000 A 
ATOM      7  C   UNL     1      11.557  -7.557  -5.118  0.00  0.00    +0.000 A 
ATOM      8  C   UNL     1      11.984  -7.175  -6.403  0.00  0.00    +0.000 A 
ATOM      9  C   UNL     1       9.661  -6.043  -5.271  0.00  0.00    +0.000 A 
ATOM     10  C   UNL     1      10.311  -4.761  -8.498  0.00  0.00    +0.000 A 
ATOM     11  C   UNL     1      12.390  -5.865  -9.253  0.00  0.00    +0.000 C 
ENDROOT
BRANCH   7  14
ATOM     12  O   UNL     1      13.118  -8.278  -3.502  0.00  0.00    +0.000 OA
ATOM     13  N   UNL     1      12.196  -9.905  -4.848  0.00  0.00    +0.000 N 
ATOM     14  C   UNL     1      12.362  -8.605  -4.413  0.00  0.00    +0.000 C 
ATOM     15  H   UNL     1      11.877 -10.118  -5.784  0.00  0.00    +0.000 HD
BRANCH  13  16
ATOM     16  O   UNL     1      13.170 -10.799  -4.354  0.00  0.00    +0.000 OA
BRANCH  16  17
ATOM     17  C   UNL     1      12.503 -11.824  -3.827  0.00  0.00    +0.000 C 
ATOM     18  C   UNL     1      11.746 -13.011  -3.223  0.00  0.00    +0.000 C 
BRANCH  18  19
ATOM     19  O   UNL     1      11.096 -14.046  -2.701  0.00  0.00    +0.000 OA
ATOM     20  H   UNL     1      11.205 -14.056  -1.735  0.00  0.00    +0.000 HD
ENDBRANCH  18  19
ENDBRANCH  16  17
ENDBRANCH  13  16
ENDBRANCH   7  14
BRANCH   6  21
ATOM     21  N   UNL     1      10.013  -7.363  -3.209  0.00  0.00    +0.000 N 
ATOM     22  H   UNL     1       9.770  -8.362  -3.122  0.00  0.00    +0.000 HD
BRANCH  21  25
ATOM     23 BR   UNL     1      11.186  -5.061   2.314  0.00  0.00    +0.000 Br
ATOM     24  F   UNL     1      11.083  -8.891  -1.179  0.00  0.00    +0.000 F 
ATOM     25  C   UNL     1      10.309  -6.788  -1.956  0.00  0.00    +0.000 A 
ATOM     26  C   UNL     1      10.828  -7.596  -0.930  0.00  0.00    +0.000 A 
ATOM     27  C   UNL     1      10.040  -5.453  -1.647  0.00  0.00    +0.000 A 
ATOM     28  C   UNL     1      11.095  -7.097   0.340  0.00  0.00    +0.000 A 
ATOM     29  C   UNL     1      10.302  -4.933  -0.380  0.00  0.00    +0.000 A 
ATOM     30  C   UNL     1      10.829  -5.761   0.604  0.00  0.00    +0.000 A 
ENDBRANCH  21  25
ENDBRANCH   6  21
TORSDOF 6
ENDMDL
MODEL 2
REMARK VINA RESULT:      -5.3     19.058     22.793
REMARK  Name = 10288191_Binimetinib.pdbqt.pdb
REMARK  6 active torsions:
REMARK  status: ('A' for Active; 'I' for Inactive)
REMARK    1  A    between atoms: C_6  and  N_21
REMARK    2  A    between atoms: C_7  and  C_14
REMARK    3  A    between atoms: N_13  and  O_16
REMARK    4  A    between atoms: O_16  and  C_17
REMARK    5  A    between atoms: C_18  and  O_19
REMARK    6  A    between atoms: N_21  and  C_25
REMARK                            x       y       z     vdW  Elec       q    Type
REMARK                         _______ _______ _______ _____ _____    ______ ____
ROOT
ATOM      1  F   UNL     1       2.446   1.908 -22.459  0.00  0.00    +0.000 F 
ATOM      2  N   UNL     1       3.433  -0.127 -18.545  0.00  0.00    +0.000 N 
ATOM      3  N   UNL     1       4.222   0.808 -20.382  0.00  0.00    +0.000 NA
ATOM      4  C   UNL     1       2.322   0.277 -19.227  0.00  0.00    +0.000 A 
ATOM      5  C   UNL     1       2.840   0.865 -20.377  0.00  0.00    +0.000 A 
ATOM      6  C   UNL     1       0.546   1.352 -21.113  0.00  0.00    +0.000 A 
ATOM      7  C   UNL     1       0.069   0.728 -19.931  0.00  0.00    +0.000 A 
ATOM      8  C   UNL     1       0.951   0.185 -18.979  0.00  0.00    +0.000 A 
ATOM      9  C   UNL     1       1.945   1.402 -21.322  0.00  0.00    +0.000 A 
ATOM     10  C   UNL     1       4.548   0.202 -19.256  0.00  0.00    +0.000 A 
ATOM     11  C   UNL     1       3.437  -0.774 -17.275  0.00  0.00    +0.000 C 
ENDROOT
BRANCH   7  14
ATOM     12  O   UNL     1      -2.091  -0.097 -20.406  0.00  0.00    +0.000 OA
ATOM     13  N   UNL     1      -1.888   1.272 -18.563  0.00  0.00    +0.000 N 
ATOM     14  C   UNL     1      -1.399   0.592 -19.661  0.00  0.00    +0.000 C 
ATOM     15  H   UNL     1      -1.421   2.088 -18.188  0.00  0.00    +0.000 HD
BRANCH  13  16
ATOM     16  O   UNL     1      -3.297   1.343 -18.519  0.00  0.00    +0.000 OA
BRANCH  16  17
ATOM     17  C   UNL     1      -3.699   0.321 -17.767  0.00  0.00    +0.000 C 
ATOM     18  C   UNL     1      -4.169  -0.861 -16.912  0.00  0.00    +0.000 C 
BRANCH  18  19
ATOM     19  O   UNL     1      -4.581  -1.889 -16.178  0.00  0.00    +0.000 OA
ATOM     20  H   UNL     1      -3.878  -2.558 -16.115  0.00  0.00    +0.000 HD
ENDBRANCH  18  19
ENDBRANCH  16  17
ENDBRANCH  13  16
ENDBRANCH   7  14
BRANCH   6  21
ATOM     21  N   UNL     1      -0.362   1.932 -22.036  0.00  0.00    +0.000 N 
ATOM     22  H   UNL     1      -1.260   1.426 -22.095  0.00  0.00    +0.000 HD
BRANCH  21  25
ATOM     23 BR   UNL     1      -1.071   7.616 -24.127  0.00  0.00    +0.000 Br
ATOM     24  F   UNL     1      -1.591   3.902 -20.547  0.00  0.00    +0.000 F 
ATOM     25  C   UNL     1      -0.474   3.247 -22.534  0.00  0.00    +0.000 A 
ATOM     26  C   UNL     1      -1.129   4.224 -21.766  0.00  0.00    +0.000 A 
ATOM     27  C   UNL     1      -0.028   3.621 -23.804  0.00  0.00    +0.000 A 
ATOM     28  C   UNL     1      -1.311   5.524 -22.225  0.00  0.00    +0.000 A 
ATOM     29  C   UNL     1      -0.200   4.920 -24.281  0.00  0.00    +0.000 A 
ATOM     30  C   UNL     1      -0.840   5.862 -23.486  0.00  0.00    +0.000 A 
ENDBRANCH  21  25
ENDBRANCH   6  21
TORSDOF 6
ENDMDL
MODEL 3
REMARK VINA RESULT:      -5.1     13.248     15.157
REMARK  Name = 10288191_Binimetinib.pdbqt.pdb
REMARK  6 active torsions:
REMARK  status: ('A' for Active; 'I' for Inactive)
REMARK    1  A    between atoms: C_6  and  N_21
REMARK    2  A    between atoms: C_7  and  C_14
REMARK    3  A    between atoms: N_13  and  O_16
REMARK    4  A    between atoms: O_16  and  C_17
REMARK    5  A    between atoms: C_18  and  O_19
REMARK    6  A    between atoms: N_21  and  C_25
REMARK                            x       y       z     vdW  Elec       q    Type
REMARK                         _______ _______ _______ _____ _____    ______ ____
ROOT
ATOM      1  F   UNL     1       4.923   2.366   4.752  0.00  0.00    +0.000 F 
ATOM      2  N   UNL     1       7.964   5.702   4.982  0.00  0.00    +0.000 N 
ATOM      3  N   UNL     1       6.645   4.334   6.105  0.00  0.00    +0.000 NA
ATOM      4  C   UNL     1       7.364   4.940   4.021  0.00  0.00    +0.000 A 
ATOM      5  C   UNL     1       6.542   4.085   4.749  0.00  0.00    +0.000 A 
ATOM      6  C   UNL     1       5.810   3.058   2.639  0.00  0.00    +0.000 A 
ATOM      7  C   UNL     1       6.654   3.964   1.943  0.00  0.00    +0.000 A 
ATOM      8  C   UNL     1       7.437   4.912   2.627  0.00  0.00    +0.000 A 
ATOM      9  C   UNL     1       5.762   3.143   4.051  0.00  0.00    +0.000 A 
ATOM     10  C   UNL     1       7.517   5.319   6.211  0.00  0.00    +0.000 A 
ATOM     11  C   UNL     1       8.926   6.727   4.746  0.00  0.00    +0.000 C 
ENDROOT
BRANCH   7  14
ATOM     12  O   UNL     1       6.985   2.929  -0.151  0.00  0.00    +0.000 OA
ATOM     13  N   UNL     1       6.484   5.178  -0.176  0.00  0.00    +0.000 N 
ATOM     14  C   UNL     1       6.723   3.970   0.447  0.00  0.00    +0.000 C 
ATOM     15  H   UNL     1       6.628   6.061   0.298  0.00  0.00    +0.000 HD
BRANCH  13  16
ATOM     16  O   UNL     1       6.837   5.194  -1.543  0.00  0.00    +0.000 OA
BRANCH  16  17
ATOM     17  C   UNL     1       8.063   5.712  -1.605  0.00  0.00    +0.000 C 
ATOM     18  C   UNL     1       9.478   6.296  -1.681  0.00  0.00    +0.000 C 
BRANCH  18  19
ATOM     19  O   UNL     1      10.707   6.795  -1.751  0.00  0.00    +0.000 OA
ATOM     20  H   UNL     1      11.317   6.132  -2.116  0.00  0.00    +0.000 HD
ENDBRANCH  18  19
ENDBRANCH  16  17
ENDBRANCH  13  16
ENDBRANCH   7  14
BRANCH   6  21
ATOM     21  N   UNL     1       5.065   2.082   1.929  0.00  0.00    +0.000 N 
ATOM     22  H   UNL     1       5.420   1.122   2.064  0.00  0.00    +0.000 HD
BRANCH  21  25
ATOM     23 BR   UNL     1      -0.633   1.901  -0.236  0.00  0.00    +0.000 Br
ATOM     24  F   UNL     1       3.617  -0.262   1.800  0.00  0.00    +0.000 F 
ATOM     25  C   UNL     1       3.735   2.083   1.460  0.00  0.00    +0.000 A 
ATOM     26  C   UNL     1       3.030   0.870   1.379  0.00  0.00    +0.000 A 
ATOM     27  C   UNL     1       3.093   3.231   0.992  0.00  0.00    +0.000 A 
ATOM     28  C   UNL     1       1.733   0.802   0.880  0.00  0.00    +0.000 A 
ATOM     29  C   UNL     1       1.793   3.183   0.490  0.00  0.00    +0.000 A 
ATOM     30  C   UNL     1       1.123   1.967   0.439  0.00  0.00    +0.000 A 
ENDBRANCH  21  25
ENDBRANCH   6  21
TORSDOF 6
ENDMDL
MODEL 4
REMARK VINA RESULT:      -5.1     19.981     22.029
REMARK  Name = 10288191_Binimetinib.pdbqt.pdb
REMARK  6 active torsions:
REMARK  status: ('A' for Active; 'I' for Inactive)
REMARK    1  A    between atoms: C_6  and  N_21
REMARK    2  A    between atoms: C_7  and  C_14
REMARK    3  A    between atoms: N_13  and  O_16
REMARK    4  A    between atoms: O_16  and  C_17
REMARK    5  A    between atoms: C_18  and  O_19
REMARK    6  A    between atoms: N_21  and  C_25
REMARK                            x       y       z     vdW  Elec       q    Type
REMARK                         _______ _______ _______ _____ _____    ______ ____
ROOT
ATOM      1  F   UNL     1      11.043  10.882 -16.813  0.00  0.00    +0.000 F 
ATOM      2  N   UNL     1      13.628  12.826 -19.971  0.00  0.00    +0.000 N 
ATOM      3  N   UNL     1      11.594  12.594 -19.145  0.00  0.00    +0.000 NA
ATOM      4  C   UNL     1      13.787  11.995 -18.900  0.00  0.00    +0.000 A 
ATOM      5  C   UNL     1      12.497  11.865 -18.393  0.00  0.00    +0.000 A 
ATOM      6  C   UNL     1      13.379  10.390 -16.636  0.00  0.00    +0.000 A 
ATOM      7  C   UNL     1      14.673  10.544 -17.202  0.00  0.00    +0.000 A 
ATOM      8  C   UNL     1      14.888  11.346 -18.338  0.00  0.00    +0.000 A 
ATOM      9  C   UNL     1      12.297  11.057 -17.258  0.00  0.00    +0.000 A 
ATOM     10  C   UNL     1      12.314  13.166 -20.092  0.00  0.00    +0.000 A 
ATOM     11  C   UNL     1      14.672  13.289 -20.823  0.00  0.00    +0.000 C 
ENDROOT
BRANCH   7  14
ATOM     12  O   UNL     1      15.967   8.617 -16.775  0.00  0.00    +0.000 OA
ATOM     13  N   UNL     1      16.782  10.612 -15.961  0.00  0.00    +0.000 N 
ATOM     14  C   UNL     1      15.861   9.832 -16.631  0.00  0.00    +0.000 C 
ATOM     15  H   UNL     1      16.529  11.499 -15.543  0.00  0.00    +0.000 HD
BRANCH  13  16
ATOM     16  O   UNL     1      17.718   9.869 -15.209  0.00  0.00    +0.000 OA
BRANCH  16  17
ATOM     17  C   UNL     1      17.345   9.979 -13.936  0.00  0.00    +0.000 C 
ATOM     18  C   UNL     1      16.913  10.091 -12.470  0.00  0.00    +0.000 C 
BRANCH  18  19
ATOM     19  O   UNL     1      16.538  10.181 -11.198  0.00  0.00    +0.000 OA
ATOM     20  H   UNL     1      15.578  10.323 -11.141  0.00  0.00    +0.000 HD
ENDBRANCH  18  19
ENDBRANCH  16  17
ENDBRANCH  13  16
ENDBRANCH   7  14
BRANCH   6  21
ATOM     21  N   UNL     1      13.197   9.612 -15.464  0.00  0.00    +0.000 N 
ATOM     22  H   UNL     1      13.794   8.771 -15.437  0.00  0.00    +0.000 HD
BRANCH  21  25
ATOM     23 BR   UNL     1      10.966  11.177 -10.008  0.00  0.00    +0.000 Br
ATOM     24  F   UNL     1      10.666   8.880 -14.648  0.00  0.00    +0.000 F 
ATOM     25  C   UNL     1      12.727   9.957 -14.179  0.00  0.00    +0.000 A 
ATOM     26  C   UNL     1      11.424   9.595 -13.800  0.00  0.00    +0.000 A 
ATOM     27  C   UNL     1      13.471  10.717 -13.275  0.00  0.00    +0.000 A 
ATOM     28  C   UNL     1      10.889   9.948 -12.565  0.00  0.00    +0.000 A 
ATOM     29  C   UNL     1      12.954  11.080 -12.031  0.00  0.00    +0.000 A 
ATOM     30  C   UNL     1      11.666  10.691 -11.687  0.00  0.00    +0.000 A 
ENDBRANCH  21  25
ENDBRANCH   6  21
TORSDOF 6
ENDMDL
MODEL 5
REMARK VINA RESULT:      -5.1     27.834     29.756
REMARK  Name = 10288191_Binimetinib.pdbqt.pdb
REMARK  6 active torsions:
REMARK  status: ('A' for Active; 'I' for Inactive)
REMARK    1  A    between atoms: C_6  and  N_21
REMARK    2  A    between atoms: C_7  and  C_14
REMARK    3  A    between atoms: N_13  and  O_16
REMARK    4  A    between atoms: O_16  and  C_17
REMARK    5  A    between atoms: C_18  and  O_19
REMARK    6  A    between atoms: N_21  and  C_25
REMARK                            x       y       z     vdW  Elec       q    Type
REMARK                         _______ _______ _______ _____ _____    ______ ____
ROOT
ATOM      1  F   UNL     1     -14.824   9.936 -10.009  0.00  0.00    +0.000 F 
ATOM      2  N   UNL     1     -12.163   6.396 -10.912  0.00  0.00    +0.000 N 
ATOM      3  N   UNL     1     -13.618   7.853 -11.706  0.00  0.00    +0.000 NA
ATOM      4  C   UNL     1     -12.460   7.196  -9.847  0.00  0.00    +0.000 A 
ATOM      5  C   UNL     1     -13.373   8.108 -10.369  0.00  0.00    +0.000 A 
ATOM      6  C   UNL     1     -13.501   9.182  -8.162  0.00  0.00    +0.000 A 
ATOM      7  C   UNL     1     -12.578   8.218  -7.675  0.00  0.00    +0.000 A 
ATOM      8  C   UNL     1     -12.050   7.218  -8.513  0.00  0.00    +0.000 A 
ATOM      9  C   UNL     1     -13.895   9.101  -9.518  0.00  0.00    +0.000 A 
ATOM     10  C   UNL     1     -12.866   6.810 -12.003  0.00  0.00    +0.000 A 
ATOM     11  C   UNL     1     -11.245   5.306 -10.898  0.00  0.00    +0.000 C 
ENDROOT
BRANCH   7  14
ATOM     12  O   UNL     1     -11.229   8.934  -5.876  0.00  0.00    +0.000 OA
ATOM     13  N   UNL     1     -12.836   7.353  -5.399  0.00  0.00    +0.000 N 
ATOM     14  C   UNL     1     -12.150   8.206  -6.240  0.00  0.00    +0.000 C 
ATOM     15  H   UNL     1     -13.315   6.531  -5.747  0.00  0.00    +0.000 HD
BRANCH  13  16
ATOM     16  O   UNL     1     -12.217   7.171  -4.144  0.00  0.00    +0.000 OA
BRANCH  16  17
ATOM     17  C   UNL     1     -13.133   6.614  -3.354  0.00  0.00    +0.000 C 
ATOM     18  C   UNL     1     -14.179   5.962  -2.442  0.00  0.00    +0.000 C 
BRANCH  18  19
ATOM     19  O   UNL     1     -15.079   5.392  -1.649  0.00  0.00    +0.000 OA
ATOM     20  H   UNL     1     -15.931   5.855  -1.723  0.00  0.00    +0.000 HD
ENDBRANCH  18  19
ENDBRANCH  16  17
ENDBRANCH  13  16
ENDBRANCH   7  14
BRANCH   6  21
ATOM     21  N   UNL     1     -13.984  10.207  -7.309  0.00  0.00    +0.000 N 
ATOM     22  H   UNL     1     -14.519   9.847  -6.503  0.00  0.00    +0.000 HD
BRANCH  21  25
ATOM     23 BR   UNL     1     -12.178  15.918  -6.161  0.00  0.00    +0.000 Br
ATOM     24  F   UNL     1     -13.283  11.044  -4.776  0.00  0.00    +0.000 F 
ATOM     25  C   UNL     1     -13.532  11.525  -7.086  0.00  0.00    +0.000 A 
ATOM     26  C   UNL     1     -13.208  11.932  -5.781  0.00  0.00    +0.000 A 
ATOM     27  C   UNL     1     -13.460  12.487  -8.096  0.00  0.00    +0.000 A 
ATOM     28  C   UNL     1     -12.802  13.231  -5.492  0.00  0.00    +0.000 A 
ATOM     29  C   UNL     1     -13.054  13.794  -7.827  0.00  0.00    +0.000 A 
ATOM     30  C   UNL     1     -12.728  14.155  -6.526  0.00  0.00    +0.000 A 
ENDBRANCH  21  25
ENDBRANCH   6  21
TORSDOF 6
ENDMDL
MODEL 6
REMARK VINA RESULT:      -5.0     18.957     21.535
REMARK  Name = 10288191_Binimetinib.pdbqt.pdb
REMARK  6 active torsions:
REMARK  status: ('A' for Active; 'I' for Inactive)
REMARK    1  A    between atoms: C_6  and  N_21
REMARK    2  A    between atoms: C_7  and  C_14
REMARK    3  A    between atoms: N_13  and  O_16
REMARK    4  A    between atoms: O_16  and  C_17
REMARK    5  A    between atoms: C_18  and  O_19
REMARK    6  A    between atoms: N_21  and  C_25
REMARK                            x       y       z     vdW  Elec       q    Type
REMARK                         _______ _______ _______ _____ _____    ______ ____
ROOT
ATOM      1  F   UNL     1      10.296   2.385 -19.045  0.00  0.00    +0.000 F 
ATOM      2  N   UNL     1      13.430   1.764 -22.243  0.00  0.00    +0.000 N 
ATOM      3  N   UNL     1      12.961   1.685 -20.088  0.00  0.00    +0.000 NA
ATOM      4  C   UNL     1      12.116   2.124 -22.166  0.00  0.00    +0.000 A 
ATOM      5  C   UNL     1      11.839   2.063 -20.804  0.00  0.00    +0.000 A 
ATOM      6  C   UNL     1       9.528   2.749 -21.283  0.00  0.00    +0.000 A 
ATOM      7  C   UNL     1       9.866   2.809 -22.661  0.00  0.00    +0.000 A 
ATOM      8  C   UNL     1      11.161   2.498 -23.114  0.00  0.00    +0.000 A 
ATOM      9  C   UNL     1      10.540   2.380 -20.365  0.00  0.00    +0.000 A 
ATOM     10  C   UNL     1      13.906   1.510 -20.992  0.00  0.00    +0.000 A 
ATOM     11  C   UNL     1      14.190   1.651 -23.444  0.00  0.00    +0.000 C 
ENDROOT
BRANCH   7  14
ATOM     12  O   UNL     1       8.293   2.389 -24.369  0.00  0.00    +0.000 OA
ATOM     13  N   UNL     1       8.647   4.596 -23.809  0.00  0.00    +0.000 N 
ATOM     14  C   UNL     1       8.865   3.238 -23.689  0.00  0.00    +0.000 C 
ATOM     15  H   UNL     1       9.343   5.275 -23.529  0.00  0.00    +0.000 HD
BRANCH  13  16
ATOM     16  O   UNL     1       7.923   4.957 -24.965  0.00  0.00    +0.000 OA
BRANCH  16  17
ATOM     17  C   UNL     1       8.524   6.037 -25.459  0.00  0.00    +0.000 C 
ATOM     18  C   UNL     1       9.227   7.274 -26.029  0.00  0.00    +0.000 C 
BRANCH  18  19
ATOM     19  O   UNL     1       9.844   8.341 -26.525  0.00  0.00    +0.000 OA
ATOM     20  H   UNL     1       9.249   9.110 -26.508  0.00  0.00    +0.000 HD
ENDBRANCH  18  19
ENDBRANCH  16  17
ENDBRANCH  13  16
ENDBRANCH   7  14
BRANCH   6  21
ATOM     21  N   UNL     1       8.203   3.023 -20.856  0.00  0.00    +0.000 N 
ATOM     22  H   UNL     1       7.745   3.767 -21.405  0.00  0.00    +0.000 HD
BRANCH  21  25
ATOM     23 BR   UNL     1       3.980  -0.383 -18.072  0.00  0.00    +0.000 Br
ATOM     24  F   UNL     1       6.875   0.982 -22.151  0.00  0.00    +0.000 F 
ATOM     25  C   UNL     1       7.261   2.229 -20.170  0.00  0.00    +0.000 A 
ATOM     26  C   UNL     1       6.579   1.214 -20.862  0.00  0.00    +0.000 A 
ATOM     27  C   UNL     1       6.906   2.448 -18.838  0.00  0.00    +0.000 A 
ATOM     28  C   UNL     1       5.605   0.430 -20.252  0.00  0.00    +0.000 A 
ATOM     29  C   UNL     1       5.933   1.672 -18.207  0.00  0.00    +0.000 A 
ATOM     30  C   UNL     1       5.291   0.667 -18.921  0.00  0.00    +0.000 A 
ENDBRANCH  21  25
ENDBRANCH   6  21
TORSDOF 6
ENDMDL
MODEL 7
REMARK VINA RESULT:      -5.0      1.550      2.232
REMARK  Name = 10288191_Binimetinib.pdbqt.pdb
REMARK  6 active torsions:
REMARK  status: ('A' for Active; 'I' for Inactive)
REMARK    1  A    between atoms: C_6  and  N_21
REMARK    2  A    between atoms: C_7  and  C_14
REMARK    3  A    between atoms: N_13  and  O_16
REMARK    4  A    between atoms: O_16  and  C_17
REMARK    5  A    between atoms: C_18  and  O_19
REMARK    6  A    between atoms: N_21  and  C_25
REMARK                            x       y       z     vdW  Elec       q    Type
REMARK                         _______ _______ _______ _____ _____    ______ ____
ROOT
ATOM      1  F   UNL     1       8.444  -5.768  -4.675  0.00  0.00    +0.000 F 
ATOM      2  N   UNL     1      11.234  -5.423  -8.215  0.00  0.00    +0.000 N 
ATOM      3  N   UNL     1       9.313  -4.806  -7.320  0.00  0.00    +0.000 NA
ATOM      4  C   UNL     1      11.209  -6.044  -7.000  0.00  0.00    +0.000 A 
ATOM      5  C   UNL     1       9.995  -5.639  -6.452  0.00  0.00    +0.000 A 
ATOM      6  C   UNL     1      10.504  -6.966  -4.446  0.00  0.00    +0.000 A 
ATOM      7  C   UNL     1      11.724  -7.360  -5.057  0.00  0.00    +0.000 A 
ATOM      8  C   UNL     1      12.087  -6.903  -6.337  0.00  0.00    +0.000 A 
ATOM      9  C   UNL     1       9.644  -6.107  -5.171  0.00  0.00    +0.000 A 
ATOM     10  C   UNL     1      10.094  -4.695  -8.378  0.00  0.00    +0.000 A 
ATOM     11  C   UNL     1      12.294  -5.502  -9.164  0.00  0.00    +0.000 C 
ENDROOT
BRANCH   7  14
ATOM     12  O   UNL     1      13.205  -7.971  -3.324  0.00  0.00    +0.000 OA
ATOM     13  N   UNL     1      12.870  -9.524  -4.993  0.00  0.00    +0.000 N 
ATOM     14  C   UNL     1      12.665  -8.306  -4.375  0.00  0.00    +0.000 C 
ATOM     15  H   UNL     1      12.726  -9.649  -5.987  0.00  0.00    +0.000 HD
BRANCH  13  16
ATOM     16  O   UNL     1      13.963 -10.250  -4.473  0.00  0.00    +0.000 OA
BRANCH  16  17
ATOM     17  C   UNL     1      15.024  -9.892  -5.193  0.00  0.00    +0.000 C 
ATOM     18  C   UNL     1      16.238  -9.472  -6.030  0.00  0.00    +0.000 C 
BRANCH  18  19
ATOM     19  O   UNL     1      17.285  -9.102  -6.759  0.00  0.00    +0.000 OA
ATOM     20  H   UNL     1      17.808  -8.437  -6.280  0.00  0.00    +0.000 HD
ENDBRANCH  18  19
ENDBRANCH  16  17
ENDBRANCH  13  16
ENDBRANCH   7  14
BRANCH   6  21
ATOM     21  N   UNL     1      10.183  -7.405  -3.136  0.00  0.00    +0.000 N 
ATOM     22  H   UNL     1      10.111  -8.431  -3.057  0.00  0.00    +0.000 HD
BRANCH  21  25
ATOM     23 BR   UNL     1      10.904  -4.972   2.409  0.00  0.00    +0.000 Br
ATOM     24  F   UNL     1      11.203  -8.850  -1.020  0.00  0.00    +0.000 F 
ATOM     25  C   UNL     1      10.374  -6.799  -1.876  0.00  0.00    +0.000 A 
ATOM     26  C   UNL     1      10.869  -7.566  -0.809  0.00  0.00    +0.000 A 
ATOM     27  C   UNL     1      10.021  -5.475  -1.606  0.00  0.00    +0.000 A 
ATOM     28  C   UNL     1      11.034  -7.037   0.467  0.00  0.00    +0.000 A 
ATOM     29  C   UNL     1      10.180  -4.925  -0.335  0.00  0.00    +0.000 A 
ATOM     30  C   UNL     1      10.687  -5.712   0.692  0.00  0.00    +0.000 A 
ENDBRANCH  21  25
ENDBRANCH   6  21
TORSDOF 6
ENDMDL
MODEL 8
REMARK VINA RESULT:      -4.9     28.453     30.984
REMARK  Name = 10288191_Binimetinib.pdbqt.pdb
REMARK  6 active torsions:
REMARK  status: ('A' for Active; 'I' for Inactive)
REMARK    1  A    between atoms: C_6  and  N_21
REMARK    2  A    between atoms: C_7  and  C_14
REMARK    3  A    between atoms: N_13  and  O_16
REMARK    4  A    between atoms: O_16  and  C_17
REMARK    5  A    between atoms: C_18  and  O_19
REMARK    6  A    between atoms: N_21  and  C_25
REMARK                            x       y       z     vdW  Elec       q    Type
REMARK                         _______ _______ _______ _____ _____    ______ ____
ROOT
ATOM      1  F   UNL     1     -12.632   4.877 -12.256  0.00  0.00    +0.000 F 
ATOM      2  N   UNL     1     -10.998   6.384  -8.320  0.00  0.00    +0.000 N 
ATOM      3  N   UNL     1     -10.838   4.873  -9.920  0.00  0.00    +0.000 NA
ATOM      4  C   UNL     1     -11.964   6.735  -9.219  0.00  0.00    +0.000 A 
ATOM      5  C   UNL     1     -11.843   5.775 -10.219  0.00  0.00    +0.000 A 
ATOM      6  C   UNL     1     -13.680   6.866 -11.434  0.00  0.00    +0.000 A 
ATOM      7  C   UNL     1     -13.772   7.813 -10.379  0.00  0.00    +0.000 A 
ATOM      8  C   UNL     1     -12.915   7.756  -9.264  0.00  0.00    +0.000 A 
ATOM      9  C   UNL     1     -12.709   5.843 -11.328  0.00  0.00    +0.000 A 
ATOM     10  C   UNL     1     -10.346   5.274  -8.763  0.00  0.00    +0.000 A 
ATOM     11  C   UNL     1     -10.699   7.079  -7.112  0.00  0.00    +0.000 C 
ENDROOT
BRANCH   7  14
ATOM     12  O   UNL     1     -15.059   9.478 -11.446  0.00  0.00    +0.000 OA
ATOM     13  N   UNL     1     -15.420   9.178  -9.190  0.00  0.00    +0.000 N 
ATOM     14  C   UNL     1     -14.806   8.897 -10.394  0.00  0.00    +0.000 C 
ATOM     15  H   UNL     1     -14.977   8.973  -8.303  0.00  0.00    +0.000 HD
BRANCH  13  16
ATOM     16  O   UNL     1     -16.164  10.378  -9.197  0.00  0.00    +0.000 OA
BRANCH  16  17
ATOM     17  C   UNL     1     -15.465  11.254  -8.478  0.00  0.00    +0.000 C 
ATOM     18  C   UNL     1     -14.670  12.272  -7.653  0.00  0.00    +0.000 C 
BRANCH  18  19
ATOM     19  O   UNL     1     -13.987  13.161  -6.939  0.00  0.00    +0.000 OA
ATOM     20  H   UNL     1     -13.601  13.834  -7.524  0.00  0.00    +0.000 HD
ENDBRANCH  18  19
ENDBRANCH  16  17
ENDBRANCH  13  16
ENDBRANCH   7  14
BRANCH   6  21
ATOM     21  N   UNL     1     -14.525   6.973 -12.568  0.00  0.00    +0.000 N 
ATOM     22  H   UNL     1     -14.071   7.438 -13.370  0.00  0.00    +0.000 HD
BRANCH  21  25
ATOM     23 BR   UNL     1     -19.310   3.746 -14.538  0.00  0.00    +0.000 Br
ATOM     24  F   UNL     1     -14.299   5.079 -14.561  0.00  0.00    +0.000 F 
ATOM     25  C   UNL     1     -15.645   6.216 -12.972  0.00  0.00    +0.000 A 
ATOM     26  C   UNL     1     -15.507   5.278 -14.008  0.00  0.00    +0.000 A 
ATOM     27  C   UNL     1     -16.922   6.404 -12.441  0.00  0.00    +0.000 A 
ATOM     28  C   UNL     1     -16.585   4.536 -14.481  0.00  0.00    +0.000 A 
ATOM     29  C   UNL     1     -18.016   5.670 -12.901  0.00  0.00    +0.000 A 
ATOM     30  C   UNL     1     -17.837   4.740 -13.918  0.00  0.00    +0.000 A 
ENDBRANCH  21  25
ENDBRANCH   6  21
TORSDOF 6
ENDMDL
MODEL 9
REMARK VINA RESULT:      -4.9     28.288     31.163
REMARK  Name = 10288191_Binimetinib.pdbqt.pdb
REMARK  6 active torsions:
REMARK  status: ('A' for Active; 'I' for Inactive)
REMARK    1  A    between atoms: C_6  and  N_21
REMARK    2  A    between atoms: C_7  and  C_14
REMARK    3  A    between atoms: N_13  and  O_16
REMARK    4  A    between atoms: O_16  and  C_17
REMARK    5  A    between atoms: C_18  and  O_19
REMARK    6  A    between atoms: N_21  and  C_25
REMARK                            x       y       z     vdW  Elec       q    Type
REMARK                         _______ _______ _______ _____ _____    ______ ____
ROOT
ATOM      1  F   UNL     1     -10.008   0.679 -21.440  0.00  0.00    +0.000 F 
ATOM      2  N   UNL     1      -9.924  -3.068 -18.914  0.00  0.00    +0.000 N 
ATOM      3  N   UNL     1      -9.184  -1.005 -19.168  0.00  0.00    +0.000 NA
ATOM      4  C   UNL     1     -10.546  -2.620 -20.044  0.00  0.00    +0.000 A 
ATOM      5  C   UNL     1     -10.069  -1.320 -20.183  0.00  0.00    +0.000 A 
ATOM      6  C   UNL     1     -11.443  -1.077 -22.207  0.00  0.00    +0.000 A 
ATOM      7  C   UNL     1     -11.886  -2.414 -22.027  0.00  0.00    +0.000 A 
ATOM      8  C   UNL     1     -11.442  -3.196 -20.945  0.00  0.00    +0.000 A 
ATOM      9  C   UNL     1     -10.520  -0.550 -21.272  0.00  0.00    +0.000 A 
ATOM     10  C   UNL     1      -9.121  -2.087 -18.416  0.00  0.00    +0.000 A 
ATOM     11  C   UNL     1     -10.100  -4.356 -18.328  0.00  0.00    +0.000 C 
ENDROOT
BRANCH   7  14
ATOM     12  O   UNL     1     -14.035  -2.913 -22.863  0.00  0.00    +0.000 OA
ATOM     13  N   UNL     1     -12.247  -3.799 -24.014  0.00  0.00    +0.000 N 
ATOM     14  C   UNL     1     -12.824  -3.060 -23.001  0.00  0.00    +0.000 C 
ATOM     15  H   UNL     1     -11.324  -4.205 -23.920  0.00  0.00    +0.000 HD
BRANCH  13  16
ATOM     16  O   UNL     1     -13.162  -4.608 -24.721  0.00  0.00    +0.000 OA
BRANCH  16  17
ATOM     17  C   UNL     1     -13.238  -4.099 -25.949  0.00  0.00    +0.000 C 
ATOM     18  C   UNL     1     -13.329  -3.500 -27.357  0.00  0.00    +0.000 C 
BRANCH  18  19
ATOM     19  O   UNL     1     -13.409  -2.974 -28.574  0.00  0.00    +0.000 OA
ATOM     20  H   UNL     1     -12.832  -3.460 -29.188  0.00  0.00    +0.000 HD
ENDBRANCH  18  19
ENDBRANCH  16  17
ENDBRANCH  13  16
ENDBRANCH   7  14
BRANCH   6  21
ATOM     21  N   UNL     1     -11.940  -0.294 -23.281  0.00  0.00    +0.000 N 
ATOM     22  H   UNL     1     -11.530  -0.547 -24.193  0.00  0.00    +0.000 HD
BRANCH  21  25
ATOM     23 BR   UNL     1     -17.197   2.767 -23.712  0.00  0.00    +0.000 Br
ATOM     24  F   UNL     1     -12.551   1.817 -21.614  0.00  0.00    +0.000 F 
ATOM     25  C   UNL     1     -13.148   0.418 -23.434  0.00  0.00    +0.000 A 
ATOM     26  C   UNL     1     -13.446   1.471 -22.554  0.00  0.00    +0.000 A 
ATOM     27  C   UNL     1     -14.117   0.079 -24.382  0.00  0.00    +0.000 A 
ATOM     28  C   UNL     1     -14.642   2.178 -22.626  0.00  0.00    +0.000 A 
ATOM     29  C   UNL     1     -15.321   0.777 -24.471  0.00  0.00    +0.000 A 
ATOM     30  C   UNL     1     -15.573   1.823 -23.592  0.00  0.00    +0.000 A 
ENDBRANCH  21  25
ENDBRANCH   6  21
TORSDOF 6
ENDMDL
