MODEL 1
REMARK VINA RESULT:      -4.6      0.000      0.000
REMARK  Name = 10281_Thymoquinone.pdbqt.pdb
REMARK  1 active torsions:
REMARK  status: ('A' for Active; 'I' for Inactive)
REMARK    1  A    between atoms: C_3  and  C_10
REMARK                            x       y       z     vdW  Elec       q    Type
REMARK                         _______ _______ _______ _____ _____    ______ ____
ROOT
ATOM      1  O   UNL     1      -2.249  -3.226 -18.742  0.00  0.00    +0.000 OA
ATOM      2  O   UNL     1      -1.686   2.122 -18.892  0.00  0.00    +0.000 OA
ATOM      3  C   UNL     1      -3.181  -1.079 -18.132  0.00  0.00    +0.000 C 
ATOM      4  C   UNL     1      -2.178  -2.013 -18.744  0.00  0.00    +0.000 C 
ATOM      5  C   UNL     1      -2.825   0.170 -18.297  0.00  0.00    +0.000 C 
ATOM      6  C   UNL     1      -0.706  -0.059 -19.533  0.00  0.00    +0.000 C 
ATOM      7  C   UNL     1      -1.719   0.907 -18.913  0.00  0.00    +0.000 C 
ATOM      8  C   UNL     1      -1.067  -1.302 -19.365  0.00  0.00    +0.000 C 
ATOM      9  C   UNL     1       0.550   0.317 -20.251  0.00  0.00    +0.000 C 
ENDROOT
BRANCH   3  10
ATOM     10  C   UNL     1      -4.339  -1.587 -17.473  0.00  0.00    +0.000 C 
ATOM     11  C   UNL     1      -4.579  -1.297 -16.012  0.00  0.00    +0.000 C 
ATOM     12  C   UNL     1      -5.535  -2.046 -18.270  0.00  0.00    +0.000 C 
ENDBRANCH   3  10
TORSDOF 1
ENDMDL
MODEL 2
REMARK VINA RESULT:      -4.4      8.805     11.578
REMARK  Name = 10281_Thymoquinone.pdbqt.pdb
REMARK  1 active torsions:
REMARK  status: ('A' for Active; 'I' for Inactive)
REMARK    1  A    between atoms: C_3  and  C_10
REMARK                            x       y       z     vdW  Elec       q    Type
REMARK                         _______ _______ _______ _____ _____    ______ ____
ROOT
ATOM      1  O   UNL     1       9.738  -0.986 -18.553  0.00  0.00    +0.000 OA
ATOM      2  O   UNL     1       6.030   2.903 -18.796  0.00  0.00    +0.000 OA
ATOM      3  C   UNL     1       9.113   1.253 -17.885  0.00  0.00    +0.000 C 
ATOM      4  C   UNL     1       8.939  -0.071 -18.570  0.00  0.00    +0.000 C 
ATOM      5  C   UNL     1       8.079   2.030 -18.090  0.00  0.00    +0.000 C 
ATOM      6  C   UNL     1       6.639   0.608 -19.496  0.00  0.00    +0.000 C 
ATOM      7  C   UNL     1       6.802   1.964 -18.803  0.00  0.00    +0.000 C 
ATOM      8  C   UNL     1       7.672  -0.161 -19.287  0.00  0.00    +0.000 C 
ATOM      9  C   UNL     1       5.469   0.169 -20.315  0.00  0.00    +0.000 C 
ENDROOT
BRANCH   3  10
ATOM     10  C   UNL     1      10.292   1.533 -17.134  0.00  0.00    +0.000 C 
ATOM     11  C   UNL     1      10.422   1.063 -15.706  0.00  0.00    +0.000 C 
ATOM     12  C   UNL     1      11.574   1.912 -17.833  0.00  0.00    +0.000 C 
ENDBRANCH   3  10
TORSDOF 1
ENDMDL
MODEL 3
REMARK VINA RESULT:      -4.4     18.619     19.097
REMARK  Name = 10281_Thymoquinone.pdbqt.pdb
REMARK  1 active torsions:
REMARK  status: ('A' for Active; 'I' for Inactive)
REMARK    1  A    between atoms: C_3  and  C_10
REMARK                            x       y       z     vdW  Elec       q    Type
REMARK                         _______ _______ _______ _____ _____    ______ ____
ROOT
ATOM      1  O   UNL     1      10.961  -8.236  -7.333  0.00  0.00    +0.000 OA
ATOM      2  O   UNL     1      12.678  -3.170  -6.757  0.00  0.00    +0.000 OA
ATOM      3  C   UNL     1      10.960  -6.247  -5.956  0.00  0.00    +0.000 C 
ATOM      4  C   UNL     1      11.316  -7.089  -7.147  0.00  0.00    +0.000 C 
ATOM      5  C   UNL     1      11.495  -5.055  -6.043  0.00  0.00    +0.000 C 
ATOM      6  C   UNL     1      12.698  -5.188  -8.190  0.00  0.00    +0.000 C 
ATOM      7  C   UNL     1      12.344  -4.317  -6.981  0.00  0.00    +0.000 C 
ATOM      8  C   UNL     1      12.162  -6.375  -8.096  0.00  0.00    +0.000 C 
ATOM      9  C   UNL     1      13.542  -4.784  -9.354  0.00  0.00    +0.000 C 
ENDROOT
BRANCH   3  10
ATOM     10  C   UNL     1      10.141  -6.772  -4.914  0.00  0.00    +0.000 C 
ATOM     11  C   UNL     1      10.763  -7.431  -3.707  0.00  0.00    +0.000 C 
ATOM     12  C   UNL     1       8.706  -6.329  -4.769  0.00  0.00    +0.000 C 
ENDBRANCH   3  10
TORSDOF 1
ENDMDL
MODEL 4
REMARK VINA RESULT:      -4.3     13.680     14.325
REMARK  Name = 10281_Thymoquinone.pdbqt.pdb
REMARK  1 active torsions:
REMARK  status: ('A' for Active; 'I' for Inactive)
REMARK    1  A    between atoms: C_3  and  C_10
REMARK                            x       y       z     vdW  Elec       q    Type
REMARK                         _______ _______ _______ _____ _____    ______ ____
ROOT
ATOM      1  O   UNL     1      11.090  -2.570 -17.102  0.00  0.00    +0.000 OA
ATOM      2  O   UNL     1      11.691   2.629 -18.348  0.00  0.00    +0.000 OA
ATOM      3  C   UNL     1      11.649  -0.954 -18.813  0.00  0.00    +0.000 C 
ATOM      4  C   UNL     1      11.242  -1.414 -17.443  0.00  0.00    +0.000 C 
ATOM      5  C   UNL     1      11.728   0.352 -18.870  0.00  0.00    +0.000 C 
ATOM      6  C   UNL     1      11.115   1.002 -16.573  0.00  0.00    +0.000 C 
ATOM      7  C   UNL     1      11.529   1.486 -17.966  0.00  0.00    +0.000 C 
ATOM      8  C   UNL     1      11.039  -0.300 -16.524  0.00  0.00    +0.000 C 
ATOM      9  C   UNL     1      10.826   1.863 -15.387  0.00  0.00    +0.000 C 
ENDROOT
BRANCH   3  10
ATOM     10  C   UNL     1      11.891  -1.898 -19.854  0.00  0.00    +0.000 C 
ATOM     11  C   UNL     1      13.211  -2.627 -19.937  0.00  0.00    +0.000 C 
ATOM     12  C   UNL     1      10.743  -2.504 -20.623  0.00  0.00    +0.000 C 
ENDBRANCH   3  10
TORSDOF 1
ENDMDL
MODEL 5
REMARK VINA RESULT:      -4.2      9.899     12.396
REMARK  Name = 10281_Thymoquinone.pdbqt.pdb
REMARK  1 active torsions:
REMARK  status: ('A' for Active; 'I' for Inactive)
REMARK    1  A    between atoms: C_3  and  C_10
REMARK                            x       y       z     vdW  Elec       q    Type
REMARK                         _______ _______ _______ _____ _____    ______ ____
ROOT
ATOM      1  O   UNL     1       8.523  -0.513 -19.407  0.00  0.00    +0.000 OA
ATOM      2  O   UNL     1      11.223   2.376 -15.759  0.00  0.00    +0.000 OA
ATOM      3  C   UNL     1       8.809   1.642 -18.347  0.00  0.00    +0.000 C 
ATOM      4  C   UNL     1       9.097   0.190 -18.599  0.00  0.00    +0.000 C 
ATOM      5  C   UNL     1       9.594   2.124 -17.416  0.00  0.00    +0.000 C 
ATOM      6  C   UNL     1      10.956   0.157 -16.825  0.00  0.00    +0.000 C 
ATOM      7  C   UNL     1      10.674   1.638 -16.555  0.00  0.00    +0.000 C 
ATOM      8  C   UNL     1      10.171  -0.316 -17.754  0.00  0.00    +0.000 C 
ATOM      9  C   UNL     1      11.987  -0.685 -16.145  0.00  0.00    +0.000 C 
ENDROOT
BRANCH   3  10
ATOM     10  C   UNL     1       7.788   2.318 -19.076  0.00  0.00    +0.000 C 
ATOM     11  C   UNL     1       8.030   2.771 -20.495  0.00  0.00    +0.000 C 
ATOM     12  C   UNL     1       6.346   2.229 -18.639  0.00  0.00    +0.000 C 
ENDBRANCH   3  10
TORSDOF 1
ENDMDL
MODEL 6
REMARK VINA RESULT:      -4.0     12.347     13.485
REMARK  Name = 10281_Thymoquinone.pdbqt.pdb
REMARK  1 active torsions:
REMARK  status: ('A' for Active; 'I' for Inactive)
REMARK    1  A    between atoms: C_3  and  C_10
REMARK                            x       y       z     vdW  Elec       q    Type
REMARK                         _______ _______ _______ _____ _____    ______ ____
ROOT
ATOM      1  O   UNL     1       8.949  -0.829 -18.781  0.00  0.00    +0.000 OA
ATOM      2  O   UNL     1      12.317   3.074 -20.322  0.00  0.00    +0.000 OA
ATOM      3  C   UNL     1      10.726   0.680 -18.132  0.00  0.00    +0.000 C 
ATOM      4  C   UNL     1       9.733   0.054 -19.069  0.00  0.00    +0.000 C 
ATOM      5  C   UNL     1      11.430   1.602 -18.738  0.00  0.00    +0.000 C 
ATOM      6  C   UNL     1      10.499   1.544 -21.018  0.00  0.00    +0.000 C 
ATOM      7  C   UNL     1      11.517   2.191 -20.075  0.00  0.00    +0.000 C 
ATOM      8  C   UNL     1       9.800   0.626 -20.408  0.00  0.00    +0.000 C 
ATOM      9  C   UNL     1      10.288   1.882 -22.459  0.00  0.00    +0.000 C 
ENDROOT
BRANCH   3  10
ATOM     10  C   UNL     1      10.814   0.251 -16.775  0.00  0.00    +0.000 C 
ATOM     11  C   UNL     1      11.629  -0.965 -16.407  0.00  0.00    +0.000 C 
ATOM     12  C   UNL     1      10.473   1.194 -15.648  0.00  0.00    +0.000 C 
ENDBRANCH   3  10
TORSDOF 1
ENDMDL
MODEL 7
REMARK VINA RESULT:      -4.0     13.269     15.005
REMARK  Name = 10281_Thymoquinone.pdbqt.pdb
REMARK  1 active torsions:
REMARK  status: ('A' for Active; 'I' for Inactive)
REMARK    1  A    between atoms: C_3  and  C_10
REMARK                            x       y       z     vdW  Elec       q    Type
REMARK                         _______ _______ _______ _____ _____    ______ ____
ROOT
ATOM      1  O   UNL     1      10.764  -0.567 -18.369  0.00  0.00    +0.000 OA
ATOM      2  O   UNL     1      14.221   2.192 -21.432  0.00  0.00    +0.000 OA
ATOM      3  C   UNL     1      11.880   1.544 -18.755  0.00  0.00    +0.000 C 
ATOM      4  C   UNL     1      11.535   0.107 -19.023  0.00  0.00    +0.000 C 
ATOM      5  C   UNL     1      12.741   1.994 -19.634  0.00  0.00    +0.000 C 
ATOM      6  C   UNL     1      13.094   0.019 -21.064  0.00  0.00    +0.000 C 
ATOM      7  C   UNL     1      13.458   1.483 -20.804  0.00  0.00    +0.000 C 
ATOM      8  C   UNL     1      12.237  -0.424 -20.185  0.00  0.00    +0.000 C 
ATOM      9  C   UNL     1      13.621  -0.841 -22.167  0.00  0.00    +0.000 C 
ENDROOT
BRANCH   3  10
ATOM     10  C   UNL     1      11.296   2.239 -17.657  0.00  0.00    +0.000 C 
ATOM     11  C   UNL     1       9.981   2.963 -17.818  0.00  0.00    +0.000 C 
ATOM     12  C   UNL     1      11.722   1.934 -16.242  0.00  0.00    +0.000 C 
ENDBRANCH   3  10
TORSDOF 1
ENDMDL
MODEL 8
REMARK VINA RESULT:      -4.0     17.972     20.061
REMARK  Name = 10281_Thymoquinone.pdbqt.pdb
REMARK  1 active torsions:
REMARK  status: ('A' for Active; 'I' for Inactive)
REMARK    1  A    between atoms: C_3  and  C_10
REMARK                            x       y       z     vdW  Elec       q    Type
REMARK                         _______ _______ _______ _____ _____    ______ ____
ROOT
ATOM      1  O   UNL     1      -8.940  -2.640   1.171  0.00  0.00    +0.000 OA
ATOM      2  O   UNL     1     -12.291   0.614  -1.499  0.00  0.00    +0.000 OA
ATOM      3  C   UNL     1      -9.923  -2.063  -0.963  0.00  0.00    +0.000 C 
ATOM      4  C   UNL     1      -9.682  -1.937   0.514  0.00  0.00    +0.000 C 
ATOM      5  C   UNL     1     -10.777  -1.162  -1.381  0.00  0.00    +0.000 C 
ATOM      6  C   UNL     1     -11.303   0.050   0.699  0.00  0.00    +0.000 C 
ATOM      7  C   UNL     1     -11.560  -0.066  -0.806  0.00  0.00    +0.000 C 
ATOM      8  C   UNL     1     -10.451  -0.851   1.109  0.00  0.00    +0.000 C 
ATOM      9  C   UNL     1     -11.917   1.047   1.627  0.00  0.00    +0.000 C 
ENDROOT
BRANCH   3  10
ATOM     10  C   UNL     1      -9.262  -3.072  -1.723  0.00  0.00    +0.000 C 
ATOM     11  C   UNL     1     -10.057  -4.123  -2.459  0.00  0.00    +0.000 C 
ATOM     12  C   UNL     1      -7.830  -2.887  -2.162  0.00  0.00    +0.000 C 
ENDBRANCH   3  10
TORSDOF 1
ENDMDL
MODEL 9
REMARK VINA RESULT:      -3.9     21.876     22.717
REMARK  Name = 10281_Thymoquinone.pdbqt.pdb
REMARK  1 active torsions:
REMARK  status: ('A' for Active; 'I' for Inactive)
REMARK    1  A    between atoms: C_3  and  C_10
REMARK                            x       y       z     vdW  Elec       q    Type
REMARK                         _______ _______ _______ _____ _____    ______ ____
ROOT
ATOM      1  O   UNL     1       7.980   6.182   1.063  0.00  0.00    +0.000 OA
ATOM      2  O   UNL     1      10.439   1.473   0.216  0.00  0.00    +0.000 OA
ATOM      3  C   UNL     1       8.238   4.273  -0.399  0.00  0.00    +0.000 C 
ATOM      4  C   UNL     1       8.502   5.113   0.817  0.00  0.00    +0.000 C 
ATOM      5  C   UNL     1       8.954   3.176  -0.380  0.00  0.00    +0.000 C 
ATOM      6  C   UNL     1      10.197   3.413   1.735  0.00  0.00    +0.000 C 
ATOM      7  C   UNL     1       9.940   2.545   0.500  0.00  0.00    +0.000 C 
ATOM      8  C   UNL     1       9.480   4.503   1.709  0.00  0.00    +0.000 C 
ATOM      9  C   UNL     1      11.134   3.100   2.856  0.00  0.00    +0.000 C 
ENDROOT
BRANCH   3  10
ATOM     10  C   UNL     1       7.312   4.704  -1.393  0.00  0.00    +0.000 C 
ATOM     11  C   UNL     1       7.768   4.959  -2.809  0.00  0.00    +0.000 C 
ATOM     12  C   UNL     1       5.828   4.515  -1.192  0.00  0.00    +0.000 C 
ENDBRANCH   3  10
TORSDOF 1
ENDMDL
