MODEL 1
REMARK VINA RESULT:      -6.2      0.000      0.000
REMARK  Name = 10639_Physcion.pdbqt.pdb
REMARK  3 active torsions:
REMARK  status: ('A' for Active; 'I' for Inactive)
REMARK    1  A    between atoms: C_10  and  O_18
REMARK    2  A    between atoms: C_12  and  O_20
REMARK    3  A    between atoms: C_15  and  O_22
REMARK                            x       y       z     vdW  Elec       q    Type
REMARK                         _______ _______ _______ _____ _____    ______ ____
ROOT
ATOM      1  O   UNL     1       5.603   2.475 -18.621  0.00  0.00    +0.000 OA
ATOM      2  O   UNL     1       6.723  -2.647 -19.564  0.00  0.00    +0.000 OA
ATOM      3  C   UNL     1       7.464  -0.430 -19.543  0.00  0.00    +0.000 A 
ATOM      4  C   UNL     1       7.163   0.906 -19.294  0.00  0.00    +0.000 A 
ATOM      5  C   UNL     1       4.781   0.235 -18.620  0.00  0.00    +0.000 A 
ATOM      6  C   UNL     1       5.112  -1.096 -18.877  0.00  0.00    +0.000 A 
ATOM      7  C   UNL     1       5.812   1.285 -18.825  0.00  0.00    +0.000 C 
ATOM      8  C   UNL     1       6.454  -1.474 -19.344  0.00  0.00    +0.000 C 
ATOM      9  C   UNL     1       8.734  -0.805 -19.987  0.00  0.00    +0.000 A 
ATOM     10  C   UNL     1       8.159   1.872 -19.498  0.00  0.00    +0.000 A 
ATOM     11  C   UNL     1       9.712   0.164 -20.184  0.00  0.00    +0.000 A 
ATOM     12  C   UNL     1       3.483   0.522 -18.178  0.00  0.00    +0.000 A 
ATOM     13  C   UNL     1       4.174  -2.119 -18.699  0.00  0.00    +0.000 A 
ATOM     14  C   UNL     1       9.430   1.504 -19.941  0.00  0.00    +0.000 A 
ATOM     15  C   UNL     1       2.887  -1.827 -18.259  0.00  0.00    +0.000 A 
ATOM     16  C   UNL     1       2.549  -0.501 -18.000  0.00  0.00    +0.000 A 
ATOM     17  C   UNL     1      11.074  -0.242 -20.661  0.00  0.00    +0.000 C 
ENDROOT
BRANCH  10  18
ATOM     18  O   UNL     1       7.958   3.208 -19.281  0.00  0.00    +0.000 OA
ATOM     19  H   UNL     1       8.835   3.653 -19.199  0.00  0.00    +0.000 HD
ENDBRANCH  10  18
BRANCH  12  20
ATOM     20  O   UNL     1       3.088   1.799 -17.906  0.00  0.00    +0.000 OA
ATOM     21  H   UNL     1       3.863   2.350 -17.694  0.00  0.00    +0.000 HD
ENDBRANCH  12  20
BRANCH  15  22
ATOM     22  O   UNL     1       2.043  -2.900 -18.116  0.00  0.00    +0.000 OA
ATOM     23  C   UNL     1       1.398  -3.309 -19.292  0.00  0.00    +0.000 C 
ENDBRANCH  15  22
TORSDOF 3
ENDMDL
MODEL 2
REMARK VINA RESULT:      -6.0      1.380      2.234
REMARK  Name = 10639_Physcion.pdbqt.pdb
REMARK  3 active torsions:
REMARK  status: ('A' for Active; 'I' for Inactive)
REMARK    1  A    between atoms: C_10  and  O_18
REMARK    2  A    between atoms: C_12  and  O_20
REMARK    3  A    between atoms: C_15  and  O_22
REMARK                            x       y       z     vdW  Elec       q    Type
REMARK                         _______ _______ _______ _____ _____    ______ ____
ROOT
ATOM      1  O   UNL     1       3.007   1.458 -18.264  0.00  0.00    +0.000 OA
ATOM      2  O   UNL     1       6.288  -2.506 -19.644  0.00  0.00    +0.000 OA
ATOM      3  C   UNL     1       6.031  -0.246 -19.105  0.00  0.00    +0.000 A 
ATOM      4  C   UNL     1       5.166   0.784 -18.745  0.00  0.00    +0.000 A 
ATOM      5  C   UNL     1       3.198  -0.858 -18.806  0.00  0.00    +0.000 A 
ATOM      6  C   UNL     1       4.087  -1.871 -19.166  0.00  0.00    +0.000 A 
ATOM      7  C   UNL     1       3.721   0.514 -18.583  0.00  0.00    +0.000 C 
ATOM      8  C   UNL     1       5.524  -1.605 -19.328  0.00  0.00    +0.000 C 
ATOM      9  C   UNL     1       7.399  -0.009 -19.263  0.00  0.00    +0.000 A 
ATOM     10  C   UNL     1       5.694   2.067 -18.542  0.00  0.00    +0.000 A 
ATOM     11  C   UNL     1       7.906   1.269 -19.058  0.00  0.00    +0.000 A 
ATOM     12  C   UNL     1       1.842  -1.185 -18.670  0.00  0.00    +0.000 A 
ATOM     13  C   UNL     1       3.641  -3.179 -19.387  0.00  0.00    +0.000 A 
ATOM     14  C   UNL     1       7.059   2.311 -18.697  0.00  0.00    +0.000 A 
ATOM     15  C   UNL     1       2.293  -3.496 -19.250  0.00  0.00    +0.000 A 
ATOM     16  C   UNL     1       1.398  -2.490 -18.891  0.00  0.00    +0.000 A 
ATOM     17  C   UNL     1       9.375   1.520 -19.228  0.00  0.00    +0.000 C 
ENDROOT
BRANCH  10  18
ATOM     18  O   UNL     1       4.925   3.142 -18.186  0.00  0.00    +0.000 OA
ATOM     19  H   UNL     1       5.245   3.491 -17.321  0.00  0.00    +0.000 HD
ENDBRANCH  10  18
BRANCH  12  20
ATOM     20  O   UNL     1       0.914  -0.248 -18.321  0.00  0.00    +0.000 OA
ATOM     21  H   UNL     1       0.885  -0.153 -17.352  0.00  0.00    +0.000 HD
ENDBRANCH  12  20
BRANCH  15  22
ATOM     22  O   UNL     1       1.957  -4.805 -19.488  0.00  0.00    +0.000 OA
ATOM     23  C   UNL     1       0.739  -5.216 -18.929  0.00  0.00    +0.000 C 
ENDBRANCH  15  22
TORSDOF 3
ENDMDL
MODEL 3
REMARK VINA RESULT:      -6.0      7.386     10.463
REMARK  Name = 10639_Physcion.pdbqt.pdb
REMARK  3 active torsions:
REMARK  status: ('A' for Active; 'I' for Inactive)
REMARK    1  A    between atoms: C_10  and  O_18
REMARK    2  A    between atoms: C_12  and  O_20
REMARK    3  A    between atoms: C_15  and  O_22
REMARK                            x       y       z     vdW  Elec       q    Type
REMARK                         _______ _______ _______ _____ _____    ______ ____
ROOT
ATOM      1  O   UNL     1      -2.291  -2.326 -18.273  0.00  0.00    +0.000 OA
ATOM      2  O   UNL     1      -5.393   1.217 -20.764  0.00  0.00    +0.000 OA
ATOM      3  C   UNL     1      -3.295   0.708 -19.868  0.00  0.00    +0.000 A 
ATOM      4  C   UNL     1      -2.491  -0.224 -19.217  0.00  0.00    +0.000 A 
ATOM      5  C   UNL     1      -4.456  -1.871 -19.166  0.00  0.00    +0.000 A 
ATOM      6  C   UNL     1      -5.238  -0.918 -19.819  0.00  0.00    +0.000 A 
ATOM      7  C   UNL     1      -3.043  -1.544 -18.843  0.00  0.00    +0.000 C 
ATOM      8  C   UNL     1      -4.691   0.395 -20.191  0.00  0.00    +0.000 C 
ATOM      9  C   UNL     1      -2.790   1.959 -20.228  0.00  0.00    +0.000 A 
ATOM     10  C   UNL     1      -1.162   0.116 -18.928  0.00  0.00    +0.000 A 
ATOM     11  C   UNL     1      -1.469   2.282 -19.935  0.00  0.00    +0.000 A 
ATOM     12  C   UNL     1      -5.044  -3.101 -18.842  0.00  0.00    +0.000 A 
ATOM     13  C   UNL     1      -6.574  -1.180 -20.143  0.00  0.00    +0.000 A 
ATOM     14  C   UNL     1      -0.651   1.365 -19.285  0.00  0.00    +0.000 A 
ATOM     15  C   UNL     1      -7.151  -2.403 -19.818  0.00  0.00    +0.000 A 
ATOM     16  C   UNL     1      -6.377  -3.361 -19.166  0.00  0.00    +0.000 A 
ATOM     17  C   UNL     1      -0.930   3.626 -20.322  0.00  0.00    +0.000 C 
ENDROOT
BRANCH  10  18
ATOM     18  O   UNL     1      -0.296  -0.732 -18.291  0.00  0.00    +0.000 OA
ATOM     19  H   UNL     1      -0.797  -1.255 -17.622  0.00  0.00    +0.000 HD
ENDBRANCH  10  18
BRANCH  12  20
ATOM     20  O   UNL     1      -4.342  -4.081 -18.203  0.00  0.00    +0.000 OA
ATOM     21  H   UNL     1      -3.628  -4.409 -18.779  0.00  0.00    +0.000 HD
ENDBRANCH  12  20
BRANCH  15  22
ATOM     22  O   UNL     1      -8.466  -2.562 -20.179  0.00  0.00    +0.000 OA
ATOM     23  C   UNL     1      -9.388  -2.444 -19.130  0.00  0.00    +0.000 C 
ENDBRANCH  15  22
TORSDOF 3
ENDMDL
MODEL 4
REMARK VINA RESULT:      -6.0      1.663      3.505
REMARK  Name = 10639_Physcion.pdbqt.pdb
REMARK  3 active torsions:
REMARK  status: ('A' for Active; 'I' for Inactive)
REMARK    1  A    between atoms: C_10  and  O_18
REMARK    2  A    between atoms: C_12  and  O_20
REMARK    3  A    between atoms: C_15  and  O_22
REMARK                            x       y       z     vdW  Elec       q    Type
REMARK                         _______ _______ _______ _____ _____    ______ ____
ROOT
ATOM      1  O   UNL     1       6.023  -2.499 -19.465  0.00  0.00    +0.000 OA
ATOM      2  O   UNL     1       3.729   2.159 -18.270  0.00  0.00    +0.000 OA
ATOM      3  C   UNL     1       5.697   0.977 -18.712  0.00  0.00    +0.000 A 
ATOM      4  C   UNL     1       6.288  -0.245 -19.024  0.00  0.00    +0.000 A 
ATOM      5  C   UNL     1       3.976  -1.354 -19.023  0.00  0.00    +0.000 A 
ATOM      6  C   UNL     1       3.411  -0.118 -18.710  0.00  0.00    +0.000 A 
ATOM      7  C   UNL     1       5.449  -1.451 -19.190  0.00  0.00    +0.000 C 
ATOM      8  C   UNL     1       4.243   1.083 -18.544  0.00  0.00    +0.000 C 
ATOM      9  C   UNL     1       6.474   2.127 -18.552  0.00  0.00    +0.000 A 
ATOM     10  C   UNL     1       7.680  -0.301 -19.175  0.00  0.00    +0.000 A 
ATOM     11  C   UNL     1       7.854   2.054 -18.704  0.00  0.00    +0.000 A 
ATOM     12  C   UNL     1       3.122  -2.456 -19.165  0.00  0.00    +0.000 A 
ATOM     13  C   UNL     1       2.029   0.023 -18.543  0.00  0.00    +0.000 A 
ATOM     14  C   UNL     1       8.463   0.844 -19.016  0.00  0.00    +0.000 A 
ATOM     15  C   UNL     1       1.187  -1.075 -18.686  0.00  0.00    +0.000 A 
ATOM     16  C   UNL     1       1.743  -2.314 -18.998  0.00  0.00    +0.000 A 
ATOM     17  C   UNL     1       8.685   3.290 -18.532  0.00  0.00    +0.000 C 
ENDROOT
BRANCH  10  18
ATOM     18  O   UNL     1       8.352  -1.454 -19.481  0.00  0.00    +0.000 OA
ATOM     19  H   UNL     1       7.760  -2.035 -20.014  0.00  0.00    +0.000 HD
ENDBRANCH  10  18
BRANCH  12  20
ATOM     20  O   UNL     1       3.601  -3.696 -19.470  0.00  0.00    +0.000 OA
ATOM     21  H   UNL     1       4.403  -3.881 -18.948  0.00  0.00    +0.000 HD
ENDBRANCH  12  20
BRANCH  15  22
ATOM     22  O   UNL     1      -0.152  -0.834 -18.502  0.00  0.00    +0.000 OA
ATOM     23  C   UNL     1      -0.673   0.227 -19.256  0.00  0.00    +0.000 C 
ENDBRANCH  15  22
TORSDOF 3
ENDMDL
MODEL 5
REMARK VINA RESULT:      -5.9      6.379      9.044
REMARK  Name = 10639_Physcion.pdbqt.pdb
REMARK  3 active torsions:
REMARK  status: ('A' for Active; 'I' for Inactive)
REMARK    1  A    between atoms: C_10  and  O_18
REMARK    2  A    between atoms: C_12  and  O_20
REMARK    3  A    between atoms: C_15  and  O_22
REMARK                            x       y       z     vdW  Elec       q    Type
REMARK                         _______ _______ _______ _____ _____    ______ ____
ROOT
ATOM      1  O   UNL     1      12.169  -2.310 -19.652  0.00  0.00    +0.000 OA
ATOM      2  O   UNL     1      12.653   2.991 -19.456  0.00  0.00    +0.000 OA
ATOM      3  C   UNL     1      11.954   1.027 -18.399  0.00  0.00    +0.000 A 
ATOM      4  C   UNL     1      11.832  -0.359 -18.459  0.00  0.00    +0.000 A 
ATOM      5  C   UNL     1      12.903  -0.345 -20.788  0.00  0.00    +0.000 A 
ATOM      6  C   UNL     1      13.014   1.043 -20.701  0.00  0.00    +0.000 A 
ATOM      7  C   UNL     1      12.301  -1.092 -19.654  0.00  0.00    +0.000 C 
ATOM      8  C   UNL     1      12.547   1.774 -19.514  0.00  0.00    +0.000 C 
ATOM      9  C   UNL     1      11.516   1.736 -17.278  0.00  0.00    +0.000 A 
ATOM     10  C   UNL     1      11.259  -1.032 -17.371  0.00  0.00    +0.000 A 
ATOM     11  C   UNL     1      10.950   1.053 -16.207  0.00  0.00    +0.000 A 
ATOM     12  C   UNL     1      13.369  -0.975 -21.950  0.00  0.00    +0.000 A 
ATOM     13  C   UNL     1      13.574   1.789 -21.744  0.00  0.00    +0.000 A 
ATOM     14  C   UNL     1      10.819  -0.331 -16.248  0.00  0.00    +0.000 A 
ATOM     15  C   UNL     1      14.034   1.157 -22.895  0.00  0.00    +0.000 A 
ATOM     16  C   UNL     1      13.928  -0.229 -22.990  0.00  0.00    +0.000 A 
ATOM     17  C   UNL     1      10.481   1.816 -15.005  0.00  0.00    +0.000 C 
ENDROOT
BRANCH  10  18
ATOM     18  O   UNL     1      11.096  -2.391 -17.336  0.00  0.00    +0.000 OA
ATOM     19  H   UNL     1      11.538  -2.745 -16.529  0.00  0.00    +0.000 HD
ENDBRANCH  10  18
BRANCH  12  20
ATOM     20  O   UNL     1      13.295  -2.328 -22.107  0.00  0.00    +0.000 OA
ATOM     21  H   UNL     1      12.444  -2.657 -21.764  0.00  0.00    +0.000 HD
ENDBRANCH  12  20
BRANCH  15  22
ATOM     22  O   UNL     1      14.565   1.977 -23.859  0.00  0.00    +0.000 OA
ATOM     23  C   UNL     1      15.355   1.330 -24.819  0.00  0.00    +0.000 C 
ENDBRANCH  15  22
TORSDOF 3
ENDMDL
MODEL 6
REMARK VINA RESULT:      -5.8      7.325     10.826
REMARK  Name = 10639_Physcion.pdbqt.pdb
REMARK  3 active torsions:
REMARK  status: ('A' for Active; 'I' for Inactive)
REMARK    1  A    between atoms: C_10  and  O_18
REMARK    2  A    between atoms: C_12  and  O_20
REMARK    3  A    between atoms: C_15  and  O_22
REMARK                            x       y       z     vdW  Elec       q    Type
REMARK                         _______ _______ _______ _____ _____    ______ ____
ROOT
ATOM      1  O   UNL     1      -5.486   0.795 -20.550  0.00  0.00    +0.000 OA
ATOM      2  O   UNL     1      -3.439  -3.579 -18.301  0.00  0.00    +0.000 OA
ATOM      3  C   UNL     1      -3.083  -1.409 -19.094  0.00  0.00    +0.000 A 
ATOM      4  C   UNL     1      -3.626  -0.270 -19.682  0.00  0.00    +0.000 A 
ATOM      5  C   UNL     1      -5.920  -1.415 -19.761  0.00  0.00    +0.000 A 
ATOM      6  C   UNL     1      -5.348  -2.542 -19.171  0.00  0.00    +0.000 A 
ATOM      7  C   UNL     1      -5.062  -0.233 -20.036  0.00  0.00    +0.000 C 
ATOM      8  C   UNL     1      -3.921  -2.581 -18.818  0.00  0.00    +0.000 C 
ATOM      9  C   UNL     1      -1.729  -1.461 -18.753  0.00  0.00    +0.000 A 
ATOM     10  C   UNL     1      -2.789   0.827 -19.928  0.00  0.00    +0.000 A 
ATOM     11  C   UNL     1      -0.912  -0.365 -19.003  0.00  0.00    +0.000 A 
ATOM     12  C   UNL     1      -7.286  -1.449 -20.070  0.00  0.00    +0.000 A 
ATOM     13  C   UNL     1      -6.116  -3.679 -18.893  0.00  0.00    +0.000 A 
ATOM     14  C   UNL     1      -1.435   0.782 -19.590  0.00  0.00    +0.000 A 
ATOM     15  C   UNL     1      -7.472  -3.706 -19.202  0.00  0.00    +0.000 A 
ATOM     16  C   UNL     1      -8.051  -2.584 -19.792  0.00  0.00    +0.000 A 
ATOM     17  C   UNL     1       0.541  -0.423 -18.637  0.00  0.00    +0.000 C 
ENDROOT
BRANCH  10  18
ATOM     18  O   UNL     1      -3.230   1.989 -20.501  0.00  0.00    +0.000 OA
ATOM     19  H   UNL     1      -3.486   1.806 -21.436  0.00  0.00    +0.000 HD
ENDBRANCH  10  18
BRANCH  12  20
ATOM     20  O   UNL     1      -7.914  -0.384 -20.648  0.00  0.00    +0.000 OA
ATOM     21  H   UNL     1      -8.831  -0.622 -20.876  0.00  0.00    +0.000 HD
ENDBRANCH  12  20
BRANCH  15  22
ATOM     22  O   UNL     1      -8.136  -4.866 -18.890  0.00  0.00    +0.000 OA
ATOM     23  C   UNL     1      -9.468  -4.697 -18.486  0.00  0.00    +0.000 C 
ENDBRANCH  15  22
TORSDOF 3
ENDMDL
MODEL 7
REMARK VINA RESULT:      -5.8     14.238     14.546
REMARK  Name = 10639_Physcion.pdbqt.pdb
REMARK  3 active torsions:
REMARK  status: ('A' for Active; 'I' for Inactive)
REMARK    1  A    between atoms: C_10  and  O_18
REMARK    2  A    between atoms: C_12  and  O_20
REMARK    3  A    between atoms: C_15  and  O_22
REMARK                            x       y       z     vdW  Elec       q    Type
REMARK                         _______ _______ _______ _____ _____    ______ ____
ROOT
ATOM      1  O   UNL     1      13.840  -7.157  -9.490  0.00  0.00    +0.000 OA
ATOM      2  O   UNL     1      13.288  -2.594  -6.796  0.00  0.00    +0.000 OA
ATOM      3  C   UNL     1      14.523  -3.847  -8.335  0.00  0.00    +0.000 A 
ATOM      4  C   UNL     1      14.659  -5.043  -9.035  0.00  0.00    +0.000 A 
ATOM      5  C   UNL     1      12.533  -5.934  -7.911  0.00  0.00    +0.000 A 
ATOM      6  C   UNL     1      12.421  -4.725  -7.223  0.00  0.00    +0.000 A 
ATOM      7  C   UNL     1      13.671  -6.127  -8.848  0.00  0.00    +0.000 C 
ATOM      8  C   UNL     1      13.404  -3.646  -7.408  0.00  0.00    +0.000 C 
ATOM      9  C   UNL     1      15.447  -2.813  -8.500  0.00  0.00    +0.000 A 
ATOM     10  C   UNL     1      15.744  -5.192  -9.911  0.00  0.00    +0.000 A 
ATOM     11  C   UNL     1      16.518  -2.976  -9.372  0.00  0.00    +0.000 A 
ATOM     12  C   UNL     1      11.561  -6.917  -7.685  0.00  0.00    +0.000 A 
ATOM     13  C   UNL     1      11.368  -4.497  -6.331  0.00  0.00    +0.000 A 
ATOM     14  C   UNL     1      16.671  -4.163 -10.080  0.00  0.00    +0.000 A 
ATOM     15  C   UNL     1      10.406  -5.478  -6.112  0.00  0.00    +0.000 A 
ATOM     16  C   UNL     1      10.510  -6.688  -6.795  0.00  0.00    +0.000 A 
ATOM     17  C   UNL     1      17.508  -1.865  -9.547  0.00  0.00    +0.000 C 
ENDROOT
BRANCH  10  18
ATOM     18  O   UNL     1      15.963  -6.329 -10.641  0.00  0.00    +0.000 OA
ATOM     19  H   UNL     1      16.376  -6.080 -11.502  0.00  0.00    +0.000 HD
ENDBRANCH  10  18
BRANCH  12  20
ATOM     20  O   UNL     1      11.604  -8.123  -8.322  0.00  0.00    +0.000 OA
ATOM     21  H   UNL     1      11.162  -8.060  -9.187  0.00  0.00    +0.000 HD
ENDBRANCH  12  20
BRANCH  15  22
ATOM     22  O   UNL     1       9.414  -5.158  -5.219  0.00  0.00    +0.000 OA
ATOM     23  C   UNL     1       8.716  -6.251  -4.688  0.00  0.00    +0.000 C 
ENDBRANCH  15  22
TORSDOF 3
ENDMDL
MODEL 8
REMARK VINA RESULT:      -5.8      5.683      7.765
REMARK  Name = 10639_Physcion.pdbqt.pdb
REMARK  3 active torsions:
REMARK  status: ('A' for Active; 'I' for Inactive)
REMARK    1  A    between atoms: C_10  and  O_18
REMARK    2  A    between atoms: C_12  and  O_20
REMARK    3  A    between atoms: C_15  and  O_22
REMARK                            x       y       z     vdW  Elec       q    Type
REMARK                         _______ _______ _______ _____ _____    ______ ____
ROOT
ATOM      1  O   UNL     1      -2.077  -3.567 -18.762  0.00  0.00    +0.000 OA
ATOM      2  O   UNL     1       1.952  -0.604 -20.600  0.00  0.00    +0.000 OA
ATOM      3  C   UNL     1       1.096  -2.738 -20.178  0.00  0.00    +0.000 A 
ATOM      4  C   UNL     1       0.038  -3.505 -19.695  0.00  0.00    +0.000 A 
ATOM      5  C   UNL     1      -1.264  -1.360 -19.165  0.00  0.00    +0.000 A 
ATOM      6  C   UNL     1      -0.189  -0.617 -19.655  0.00  0.00    +0.000 A 
ATOM      7  C   UNL     1      -1.177  -2.843 -19.173  0.00  0.00    +0.000 C 
ATOM      8  C   UNL     1       1.020  -1.273 -20.175  0.00  0.00    +0.000 C 
ATOM      9  C   UNL     1       2.251  -3.347 -20.675  0.00  0.00    +0.000 A 
ATOM     10  C   UNL     1       0.153  -4.902 -19.717  0.00  0.00    +0.000 A 
ATOM     11  C   UNL     1       2.349  -4.733 -20.689  0.00  0.00    +0.000 A 
ATOM     12  C   UNL     1      -2.383  -0.667 -18.686  0.00  0.00    +0.000 A 
ATOM     13  C   UNL     1      -0.224   0.782 -19.668  0.00  0.00    +0.000 A 
ATOM     14  C   UNL     1       1.304  -5.516 -20.212  0.00  0.00    +0.000 A 
ATOM     15  C   UNL     1      -1.340   1.463 -19.190  0.00  0.00    +0.000 A 
ATOM     16  C   UNL     1      -2.417   0.729 -18.699  0.00  0.00    +0.000 A 
ATOM     17  C   UNL     1       3.590  -5.384 -21.224  0.00  0.00    +0.000 C 
ENDROOT
BRANCH  10  18
ATOM     18  O   UNL     1      -0.832  -5.738 -19.265  0.00  0.00    +0.000 OA
ATOM     19  H   UNL     1      -1.709  -5.331 -19.457  0.00  0.00    +0.000 HD
ENDBRANCH  10  18
BRANCH  12  20
ATOM     20  O   UNL     1      -3.472  -1.325 -18.191  0.00  0.00    +0.000 OA
ATOM     21  H   UNL     1      -3.209  -2.202 -17.859  0.00  0.00    +0.000 HD
ENDBRANCH  12  20
BRANCH  15  22
ATOM     22  O   UNL     1      -1.276   2.832 -19.246  0.00  0.00    +0.000 OA
ATOM     23  C   UNL     1      -0.593   3.350 -20.355  0.00  0.00    +0.000 C 
ENDBRANCH  15  22
TORSDOF 3
ENDMDL
MODEL 9
REMARK VINA RESULT:      -5.7      4.502      7.651
REMARK  Name = 10639_Physcion.pdbqt.pdb
REMARK  3 active torsions:
REMARK  status: ('A' for Active; 'I' for Inactive)
REMARK    1  A    between atoms: C_10  and  O_18
REMARK    2  A    between atoms: C_12  and  O_20
REMARK    3  A    between atoms: C_15  and  O_22
REMARK                            x       y       z     vdW  Elec       q    Type
REMARK                         _______ _______ _______ _____ _____    ______ ____
ROOT
ATOM      1  O   UNL     1      -0.993  -3.124 -18.968  0.00  0.00    +0.000 OA
ATOM      2  O   UNL     1      -0.133   2.103 -19.530  0.00  0.00    +0.000 OA
ATOM      3  C   UNL     1       0.761  -0.017 -19.118  0.00  0.00    +0.000 A 
ATOM      4  C   UNL     1       0.527  -1.382 -18.972  0.00  0.00    +0.000 A 
ATOM      5  C   UNL     1      -1.972  -0.990 -19.394  0.00  0.00    +0.000 A 
ATOM      6  C   UNL     1      -1.708   0.373 -19.535  0.00  0.00    +0.000 A 
ATOM      7  C   UNL     1      -0.846  -1.915 -19.105  0.00  0.00    +0.000 C 
ATOM      8  C   UNL     1      -0.344   0.905 -19.403  0.00  0.00    +0.000 C 
ATOM      9  C   UNL     1       2.051   0.504 -18.996  0.00  0.00    +0.000 A 
ATOM     10  C   UNL     1       1.612  -2.226 -18.700  0.00  0.00    +0.000 A 
ATOM     11  C   UNL     1       3.117  -0.347 -18.726  0.00  0.00    +0.000 A 
ATOM     12  C   UNL     1      -3.296  -1.426 -19.532  0.00  0.00    +0.000 A 
ATOM     13  C   UNL     1      -2.736   1.282 -19.807  0.00  0.00    +0.000 A 
ATOM     14  C   UNL     1       2.904  -1.713 -18.577  0.00  0.00    +0.000 A 
ATOM     15  C   UNL     1      -4.049   0.842 -19.943  0.00  0.00    +0.000 A 
ATOM     16  C   UNL     1      -4.321  -0.517 -19.803  0.00  0.00    +0.000 A 
ATOM     17  C   UNL     1       4.501   0.215 -18.596  0.00  0.00    +0.000 C 
ENDROOT
BRANCH  10  18
ATOM     18  O   UNL     1       1.483  -3.580 -18.541  0.00  0.00    +0.000 OA
ATOM     19  H   UNL     1       1.599  -4.017 -19.417  0.00  0.00    +0.000 HD
ENDBRANCH  10  18
BRANCH  12  20
ATOM     20  O   UNL     1      -3.631  -2.743 -19.407  0.00  0.00    +0.000 OA
ATOM     21  H   UNL     1      -3.803  -2.956 -18.473  0.00  0.00    +0.000 HD
ENDBRANCH  12  20
BRANCH  15  22
ATOM     22  O   UNL     1      -4.983   1.812 -20.209  0.00  0.00    +0.000 OA
ATOM     23  C   UNL     1      -5.229   2.042 -21.569  0.00  0.00    +0.000 C 
ENDBRANCH  15  22
TORSDOF 3
ENDMDL
