MODEL 1
REMARK VINA RESULT:      -6.7      0.000      0.000
REMARK  Name = 10940649_MilnamideD.pdbqt.pdb
REMARK  7 active torsions:
REMARK  status: ('A' for Active; 'I' for Inactive)
REMARK    1  A    between atoms: C_3  and  C_8
REMARK    2  A    between atoms: C_22  and  C_25
REMARK    3  A    between atoms: C_22  and  C_38
REMARK    4  A    between atoms: N_24  and  C_27
REMARK    5  A    between atoms: C_27  and  C_28
REMARK    6  A    between atoms: C_32  and  C_35
REMARK    7  A    between atoms: C_35  and  O_36
REMARK                            x       y       z     vdW  Elec       q    Type
REMARK                         _______ _______ _______ _____ _____    ______ ____
ROOT
ATOM      1  O   UNL     1     -14.193   6.439  -8.550  0.00  0.00    +0.000 OA
ATOM      2  N   UNL     1     -16.034   7.764  -8.639  0.00  0.00    +0.000 N 
ATOM      3  C   UNL     1     -15.230   6.751  -9.124  0.00  0.00    +0.000 C 
ATOM      4  H   UNL     1     -16.838   8.063  -9.204  0.00  0.00    +0.000 HD
ATOM      5  C   UNL     1     -15.801   8.489  -7.445  0.00  0.00    +0.000 C 
ENDROOT
BRANCH   3   9
ATOM      6  N   UNL     1     -15.521   6.728 -11.681  0.00  0.00    +0.000 NA
ATOM      7  N   UNL     1     -17.259   3.845 -13.695  0.00  0.00    +0.000 N 
ATOM      8  C   UNL     1     -16.603   4.824 -10.154  0.00  0.00    +0.000 C 
ATOM      9  C   UNL     1     -15.696   6.071 -10.375  0.00  0.00    +0.000 C 
ATOM     10  C   UNL     1     -17.034   4.113 -11.475  0.00  0.00    +0.000 A 
ATOM     11  C   UNL     1     -16.768   4.644 -12.721  0.00  0.00    +0.000 A 
ATOM     12  C   UNL     1     -17.950   5.260  -9.504  0.00  0.00    +0.000 C 
ATOM     13  C   UNL     1     -15.817   3.740  -9.362  0.00  0.00    +0.000 C 
ATOM     14  C   UNL     1     -17.759   2.895 -11.735  0.00  0.00    +0.000 A 
ATOM     15  C   UNL     1     -16.071   5.855 -12.685  0.00  0.00    +0.000 C 
ATOM     16  C   UNL     1     -17.879   2.755 -13.132  0.00  0.00    +0.000 A 
ATOM     17  C   UNL     1     -14.112   6.912 -11.991  0.00  0.00    +0.000 C 
ATOM     18  C   UNL     1     -18.327   1.904 -10.909  0.00  0.00    +0.000 A 
ATOM     19  C   UNL     1     -17.155   4.118 -15.088  0.00  0.00    +0.000 C 
ATOM     20  C   UNL     1     -18.538   1.663 -13.718  0.00  0.00    +0.000 A 
ATOM     21  C   UNL     1     -18.984   0.818 -11.487  0.00  0.00    +0.000 A 
ATOM     22  C   UNL     1     -19.084   0.701 -12.867  0.00  0.00    +0.000 A 
ENDBRANCH   3   9
BRANCH   5  25
ATOM     23  O   UNL     1     -14.979   7.151  -5.726  0.00  0.00    +0.000 OA
ATOM     24  N   UNL     1     -13.485   8.712  -6.683  0.00  0.00    +0.000 N 
ATOM     25  C   UNL     1     -14.731   8.062  -6.511  0.00  0.00    +0.000 C 
ATOM     26  C   UNL     1     -13.253   9.826  -7.609  0.00  0.00    +0.000 C 
BRANCH  24  27
ATOM     27  C   UNL     1     -12.354   8.287  -5.962  0.00  0.00    +0.000 C 
ATOM     28  C   UNL     1     -11.253   7.638  -6.618  0.00  0.00    +0.000 C 
ATOM     29  C   UNL     1     -10.253   7.049  -7.205  0.00  0.00    +0.000 C 
ATOM     30  C   UNL     1      -8.962   7.839  -7.239  0.00  0.00    +0.000 C 
BRANCH  27  31
ATOM     31  C   UNL     1     -12.237   8.507  -4.528  0.00  0.00    +0.000 C 
ATOM     32  C   UNL     1     -12.859   9.731  -3.884  0.00  0.00    +0.000 C 
ATOM     33  C   UNL     1     -12.070   7.317  -3.601  0.00  0.00    +0.000 C 
ENDBRANCH  27  31
BRANCH  29  35
ATOM     34  O   UNL     1     -10.969   5.436  -8.849  0.00  0.00    +0.000 OA
ATOM     35  C   UNL     1     -10.428   5.688  -7.782  0.00  0.00    +0.000 C 
BRANCH  35  36
ATOM     36  O   UNL     1      -9.934   4.688  -7.022  0.00  0.00    +0.000 OA
ATOM     37  H   UNL     1     -10.708   4.315  -6.553  0.00  0.00    +0.000 HD
ENDBRANCH  35  36
ENDBRANCH  29  35
ENDBRANCH  24  27
ENDBRANCH   5  25
BRANCH   5  38
ATOM     38  C   UNL     1     -16.746   9.546  -6.895  0.00  0.00    +0.000 C 
ATOM     39  C   UNL     1     -16.857  10.659  -7.985  0.00  0.00    +0.000 C 
ATOM     40  C   UNL     1     -18.146   8.890  -6.724  0.00  0.00    +0.000 C 
ATOM     41  C   UNL     1     -16.260  10.182  -5.570  0.00  0.00    +0.000 C 
ENDBRANCH   5  38
TORSDOF 7
ENDMDL
MODEL 2
REMARK VINA RESULT:      -6.5     26.975     30.887
REMARK  Name = 10940649_MilnamideD.pdbqt.pdb
REMARK  7 active torsions:
REMARK  status: ('A' for Active; 'I' for Inactive)
REMARK    1  A    between atoms: C_3  and  C_8
REMARK    2  A    between atoms: C_22  and  C_25
REMARK    3  A    between atoms: C_22  and  C_38
REMARK    4  A    between atoms: N_24  and  C_27
REMARK    5  A    between atoms: C_27  and  C_28
REMARK    6  A    between atoms: C_32  and  C_35
REMARK    7  A    between atoms: C_35  and  O_36
REMARK                            x       y       z     vdW  Elec       q    Type
REMARK                         _______ _______ _______ _____ _____    ______ ____
ROOT
ATOM      1  O   UNL     1      10.798   0.735 -21.498  0.00  0.00    +0.000 OA
ATOM      2  N   UNL     1      11.945   0.333 -19.581  0.00  0.00    +0.000 N 
ATOM      3  C   UNL     1      11.848   0.411 -20.957  0.00  0.00    +0.000 C 
ATOM      4  H   UNL     1      12.810  -0.041 -19.172  0.00  0.00    +0.000 HD
ATOM      5  C   UNL     1      10.910   0.660 -18.672  0.00  0.00    +0.000 C 
ENDROOT
BRANCH   3   9
ATOM      6  N   UNL     1      14.006  -0.964 -21.244  0.00  0.00    +0.000 NA
ATOM      7  N   UNL     1      16.566  -0.496 -24.180  0.00  0.00    +0.000 N 
ATOM      8  C   UNL     1      13.450   1.083 -22.866  0.00  0.00    +0.000 C 
ATOM      9  C   UNL     1      13.087   0.078 -21.733  0.00  0.00    +0.000 C 
ATOM     10  C   UNL     1      14.719   0.684 -23.683  0.00  0.00    +0.000 A 
ATOM     11  C   UNL     1      15.530  -0.372 -23.320  0.00  0.00    +0.000 A 
ATOM     12  C   UNL     1      13.818   2.465 -22.248  0.00  0.00    +0.000 C 
ATOM     13  C   UNL     1      12.302   1.123 -23.916  0.00  0.00    +0.000 C 
ATOM     14  C   UNL     1      15.339   1.244 -24.857  0.00  0.00    +0.000 A 
ATOM     15  C   UNL     1      15.101  -1.050 -22.175  0.00  0.00    +0.000 C 
ATOM     16  C   UNL     1      16.488   0.481 -25.143  0.00  0.00    +0.000 A 
ATOM     17  C   UNL     1      13.357  -2.265 -21.215  0.00  0.00    +0.000 C 
ATOM     18  C   UNL     1      15.028   2.332 -25.697  0.00  0.00    +0.000 A 
ATOM     19  C   UNL     1      17.584  -1.485 -24.075  0.00  0.00    +0.000 C 
ATOM     20  C   UNL     1      17.322   0.769 -26.234  0.00  0.00    +0.000 A 
ATOM     21  C   UNL     1      15.855   2.623 -26.783  0.00  0.00    +0.000 A 
ATOM     22  C   UNL     1      16.980   1.852 -27.046  0.00  0.00    +0.000 A 
ENDBRANCH   3   9
BRANCH   5  25
ATOM     23  O   UNL     1       9.666   2.528 -19.292  0.00  0.00    +0.000 OA
ATOM     24  N   UNL     1       8.619   0.419 -19.500  0.00  0.00    +0.000 N 
ATOM     25  C   UNL     1       9.668   1.307 -19.159  0.00  0.00    +0.000 C 
ATOM     26  C   UNL     1       8.658  -1.031 -19.280  0.00  0.00    +0.000 C 
BRANCH  24  27
ATOM     27  C   UNL     1       7.449   0.901 -20.115  0.00  0.00    +0.000 C 
ATOM     28  C   UNL     1       7.466   1.393 -21.465  0.00  0.00    +0.000 C 
ATOM     29  C   UNL     1       7.473   1.841 -22.686  0.00  0.00    +0.000 C 
ATOM     30  C   UNL     1       6.716   1.000 -23.692  0.00  0.00    +0.000 C 
BRANCH  27  31
ATOM     31  C   UNL     1       6.168   0.900 -19.424  0.00  0.00    +0.000 C 
ATOM     32  C   UNL     1       5.901   1.878 -18.298  0.00  0.00    +0.000 C 
ATOM     33  C   UNL     1       4.927   0.416 -20.153  0.00  0.00    +0.000 C 
ENDBRANCH  27  31
BRANCH  29  35
ATOM     34  O   UNL     1       7.876   3.897 -23.882  0.00  0.00    +0.000 OA
ATOM     35  C   UNL     1       8.195   3.102 -23.009  0.00  0.00    +0.000 C 
BRANCH  35  36
ATOM     36  O   UNL     1       9.283   3.337 -22.246  0.00  0.00    +0.000 OA
ATOM     37  H   UNL     1       9.096   2.901 -21.389  0.00  0.00    +0.000 HD
ENDBRANCH  35  36
ENDBRANCH  29  35
ENDBRANCH  24  27
ENDBRANCH   5  25
BRANCH   5  38
ATOM     38  C   UNL     1      11.071   0.640 -17.160  0.00  0.00    +0.000 C 
ATOM     39  C   UNL     1      11.370  -0.840 -16.760  0.00  0.00    +0.000 C 
ATOM     40  C   UNL     1      12.316   1.502 -16.802  0.00  0.00    +0.000 C 
ATOM     41  C   UNL     1       9.815   1.127 -16.397  0.00  0.00    +0.000 C 
ENDBRANCH   5  38
TORSDOF 7
ENDMDL
MODEL 3
REMARK VINA RESULT:      -6.3     23.453     26.402
REMARK  Name = 10940649_MilnamideD.pdbqt.pdb
REMARK  7 active torsions:
REMARK  status: ('A' for Active; 'I' for Inactive)
REMARK    1  A    between atoms: C_3  and  C_8
REMARK    2  A    between atoms: C_22  and  C_25
REMARK    3  A    between atoms: C_22  and  C_38
REMARK    4  A    between atoms: N_24  and  C_27
REMARK    5  A    between atoms: C_27  and  C_28
REMARK    6  A    between atoms: C_32  and  C_35
REMARK    7  A    between atoms: C_35  and  O_36
REMARK                            x       y       z     vdW  Elec       q    Type
REMARK                         _______ _______ _______ _____ _____    ______ ____
ROOT
ATOM      1  O   UNL     1       7.621  -2.512 -19.723  0.00  0.00    +0.000 OA
ATOM      2  N   UNL     1       6.632  -0.474 -19.881  0.00  0.00    +0.000 N 
ATOM      3  C   UNL     1       6.591  -1.853 -19.802  0.00  0.00    +0.000 C 
ATOM      4  H   UNL     1       5.755   0.032 -20.049  0.00  0.00    +0.000 HD
ATOM      5  C   UNL     1       7.810   0.309 -19.823  0.00  0.00    +0.000 C 
ENDROOT
BRANCH   3   9
ATOM      6  N   UNL     1       4.285  -2.227 -18.719  0.00  0.00    +0.000 NA
ATOM      7  N   UNL     1       1.487  -4.549 -20.191  0.00  0.00    +0.000 N 
ATOM      8  C   UNL     1       5.031  -3.603 -20.883  0.00  0.00    +0.000 C 
ATOM      9  C   UNL     1       5.230  -2.481 -19.820  0.00  0.00    +0.000 C 
ATOM     10  C   UNL     1       3.590  -4.204 -20.904  0.00  0.00    +0.000 A 
ATOM     11  C   UNL     1       2.640  -3.883 -19.956  0.00  0.00    +0.000 A 
ATOM     12  C   UNL     1       5.943  -4.819 -20.544  0.00  0.00    +0.000 C 
ATOM     13  C   UNL     1       5.232  -3.013 -22.308  0.00  0.00    +0.000 C 
ATOM     14  C   UNL     1       2.945  -5.157 -21.772  0.00  0.00    +0.000 A 
ATOM     15  C   UNL     1       3.082  -2.967 -18.998  0.00  0.00    +0.000 C 
ATOM     16  C   UNL     1       1.631  -5.348 -21.301  0.00  0.00    +0.000 A 
ATOM     17  C   UNL     1       3.925  -0.819 -18.652  0.00  0.00    +0.000 C 
ATOM     18  C   UNL     1       3.361  -5.877 -22.910  0.00  0.00    +0.000 A 
ATOM     19  C   UNL     1       0.318  -4.441 -19.387  0.00  0.00    +0.000 C 
ATOM     20  C   UNL     1       0.732  -6.222 -21.930  0.00  0.00    +0.000 A 
ATOM     21  C   UNL     1       2.472  -6.748 -23.539  0.00  0.00    +0.000 A 
ATOM     22  C   UNL     1       1.180  -6.914 -23.057  0.00  0.00    +0.000 A 
ENDBRANCH   3   9
BRANCH   5  25
ATOM     23  O   UNL     1       9.367  -0.493 -18.290  0.00  0.00    +0.000 OA
ATOM     24  N   UNL     1       9.891  -0.735 -20.582  0.00  0.00    +0.000 N 
ATOM     25  C   UNL     1       9.107  -0.320 -19.478  0.00  0.00    +0.000 C 
ATOM     26  C   UNL     1       9.553  -0.464 -21.984  0.00  0.00    +0.000 C 
BRANCH  24  27
ATOM     27  C   UNL     1      11.067  -1.478 -20.382  0.00  0.00    +0.000 C 
ATOM     28  C   UNL     1      11.027  -2.904 -20.208  0.00  0.00    +0.000 C 
ATOM     29  C   UNL     1      10.998  -4.195 -20.050  0.00  0.00    +0.000 C 
ATOM     30  C   UNL     1      11.613  -5.002 -21.174  0.00  0.00    +0.000 C 
BRANCH  27  31
ATOM     31  C   UNL     1      12.378  -0.844 -20.366  0.00  0.00    +0.000 C 
ATOM     32  C   UNL     1      13.545  -1.472 -21.103  0.00  0.00    +0.000 C 
ATOM     33  C   UNL     1      12.478   0.659 -20.181  0.00  0.00    +0.000 C 
ENDBRANCH  27  31
BRANCH  29  35
ATOM     34  O   UNL     1      10.348  -4.238 -17.727  0.00  0.00    +0.000 OA
ATOM     35  C   UNL     1      10.389  -4.778 -18.823  0.00  0.00    +0.000 C 
BRANCH  35  36
ATOM     36  O   UNL     1       9.855  -6.006 -18.991  0.00  0.00    +0.000 OA
ATOM     37  H   UNL     1       9.443  -5.989 -19.880  0.00  0.00    +0.000 HD
ENDBRANCH  35  36
ENDBRANCH  29  35
ENDBRANCH  24  27
ENDBRANCH   5  25
BRANCH   5  38
ATOM     38  C   UNL     1       7.819   1.830 -19.834  0.00  0.00    +0.000 C 
ATOM     39  C   UNL     1       7.342   2.271 -21.255  0.00  0.00    +0.000 C 
ATOM     40  C   UNL     1       6.771   2.319 -18.794  0.00  0.00    +0.000 C 
ATOM     41  C   UNL     1       9.213   2.443 -19.555  0.00  0.00    +0.000 C 
ENDBRANCH   5  38
TORSDOF 7
ENDMDL
MODEL 4
REMARK VINA RESULT:      -6.2     25.628     28.447
REMARK  Name = 10940649_MilnamideD.pdbqt.pdb
REMARK  7 active torsions:
REMARK  status: ('A' for Active; 'I' for Inactive)
REMARK    1  A    between atoms: C_3  and  C_8
REMARK    2  A    between atoms: C_22  and  C_25
REMARK    3  A    between atoms: C_22  and  C_38
REMARK    4  A    between atoms: N_24  and  C_27
REMARK    5  A    between atoms: C_27  and  C_28
REMARK    6  A    between atoms: C_32  and  C_35
REMARK    7  A    between atoms: C_35  and  O_36
REMARK                            x       y       z     vdW  Elec       q    Type
REMARK                         _______ _______ _______ _____ _____    ______ ____
ROOT
ATOM      1  O   UNL     1      10.853  12.842 -10.247  0.00  0.00    +0.000 OA
ATOM      2  N   UNL     1      11.741  11.090 -11.385  0.00  0.00    +0.000 N 
ATOM      3  C   UNL     1      11.213  11.671 -10.248  0.00  0.00    +0.000 C 
ATOM      4  H   UNL     1      12.124  10.140 -11.316  0.00  0.00    +0.000 HD
ATOM      5  C   UNL     1      11.867  11.729 -12.643  0.00  0.00    +0.000 C 
ENDROOT
BRANCH   3   9
ATOM      6  N   UNL     1       9.945   9.914  -8.858  0.00  0.00    +0.000 NA
ATOM      7  N   UNL     1      11.150   8.529  -5.392  0.00  0.00    +0.000 N 
ATOM      8  C   UNL     1      12.136  11.106  -7.905  0.00  0.00    +0.000 C 
ATOM      9  C   UNL     1      11.112  10.794  -9.037  0.00  0.00    +0.000 C 
ATOM     10  C   UNL     1      12.033  10.147  -6.677  0.00  0.00    +0.000 A 
ATOM     11  C   UNL     1      11.019   9.220  -6.546  0.00  0.00    +0.000 A 
ATOM     12  C   UNL     1      11.847  12.515  -7.307  0.00  0.00    +0.000 C 
ATOM     13  C   UNL     1      13.583  10.907  -8.440  0.00  0.00    +0.000 C 
ATOM     14  C   UNL     1      12.829  10.001  -5.486  0.00  0.00    +0.000 A 
ATOM     15  C   UNL     1      10.115   9.213  -7.613  0.00  0.00    +0.000 C 
ATOM     16  C   UNL     1      12.253   8.979  -4.705  0.00  0.00    +0.000 A 
ATOM     17  C   UNL     1       9.876   8.914  -9.913  0.00  0.00    +0.000 C 
ATOM     18  C   UNL     1      13.984  10.647  -4.999  0.00  0.00    +0.000 A 
ATOM     19  C   UNL     1      10.259   7.507  -4.960  0.00  0.00    +0.000 C 
ATOM     20  C   UNL     1      12.794   8.587  -3.471  0.00  0.00    +0.000 A 
ATOM     21  C   UNL     1      14.525  10.262  -3.772  0.00  0.00    +0.000 A 
ATOM     22  C   UNL     1      13.940   9.248  -3.025  0.00  0.00    +0.000 A 
ENDBRANCH   3   9
BRANCH   5  25
ATOM     23  O   UNL     1      10.061  13.096 -13.182  0.00  0.00    +0.000 OA
ATOM     24  N   UNL     1      12.090  14.167 -12.617  0.00  0.00    +0.000 N 
ATOM     25  C   UNL     1      11.247  13.057 -12.868  0.00  0.00    +0.000 C 
ATOM     26  C   UNL     1      13.515  14.066 -12.286  0.00  0.00    +0.000 C 
BRANCH  24  27
ATOM     27  C   UNL     1      11.574  15.475 -12.649  0.00  0.00    +0.000 C 
ATOM     28  C   UNL     1      11.112  16.123 -11.452  0.00  0.00    +0.000 C 
ATOM     29  C   UNL     1      10.691  16.716 -10.373  0.00  0.00    +0.000 C 
ATOM     30  C   UNL     1      11.522  17.895  -9.914  0.00  0.00    +0.000 C 
BRANCH  27  31
ATOM     31  C   UNL     1      11.507  16.240 -13.886  0.00  0.00    +0.000 C 
ATOM     32  C   UNL     1      11.629  17.750 -13.864  0.00  0.00    +0.000 C 
ATOM     33  C   UNL     1      11.927  15.588 -15.190  0.00  0.00    +0.000 C 
ENDBRANCH  27  31
BRANCH  29  35
ATOM     34  O   UNL     1       9.452  15.579  -8.644  0.00  0.00    +0.000 OA
ATOM     35  C   UNL     1       9.468  16.221  -9.684  0.00  0.00    +0.000 C 
BRANCH  35  36
ATOM     36  O   UNL     1       8.310  16.533 -10.304  0.00  0.00    +0.000 OA
ATOM     37  H   UNL     1       7.606  16.320  -9.657  0.00  0.00    +0.000 HD
ENDBRANCH  35  36
ENDBRANCH  29  35
ENDBRANCH  24  27
ENDBRANCH   5  25
BRANCH   5  38
ATOM     38  C   UNL     1      12.379  11.040 -13.897  0.00  0.00    +0.000 C 
ATOM     39  C   UNL     1      13.813  10.514 -13.567  0.00  0.00    +0.000 C 
ATOM     40  C   UNL     1      11.462   9.814 -14.175  0.00  0.00    +0.000 C 
ATOM     41  C   UNL     1      12.454  11.973 -15.130  0.00  0.00    +0.000 C 
ENDBRANCH   5  38
TORSDOF 7
ENDMDL
MODEL 5
REMARK VINA RESULT:      -6.1     25.712     28.644
REMARK  Name = 10940649_MilnamideD.pdbqt.pdb
REMARK  7 active torsions:
REMARK  status: ('A' for Active; 'I' for Inactive)
REMARK    1  A    between atoms: C_3  and  C_8
REMARK    2  A    between atoms: C_22  and  C_25
REMARK    3  A    between atoms: C_22  and  C_38
REMARK    4  A    between atoms: N_24  and  C_27
REMARK    5  A    between atoms: C_27  and  C_28
REMARK    6  A    between atoms: C_32  and  C_35
REMARK    7  A    between atoms: C_35  and  O_36
REMARK                            x       y       z     vdW  Elec       q    Type
REMARK                         _______ _______ _______ _____ _____    ______ ____
ROOT
ATOM      1  O   UNL     1      10.966  12.605 -12.051  0.00  0.00    +0.000 OA
ATOM      2  N   UNL     1      11.635  10.567 -12.796  0.00  0.00    +0.000 N 
ATOM      3  C   UNL     1      11.208  11.429 -11.804  0.00  0.00    +0.000 C 
ATOM      4  H   UNL     1      11.924   9.619 -12.528  0.00  0.00    +0.000 HD
ATOM      5  C   UNL     1      11.781  10.907 -14.163  0.00  0.00    +0.000 C 
ENDROOT
BRANCH   3   9
ATOM      6  N   UNL     1       9.922   9.966 -10.121  0.00  0.00    +0.000 NA
ATOM      7  N   UNL     1      10.946   9.474  -6.366  0.00  0.00    +0.000 N 
ATOM      8  C   UNL     1      11.992  11.463  -9.346  0.00  0.00    +0.000 C 
ATOM      9  C   UNL     1      11.061  10.846 -10.431  0.00  0.00    +0.000 C 
ATOM     10  C   UNL     1      11.846  10.803  -7.938  0.00  0.00    +0.000 A 
ATOM     11  C   UNL     1      10.865   9.876  -7.654  0.00  0.00    +0.000 A 
ATOM     12  C   UNL     1      11.607  12.953  -9.105  0.00  0.00    +0.000 C 
ATOM     13  C   UNL     1      13.479  11.228  -9.738  0.00  0.00    +0.000 C 
ATOM     14  C   UNL     1      12.566  10.976  -6.702  0.00  0.00    +0.000 A 
ATOM     15  C   UNL     1      10.035   9.577  -8.740  0.00  0.00    +0.000 C 
ATOM     16  C   UNL     1      11.981  10.128  -5.741  0.00  0.00    +0.000 A 
ATOM     17  C   UNL     1       9.965   8.751 -10.920  0.00  0.00    +0.000 C 
ATOM     18  C   UNL     1      13.657  11.779  -6.313  0.00  0.00    +0.000 A 
ATOM     19  C   UNL     1      10.070   8.529  -5.762  0.00  0.00    +0.000 C 
ATOM     20  C   UNL     1      12.452  10.058  -4.421  0.00  0.00    +0.000 A 
ATOM     21  C   UNL     1      14.130  11.713  -5.002  0.00  0.00    +0.000 A 
ATOM     22  C   UNL     1      13.537  10.865  -4.076  0.00  0.00    +0.000 A 
ENDBRANCH   3   9
BRANCH   5  25
ATOM     23  O   UNL     1      10.087  12.336 -14.874  0.00  0.00    +0.000 OA
ATOM     24  N   UNL     1      12.273  13.227 -14.769  0.00  0.00    +0.000 N 
ATOM     25  C   UNL     1      11.290  12.214 -14.662  0.00  0.00    +0.000 C 
ATOM     26  C   UNL     1      13.708  13.016 -14.544  0.00  0.00    +0.000 C 
BRANCH  24  27
ATOM     27  C   UNL     1      11.905  14.547 -15.085  0.00  0.00    +0.000 C 
ATOM     28  C   UNL     1      11.662  15.519 -14.055  0.00  0.00    +0.000 C 
ATOM     29  C   UNL     1      11.440  16.405 -13.128  0.00  0.00    +0.000 C 
ATOM     30  C   UNL     1      12.444  17.536 -13.056  0.00  0.00    +0.000 C 
BRANCH  27  31
ATOM     31  C   UNL     1      11.777  14.995 -16.464  0.00  0.00    +0.000 C 
ATOM     32  C   UNL     1      12.913  15.735 -17.141  0.00  0.00    +0.000 C 
ATOM     33  C   UNL     1      10.854  14.247 -17.409  0.00  0.00    +0.000 C 
ENDBRANCH  27  31
BRANCH  29  35
ATOM     34  O   UNL     1       9.748  17.163 -11.585  0.00  0.00    +0.000 OA
ATOM     35  C   UNL     1      10.260  16.261 -12.233  0.00  0.00    +0.000 C 
BRANCH  35  36
ATOM     36  O   UNL     1       9.756  15.011 -12.166  0.00  0.00    +0.000 OA
ATOM     37  H   UNL     1       9.786  14.772 -11.216  0.00  0.00    +0.000 HD
ENDBRANCH  35  36
ENDBRANCH  29  35
ENDBRANCH  24  27
ENDBRANCH   5  25
BRANCH   5  38
ATOM     38  C   UNL     1      12.179   9.916 -15.245  0.00  0.00    +0.000 C 
ATOM     39  C   UNL     1      13.649   9.484 -14.941  0.00  0.00    +0.000 C 
ATOM     40  C   UNL     1      11.264   8.665 -15.105  0.00  0.00    +0.000 C 
ATOM     41  C   UNL     1      12.109  10.502 -16.677  0.00  0.00    +0.000 C 
ENDBRANCH   5  38
TORSDOF 7
ENDMDL
MODEL 6
REMARK VINA RESULT:      -6.0     24.501     28.395
REMARK  Name = 10940649_MilnamideD.pdbqt.pdb
REMARK  7 active torsions:
REMARK  status: ('A' for Active; 'I' for Inactive)
REMARK    1  A    between atoms: C_3  and  C_8
REMARK    2  A    between atoms: C_22  and  C_25
REMARK    3  A    between atoms: C_22  and  C_38
REMARK    4  A    between atoms: N_24  and  C_27
REMARK    5  A    between atoms: C_27  and  C_28
REMARK    6  A    between atoms: C_32  and  C_35
REMARK    7  A    between atoms: C_35  and  O_36
REMARK                            x       y       z     vdW  Elec       q    Type
REMARK                         _______ _______ _______ _____ _____    ______ ____
ROOT
ATOM      1  O   UNL     1       9.857  12.017 -20.905  0.00  0.00    +0.000 OA
ATOM      2  N   UNL     1      10.358  12.631 -23.033  0.00  0.00    +0.000 N 
ATOM      3  C   UNL     1       9.490  12.163 -22.065  0.00  0.00    +0.000 C 
ATOM      4  H   UNL     1      10.042  12.641 -24.009  0.00  0.00    +0.000 HD
ATOM      5  C   UNL     1      11.696  13.034 -22.800  0.00  0.00    +0.000 C 
ENDROOT
BRANCH   3   9
ATOM      6  N   UNL     1       7.843  10.687 -23.382  0.00  0.00    +0.000 NA
ATOM      7  N   UNL     1       3.990  11.367 -23.671  0.00  0.00    +0.000 N 
ATOM      8  C   UNL     1       7.047  12.974 -22.256  0.00  0.00    +0.000 C 
ATOM      9  C   UNL     1       8.095  11.851 -22.516  0.00  0.00    +0.000 C 
ATOM     10  C   UNL     1       5.597  12.599 -22.696  0.00  0.00    +0.000 A 
ATOM     11  C   UNL     1       5.312  11.446 -23.400  0.00  0.00    +0.000 A 
ATOM     12  C   UNL     1       7.391  14.226 -23.117  0.00  0.00    +0.000 C 
ATOM     13  C   UNL     1       6.937  13.243 -20.727  0.00  0.00    +0.000 C 
ATOM     14  C   UNL     1       4.330  13.270 -22.549  0.00  0.00    +0.000 A 
ATOM     15  C   UNL     1       6.431  10.650 -23.661  0.00  0.00    +0.000 C 
ATOM     16  C   UNL     1       3.346  12.471 -23.165  0.00  0.00    +0.000 A 
ATOM     17  C   UNL     1       8.185   9.446 -22.706  0.00  0.00    +0.000 C 
ATOM     18  C   UNL     1       3.933  14.483 -21.952  0.00  0.00    +0.000 A 
ATOM     19  C   UNL     1       3.379  10.301 -24.389  0.00  0.00    +0.000 C 
ATOM     20  C   UNL     1       1.993  12.845 -23.197  0.00  0.00    +0.000 A 
ATOM     21  C   UNL     1       2.590  14.860 -21.981  0.00  0.00    +0.000 A 
ATOM     22  C   UNL     1       1.639  14.052 -22.592  0.00  0.00    +0.000 A 
ENDBRANCH   3   9
BRANCH   5  25
ATOM     23  O   UNL     1      11.945  14.179 -20.789  0.00  0.00    +0.000 OA
ATOM     24  N   UNL     1      12.891  12.017 -20.921  0.00  0.00    +0.000 N 
ATOM     25  C   UNL     1      12.207  13.155 -21.414  0.00  0.00    +0.000 C 
ATOM     26  C   UNL     1      13.215  10.834 -21.726  0.00  0.00    +0.000 C 
BRANCH  24  27
ATOM     27  C   UNL     1      13.289  11.953 -19.574  0.00  0.00    +0.000 C 
ATOM     28  C   UNL     1      12.322  11.862 -18.516  0.00  0.00    +0.000 C 
ATOM     29  C   UNL     1      11.452  11.780 -17.552  0.00  0.00    +0.000 C 
ATOM     30  C   UNL     1      11.441  10.469 -16.795  0.00  0.00    +0.000 C 
BRANCH  27  31
ATOM     31  C   UNL     1      14.694  11.950 -19.192  0.00  0.00    +0.000 C 
ATOM     32  C   UNL     1      15.656  12.956 -19.791  0.00  0.00    +0.000 C 
ATOM     33  C   UNL     1      15.095  11.424 -17.826  0.00  0.00    +0.000 C 
ENDBRANCH  27  31
BRANCH  29  35
ATOM     34  O   UNL     1      10.281  13.352 -16.145  0.00  0.00    +0.000 OA
ATOM     35  C   UNL     1      10.557  12.934 -17.260  0.00  0.00    +0.000 C 
BRANCH  35  36
ATOM     36  O   UNL     1      10.034  13.528 -18.354  0.00  0.00    +0.000 OA
ATOM     37  H   UNL     1      10.695  14.199 -18.624  0.00  0.00    +0.000 HD
ENDBRANCH  35  36
ENDBRANCH  29  35
ENDBRANCH  24  27
ENDBRANCH   5  25
BRANCH   5  38
ATOM     38  C   UNL     1      12.604  13.618 -23.871  0.00  0.00    +0.000 C 
ATOM     39  C   UNL     1      12.764  12.521 -24.971  0.00  0.00    +0.000 C 
ATOM     40  C   UNL     1      11.872  14.838 -24.502  0.00  0.00    +0.000 C 
ATOM     41  C   UNL     1      14.004  14.017 -23.345  0.00  0.00    +0.000 C 
ENDBRANCH   5  38
TORSDOF 7
ENDMDL
MODEL 7
REMARK VINA RESULT:      -6.0     21.128     25.255
REMARK  Name = 10940649_MilnamideD.pdbqt.pdb
REMARK  7 active torsions:
REMARK  status: ('A' for Active; 'I' for Inactive)
REMARK    1  A    between atoms: C_3  and  C_8
REMARK    2  A    between atoms: C_22  and  C_25
REMARK    3  A    between atoms: C_22  and  C_38
REMARK    4  A    between atoms: N_24  and  C_27
REMARK    5  A    between atoms: C_27  and  C_28
REMARK    6  A    between atoms: C_32  and  C_35
REMARK    7  A    between atoms: C_35  and  O_36
REMARK                            x       y       z     vdW  Elec       q    Type
REMARK                         _______ _______ _______ _____ _____    ______ ____
ROOT
ATOM      1  O   UNL     1       4.283   1.118 -21.651  0.00  0.00    +0.000 OA
ATOM      2  N   UNL     1       4.716  -0.816 -20.543  0.00  0.00    +0.000 N 
ATOM      3  C   UNL     1       4.985   0.503 -20.857  0.00  0.00    +0.000 C 
ATOM      4  H   UNL     1       5.385  -1.324 -19.954  0.00  0.00    +0.000 HD
ATOM      5  C   UNL     1       3.615  -1.561 -21.032  0.00  0.00    +0.000 C 
ENDROOT
BRANCH   3   9
ATOM      6  N   UNL     1       5.970   2.070 -19.068  0.00  0.00    +0.000 NA
ATOM      7  N   UNL     1       9.802   2.752 -18.577  0.00  0.00    +0.000 N 
ATOM      8  C   UNL     1       7.530   0.924 -20.907  0.00  0.00    +0.000 C 
ATOM      9  C   UNL     1       6.168   1.122 -20.178  0.00  0.00    +0.000 C 
ATOM     10  C   UNL     1       8.748   1.543 -20.151  0.00  0.00    +0.000 A 
ATOM     11  C   UNL     1       8.599   2.331 -19.029  0.00  0.00    +0.000 A 
ATOM     12  C   UNL     1       7.512   1.676 -22.272  0.00  0.00    +0.000 C 
ATOM     13  C   UNL     1       7.856  -0.594 -21.002  0.00  0.00    +0.000 C 
ATOM     14  C   UNL     1      10.168   1.503 -20.394  0.00  0.00    +0.000 A 
ATOM     15  C   UNL     1       7.270   2.507 -18.631  0.00  0.00    +0.000 C 
ATOM     16  C   UNL     1      10.798   2.266 -19.391  0.00  0.00    +0.000 A 
ATOM     17  C   UNL     1       5.325   1.425 -17.936  0.00  0.00    +0.000 C 
ATOM     18  C   UNL     1      10.972   0.893 -21.378  0.00  0.00    +0.000 A 
ATOM     19  C   UNL     1       9.987   3.589 -17.441  0.00  0.00    +0.000 C 
ATOM     20  C   UNL     1      12.191   2.430 -19.341  0.00  0.00    +0.000 A 
ATOM     21  C   UNL     1      12.357   1.053 -21.334  0.00  0.00    +0.000 A 
ATOM     22  C   UNL     1      12.953   1.807 -20.331  0.00  0.00    +0.000 A 
ENDBRANCH   3   9
BRANCH   5  25
ATOM     23  O   UNL     1       2.572  -0.959 -23.024  0.00  0.00    +0.000 OA
ATOM     24  N   UNL     1       1.527  -0.283 -21.015  0.00  0.00    +0.000 N 
ATOM     25  C   UNL     1       2.540  -0.886 -21.799  0.00  0.00    +0.000 C 
ATOM     26  C   UNL     1       1.560  -0.186 -19.552  0.00  0.00    +0.000 C 
BRANCH  24  27
ATOM     27  C   UNL     1       0.380   0.255 -21.625  0.00  0.00    +0.000 C 
ATOM     28  C   UNL     1      -0.018   1.616 -21.394  0.00  0.00    +0.000 C 
ATOM     29  C   UNL     1      -0.386   2.847 -21.189  0.00  0.00    +0.000 C 
ATOM     30  C   UNL     1      -0.276   3.766 -22.387  0.00  0.00    +0.000 C 
BRANCH  27  31
ATOM     31  C   UNL     1      -0.441  -0.531 -22.535  0.00  0.00    +0.000 C 
ATOM     32  C   UNL     1      -1.404  -1.572 -21.998  0.00  0.00    +0.000 C 
ATOM     33  C   UNL     1      -0.817   0.044 -23.888  0.00  0.00    +0.000 C 
ENDBRANCH  27  31
BRANCH  29  35
ATOM     34  O   UNL     1      -0.883   4.406 -19.417  0.00  0.00    +0.000 OA
ATOM     35  C   UNL     1      -0.873   3.261 -19.845  0.00  0.00    +0.000 C 
BRANCH  35  36
ATOM     36  O   UNL     1      -1.327   2.249 -19.076  0.00  0.00    +0.000 OA
ATOM     37  H   UNL     1      -0.700   2.193 -18.326  0.00  0.00    +0.000 HD
ENDBRANCH  35  36
ENDBRANCH  29  35
ENDBRANCH  24  27
ENDBRANCH   5  25
BRANCH   5  38
ATOM     38  C   UNL     1       3.301  -2.987 -20.607  0.00  0.00    +0.000 C 
ATOM     39  C   UNL     1       4.477  -3.877 -21.120  0.00  0.00    +0.000 C 
ATOM     40  C   UNL     1       3.298  -3.031 -19.052  0.00  0.00    +0.000 C 
ATOM     41  C   UNL     1       1.969  -3.526 -21.185  0.00  0.00    +0.000 C 
ENDBRANCH   5  38
TORSDOF 7
ENDMDL
MODEL 8
REMARK VINA RESULT:      -6.0     18.797     23.938
REMARK  Name = 10940649_MilnamideD.pdbqt.pdb
REMARK  7 active torsions:
REMARK  status: ('A' for Active; 'I' for Inactive)
REMARK    1  A    between atoms: C_3  and  C_8
REMARK    2  A    between atoms: C_22  and  C_25
REMARK    3  A    between atoms: C_22  and  C_38
REMARK    4  A    between atoms: N_24  and  C_27
REMARK    5  A    between atoms: C_27  and  C_28
REMARK    6  A    between atoms: C_32  and  C_35
REMARK    7  A    between atoms: C_35  and  O_36
REMARK                            x       y       z     vdW  Elec       q    Type
REMARK                         _______ _______ _______ _____ _____    ______ ____
ROOT
ATOM      1  O   UNL     1       6.131   2.007   2.647  0.00  0.00    +0.000 OA
ATOM      2  N   UNL     1       5.413   3.482   1.077  0.00  0.00    +0.000 N 
ATOM      3  C   UNL     1       5.202   2.624   2.139  0.00  0.00    +0.000 C 
ATOM      4  H   UNL     1       4.597   3.900   0.615  0.00  0.00    +0.000 HD
ATOM      5  C   UNL     1       6.677   3.782   0.511  0.00  0.00    +0.000 C 
ENDROOT
BRANCH   3   9
ATOM      6  N   UNL     1       3.476   2.705   4.047  0.00  0.00    +0.000 NA
ATOM      7  N   UNL     1      -0.348   1.941   3.620  0.00  0.00    +0.000 N 
ATOM      8  C   UNL     1       2.793   1.865   1.606  0.00  0.00    +0.000 C 
ATOM      9  C   UNL     1       3.789   2.498   2.623  0.00  0.00    +0.000 C 
ATOM     10  C   UNL     1       1.323   1.790   2.125  0.00  0.00    +0.000 A 
ATOM     11  C   UNL     1       0.979   2.103   3.425  0.00  0.00    +0.000 A 
ATOM     12  C   UNL     1       3.179   0.379   1.347  0.00  0.00    +0.000 C 
ATOM     13  C   UNL     1       2.716   2.752   0.330  0.00  0.00    +0.000 C 
ATOM     14  C   UNL     1       0.088   1.393   1.498  0.00  0.00    +0.000 A 
ATOM     15  C   UNL     1       2.060   2.505   4.216  0.00  0.00    +0.000 C 
ATOM     16  C   UNL     1      -0.938   1.503   2.458  0.00  0.00    +0.000 A 
ATOM     17  C   UNL     1       3.774   4.068   4.458  0.00  0.00    +0.000 C 
ATOM     18  C   UNL     1      -0.249   0.947   0.204  0.00  0.00    +0.000 A 
ATOM     19  C   UNL     1      -1.014   2.175   4.856  0.00  0.00    +0.000 C 
ATOM     20  C   UNL     1      -2.273   1.187   2.164  0.00  0.00    +0.000 A 
ATOM     21  C   UNL     1      -1.575   0.632  -0.094  0.00  0.00    +0.000 A 
ATOM     22  C   UNL     1      -2.568   0.753   0.870  0.00  0.00    +0.000 A 
ENDBRANCH   3   9
BRANCH   5  25
ATOM     23  O   UNL     1       8.499   2.344   0.690  0.00  0.00    +0.000 OA
ATOM     24  N   UNL     1       8.353   4.098   2.267  0.00  0.00    +0.000 N 
ATOM     25  C   UNL     1       7.919   3.313   1.172  0.00  0.00    +0.000 C 
ATOM     26  C   UNL     1       7.598   5.222   2.831  0.00  0.00    +0.000 C 
BRANCH  24  27
ATOM     27  C   UNL     1       9.594   3.844   2.877  0.00  0.00    +0.000 C 
ATOM     28  C   UNL     1       9.674   3.242   4.179  0.00  0.00    +0.000 C 
ATOM     29  C   UNL     1       9.755   2.697   5.358  0.00  0.00    +0.000 C 
ATOM     30  C   UNL     1      10.339   1.301   5.391  0.00  0.00    +0.000 C 
BRANCH  27  31
ATOM     31  C   UNL     1      10.851   4.156   2.212  0.00  0.00    +0.000 C 
ATOM     32  C   UNL     1      11.941   3.108   2.096  0.00  0.00    +0.000 C 
ATOM     33  C   UNL     1      10.880   5.224   1.134  0.00  0.00    +0.000 C 
ENDBRANCH  27  31
BRANCH  29  35
ATOM     34  O   UNL     1       9.271   3.018   7.700  0.00  0.00    +0.000 OA
ATOM     35  C   UNL     1       9.289   3.449   6.555  0.00  0.00    +0.000 C 
BRANCH  35  36
ATOM     36  O   UNL     1       8.859   4.702   6.299  0.00  0.00    +0.000 OA
ATOM     37  H   UNL     1       8.789   5.135   7.175  0.00  0.00    +0.000 HD
ENDBRANCH  35  36
ENDBRANCH  29  35
ENDBRANCH  24  27
ENDBRANCH   5  25
BRANCH   5  38
ATOM     38  C   UNL     1       6.888   4.790  -0.607  0.00  0.00    +0.000 C 
ATOM     39  C   UNL     1       7.999   4.204  -1.536  0.00  0.00    +0.000 C 
ATOM     40  C   UNL     1       5.567   4.878  -1.424  0.00  0.00    +0.000 C 
ATOM     41  C   UNL     1       7.330   6.186  -0.107  0.00  0.00    +0.000 C 
ENDBRANCH   5  38
TORSDOF 7
ENDMDL
MODEL 9
REMARK VINA RESULT:      -5.9     26.457     30.349
REMARK  Name = 10940649_MilnamideD.pdbqt.pdb
REMARK  7 active torsions:
REMARK  status: ('A' for Active; 'I' for Inactive)
REMARK    1  A    between atoms: C_3  and  C_8
REMARK    2  A    between atoms: C_22  and  C_25
REMARK    3  A    between atoms: C_22  and  C_38
REMARK    4  A    between atoms: N_24  and  C_27
REMARK    5  A    between atoms: C_27  and  C_28
REMARK    6  A    between atoms: C_32  and  C_35
REMARK    7  A    between atoms: C_35  and  O_36
REMARK                            x       y       z     vdW  Elec       q    Type
REMARK                         _______ _______ _______ _____ _____    ______ ____
ROOT
ATOM      1  O   UNL     1      12.639  13.063 -16.840  0.00  0.00    +0.000 OA
ATOM      2  N   UNL     1      14.376  11.613 -17.027  0.00  0.00    +0.000 N 
ATOM      3  C   UNL     1      13.526  12.578 -17.533  0.00  0.00    +0.000 C 
ATOM      4  H   UNL     1      15.037  11.160 -17.669  0.00  0.00    +0.000 HD
ATOM      5  C   UNL     1      14.363  11.134 -15.695  0.00  0.00    +0.000 C 
ENDROOT
BRANCH   3   9
ATOM      6  N   UNL     1      14.419  14.264 -19.260  0.00  0.00    +0.000 NA
ATOM      7  N   UNL     1      14.111  13.839 -23.147  0.00  0.00    +0.000 N 
ATOM      8  C   UNL     1      12.990  12.140 -20.019  0.00  0.00    +0.000 C 
ATOM      9  C   UNL     1      13.752  12.987 -18.957  0.00  0.00    +0.000 C 
ATOM     10  C   UNL     1      13.283  12.564 -21.493  0.00  0.00    +0.000 A 
ATOM     11  C   UNL     1      14.017  13.689 -21.808  0.00  0.00    +0.000 A 
ATOM     12  C   UNL     1      11.455  12.354 -19.863  0.00  0.00    +0.000 C 
ATOM     13  C   UNL     1      13.455  10.658 -19.936  0.00  0.00    +0.000 C 
ATOM     14  C   UNL     1      12.895  12.004 -22.763  0.00  0.00    +0.000 A 
ATOM     15  C   UNL     1      14.481  14.394 -20.693  0.00  0.00    +0.000 C 
ATOM     16  C   UNL     1      13.432  12.822 -23.776  0.00  0.00    +0.000 A 
ATOM     17  C   UNL     1      15.786  14.274 -18.763  0.00  0.00    +0.000 C 
ATOM     18  C   UNL     1      12.134  10.879 -23.141  0.00  0.00    +0.000 A 
ATOM     19  C   UNL     1      14.797  14.906 -23.792  0.00  0.00    +0.000 C 
ATOM     20  C   UNL     1      13.235  12.549 -25.139  0.00  0.00    +0.000 A 
ATOM     21  C   UNL     1      11.935  10.603 -24.494  0.00  0.00    +0.000 A 
ATOM     22  C   UNL     1      12.479  11.424 -25.473  0.00  0.00    +0.000 A 
ENDBRANCH   3   9
BRANCH   5  25
ATOM     23  O   UNL     1      13.948  12.824 -14.148  0.00  0.00    +0.000 OA
ATOM     24  N   UNL     1      12.251  11.210 -14.461  0.00  0.00    +0.000 N 
ATOM     25  C   UNL     1      13.521  11.799 -14.672  0.00  0.00    +0.000 C 
ATOM     26  C   UNL     1      11.805   9.958 -15.082  0.00  0.00    +0.000 C 
BRANCH  24  27
ATOM     27  C   UNL     1      11.305  11.835 -13.629  0.00  0.00    +0.000 C 
ATOM     28  C   UNL     1      11.147  11.444 -12.255  0.00  0.00    +0.000 C 
ATOM     29  C   UNL     1      10.997  11.094 -11.011  0.00  0.00    +0.000 C 
ATOM     30  C   UNL     1      11.418  12.130  -9.990  0.00  0.00    +0.000 C 
BRANCH  27  31
ATOM     31  C   UNL     1      10.463  12.920 -14.111  0.00  0.00    +0.000 C 
ATOM     32  C   UNL     1      10.657  14.332 -13.595  0.00  0.00    +0.000 C 
ATOM     33  C   UNL     1       9.847  12.830 -15.496  0.00  0.00    +0.000 C 
ENDBRANCH  27  31
BRANCH  29  35
ATOM     34  O   UNL     1      10.313   9.300  -9.551  0.00  0.00    +0.000 OA
ATOM     35  C   UNL     1      10.443   9.753 -10.679  0.00  0.00    +0.000 C 
BRANCH  35  36
ATOM     36  O   UNL     1      10.072   9.019 -11.749  0.00  0.00    +0.000 OA
ATOM     37  H   UNL     1      10.654   8.231 -11.736  0.00  0.00    +0.000 HD
ENDBRANCH  35  36
ENDBRANCH  29  35
ENDBRANCH  24  27
ENDBRANCH   5  25
BRANCH   5  38
ATOM     38  C   UNL     1      15.363  10.128 -15.146  0.00  0.00    +0.000 C 
ATOM     39  C   UNL     1      15.245   8.848 -16.034  0.00  0.00    +0.000 C 
ATOM     40  C   UNL     1      16.788  10.721 -15.334  0.00  0.00    +0.000 C 
ATOM     41  C   UNL     1      15.107   9.744 -13.668  0.00  0.00    +0.000 C 
ENDBRANCH   5  38
TORSDOF 7
ENDMDL
