MODEL 1
REMARK VINA RESULT:      -7.3      0.000      0.000
REMARK  Name = 11167602_Regorafenib.pdbqt.pdb
REMARK  6 active torsions:
REMARK  status: ('A' for Active; 'I' for Inactive)
REMARK    1  A    between atoms: C_2  and  N_10
REMARK    2  A    between atoms: C_3  and  O_25
REMARK    3  A    between atoms: N_9  and  C_15
REMARK    4  A    between atoms: C_16  and  C_24
REMARK    5  A    between atoms: O_25  and  C_27
REMARK    6  A    between atoms: C_29  and  C_34
REMARK                            x       y       z     vdW  Elec       q    Type
REMARK                         _______ _______ _______ _____ _____    ______ ____
ROOT
ATOM      1  F   UNL     1       3.874  -1.050 -17.145  0.00  0.00    +0.000 F 
ATOM      2  C   UNL     1       3.384   0.879 -18.425  0.00  0.00    +0.000 A 
ATOM      3  C   UNL     1       0.964  -0.306 -19.171  0.00  0.00    +0.000 A 
ATOM      4  C   UNL     1       3.036  -0.394 -17.963  0.00  0.00    +0.000 A 
ATOM      5  C   UNL     1       2.510   1.542 -19.285  0.00  0.00    +0.000 A 
ATOM      6  C   UNL     1       1.842  -0.999 -18.338  0.00  0.00    +0.000 A 
ATOM      7  C   UNL     1       1.308   0.949 -19.670  0.00  0.00    +0.000 A 
ENDROOT
BRANCH   2  10
ATOM      8  O   UNL     1       6.019   0.574 -19.609  0.00  0.00    +0.000 OA
ATOM      9  N   UNL     1       6.826   1.970 -17.952  0.00  0.00    +0.000 N 
ATOM     10  N   UNL     1       4.607   1.436 -17.997  0.00  0.00    +0.000 N 
ATOM     11  C   UNL     1       5.835   1.262 -18.614  0.00  0.00    +0.000 C 
ATOM     12  H   UNL     1       6.555   2.530 -17.157  0.00  0.00    +0.000 HD
ATOM     13  H   UNL     1       4.562   1.996 -17.157  0.00  0.00    +0.000 HD
BRANCH   9  15
ATOM     14 CL   UNL     1      12.579   2.023 -19.351  0.00  0.00    +0.000 Cl
ATOM     15  C   UNL     1       8.186   2.002 -18.312  0.00  0.00    +0.000 A 
ATOM     16  C   UNL     1      10.465   1.330 -17.759  0.00  0.00    +0.000 A 
ATOM     17  C   UNL     1       9.094   1.350 -17.477  0.00  0.00    +0.000 A 
ATOM     18  C   UNL     1       8.657   2.646 -19.451  0.00  0.00    +0.000 A 
ATOM     19  C   UNL     1      10.917   1.983 -18.906  0.00  0.00    +0.000 A 
ATOM     20  C   UNL     1      10.017   2.638 -19.747  0.00  0.00    +0.000 A 
BRANCH  16  24
ATOM     21  F   UNL     1      12.069  -0.403 -17.424  0.00  0.00    +0.000 F 
ATOM     22  F   UNL     1      12.336   1.421 -16.286  0.00  0.00    +0.000 F 
ATOM     23  F   UNL     1      10.732   0.034 -15.776  0.00  0.00    +0.000 F 
ATOM     24  C   UNL     1      11.383   0.611 -16.822  0.00  0.00    +0.000 C 
ENDBRANCH  16  24
ENDBRANCH   9  15
ENDBRANCH   2  10
BRANCH   3  25
ATOM     25  O   UNL     1      -0.197  -0.872 -19.641  0.00  0.00    +0.000 OA
BRANCH  25  27
ATOM     26  N   UNL     1      -3.800   1.185 -19.196  0.00  0.00    +0.000 NA
ATOM     27  C   UNL     1      -1.357  -0.137 -19.542  0.00  0.00    +0.000 A 
ATOM     28  C   UNL     1      -1.945   0.515 -20.621  0.00  0.00    +0.000 A 
ATOM     29  C   UNL     1      -3.148   1.162 -20.393  0.00  0.00    +0.000 A 
ATOM     30  C   UNL     1      -1.996  -0.161 -18.306  0.00  0.00    +0.000 A 
ATOM     31  C   UNL     1      -3.200   0.514 -18.186  0.00  0.00    +0.000 A 
BRANCH  29  34
ATOM     32  O   UNL     1      -3.144   2.250 -22.485  0.00  0.00    +0.000 OA
ATOM     33  N   UNL     1      -5.146   2.118 -21.284  0.00  0.00    +0.000 N 
ATOM     34  C   UNL     1      -3.797   1.900 -21.507  0.00  0.00    +0.000 C 
ATOM     35  C   UNL     1      -6.148   2.781 -22.074  0.00  0.00    +0.000 C 
ATOM     36  H   UNL     1      -5.490   1.746 -20.400  0.00  0.00    +0.000 HD
ENDBRANCH  29  34
ENDBRANCH  25  27
ENDBRANCH   3  25
TORSDOF 6
ENDMDL
MODEL 2
REMARK VINA RESULT:      -7.3      2.344      3.790
REMARK  Name = 11167602_Regorafenib.pdbqt.pdb
REMARK  6 active torsions:
REMARK  status: ('A' for Active; 'I' for Inactive)
REMARK    1  A    between atoms: C_2  and  N_10
REMARK    2  A    between atoms: C_3  and  O_25
REMARK    3  A    between atoms: N_9  and  C_15
REMARK    4  A    between atoms: C_16  and  C_24
REMARK    5  A    between atoms: O_25  and  C_27
REMARK    6  A    between atoms: C_29  and  C_34
REMARK                            x       y       z     vdW  Elec       q    Type
REMARK                         _______ _______ _______ _____ _____    ______ ____
ROOT
ATOM      1  F   UNL     1       3.457  -0.798 -17.232  0.00  0.00    +0.000 F 
ATOM      2  C   UNL     1       3.346   1.202 -18.493  0.00  0.00    +0.000 A 
ATOM      3  C   UNL     1       0.824   0.413 -19.406  0.00  0.00    +0.000 A 
ATOM      4  C   UNL     1       2.781  -0.009 -18.081  0.00  0.00    +0.000 A 
ATOM      5  C   UNL     1       2.637   2.003 -19.387  0.00  0.00    +0.000 A 
ATOM      6  C   UNL     1       1.533  -0.419 -18.539  0.00  0.00    +0.000 A 
ATOM      7  C   UNL     1       1.385   1.606 -19.854  0.00  0.00    +0.000 A 
ENDROOT
BRANCH   2  10
ATOM      8  O   UNL     1       5.936   1.017 -19.794  0.00  0.00    +0.000 OA
ATOM      9  N   UNL     1       6.862   1.920 -17.877  0.00  0.00    +0.000 N 
ATOM     10  N   UNL     1       4.611   1.558 -17.981  0.00  0.00    +0.000 N 
ATOM     11  C   UNL     1       5.815   1.457 -18.659  0.00  0.00    +0.000 C 
ATOM     12  H   UNL     1       6.643   2.290 -16.964  0.00  0.00    +0.000 HD
ATOM     13  H   UNL     1       4.617   1.902 -17.031  0.00  0.00    +0.000 HD
BRANCH   9  15
ATOM     14 CL   UNL     1      12.590   1.948 -19.379  0.00  0.00    +0.000 Cl
ATOM     15  C   UNL     1       8.216   1.947 -18.260  0.00  0.00    +0.000 A 
ATOM     16  C   UNL     1      10.489   1.192 -17.796  0.00  0.00    +0.000 A 
ATOM     17  C   UNL     1       9.124   1.221 -17.488  0.00  0.00    +0.000 A 
ATOM     18  C   UNL     1       8.682   2.657 -19.362  0.00  0.00    +0.000 A 
ATOM     19  C   UNL     1      10.935   1.912 -18.906  0.00  0.00    +0.000 A 
ATOM     20  C   UNL     1      10.036   2.640 -19.684  0.00  0.00    +0.000 A 
BRANCH  16  24
ATOM     21  F   UNL     1      10.777  -0.153 -15.848  0.00  0.00    +0.000 F 
ATOM     22  F   UNL     1      11.978  -0.656 -17.581  0.00  0.00    +0.000 F 
ATOM     23  F   UNL     1      12.429   1.130 -16.412  0.00  0.00    +0.000 F 
ATOM     24  C   UNL     1      11.408   0.393 -16.927  0.00  0.00    +0.000 C 
ENDBRANCH  16  24
ENDBRANCH   9  15
ENDBRANCH   2  10
BRANCH   3  25
ATOM     25  O   UNL     1      -0.379   0.038 -19.956  0.00  0.00    +0.000 OA
BRANCH  25  27
ATOM     26  N   UNL     1      -2.038  -3.564 -18.659  0.00  0.00    +0.000 NA
ATOM     27  C   UNL     1      -0.898  -1.185 -19.594  0.00  0.00    +0.000 A 
ATOM     28  C   UNL     1      -0.215  -2.386 -19.758  0.00  0.00    +0.000 A 
ATOM     29  C   UNL     1      -0.829  -3.534 -19.287  0.00  0.00    +0.000 A 
ATOM     30  C   UNL     1      -2.125  -1.162 -18.939  0.00  0.00    +0.000 A 
ATOM     31  C   UNL     1      -2.649  -2.368 -18.501  0.00  0.00    +0.000 A 
BRANCH  29  34
ATOM     32  O   UNL     1      -0.735  -5.888 -19.191  0.00  0.00    +0.000 OA
ATOM     33  N   UNL     1       1.134  -4.714 -19.960  0.00  0.00    +0.000 N 
ATOM     34  C   UNL     1      -0.153  -4.845 -19.469  0.00  0.00    +0.000 C 
ATOM     35  C   UNL     1       2.137  -5.694 -20.279  0.00  0.00    +0.000 C 
ATOM     36  H   UNL     1       1.427  -3.751 -20.121  0.00  0.00    +0.000 HD
ENDBRANCH  29  34
ENDBRANCH  25  27
ENDBRANCH   3  25
TORSDOF 6
ENDMDL
MODEL 3
REMARK VINA RESULT:      -7.1      5.488      8.470
REMARK  Name = 11167602_Regorafenib.pdbqt.pdb
REMARK  6 active torsions:
REMARK  status: ('A' for Active; 'I' for Inactive)
REMARK    1  A    between atoms: C_2  and  N_10
REMARK    2  A    between atoms: C_3  and  O_25
REMARK    3  A    between atoms: N_9  and  C_15
REMARK    4  A    between atoms: C_16  and  C_24
REMARK    5  A    between atoms: O_25  and  C_27
REMARK    6  A    between atoms: C_29  and  C_34
REMARK                            x       y       z     vdW  Elec       q    Type
REMARK                         _______ _______ _______ _____ _____    ______ ____
ROOT
ATOM      1  F   UNL     1      -4.628  -2.376 -21.743  0.00  0.00    +0.000 F 
ATOM      2  C   UNL     1      -4.402  -1.900 -19.436  0.00  0.00    +0.000 A 
ATOM      3  C   UNL     1      -6.984  -2.897 -19.041  0.00  0.00    +0.000 A 
ATOM      4  C   UNL     1      -5.155  -2.385 -20.509  0.00  0.00    +0.000 A 
ATOM      5  C   UNL     1      -4.970  -1.902 -18.162  0.00  0.00    +0.000 A 
ATOM      6  C   UNL     1      -6.446  -2.871 -20.327  0.00  0.00    +0.000 A 
ATOM      7  C   UNL     1      -6.262  -2.387 -17.964  0.00  0.00    +0.000 A 
ENDROOT
BRANCH   2  10
ATOM      8  O   UNL     1      -1.878  -3.283 -19.045  0.00  0.00    +0.000 OA
ATOM      9  N   UNL     1      -0.822  -1.401 -19.874  0.00  0.00    +0.000 N 
ATOM     10  N   UNL     1      -3.097  -1.431 -19.692  0.00  0.00    +0.000 N 
ATOM     11  C   UNL     1      -1.927  -2.146 -19.495  0.00  0.00    +0.000 C 
ATOM     12  H   UNL     1      -0.982  -0.482 -20.261  0.00  0.00    +0.000 HD
ATOM     13  H   UNL     1      -3.032  -0.482 -20.035  0.00  0.00    +0.000 HD
BRANCH   9  15
ATOM     14 CL   UNL     1       4.832  -3.103 -19.431  0.00  0.00    +0.000 Cl
ATOM     15  C   UNL     1       0.517  -1.827 -19.794  0.00  0.00    +0.000 A 
ATOM     16  C   UNL     1       2.682  -1.576 -18.699  0.00  0.00    +0.000 A 
ATOM     17  C   UNL     1       1.338  -1.214 -18.848  0.00  0.00    +0.000 A 
ATOM     18  C   UNL     1       1.049  -2.823 -20.607  0.00  0.00    +0.000 A 
ATOM     19  C   UNL     1       3.196  -2.577 -19.526  0.00  0.00    +0.000 A 
ATOM     20  C   UNL     1       2.383  -3.196 -20.475  0.00  0.00    +0.000 A 
BRANCH  16  24
ATOM     21  F   UNL     1       2.844   0.149 -17.060  0.00  0.00    +0.000 F 
ATOM     22  F   UNL     1       3.895  -1.701 -16.651  0.00  0.00    +0.000 F 
ATOM     23  F   UNL     1       4.642  -0.326 -18.171  0.00  0.00    +0.000 F 
ATOM     24  C   UNL     1       3.507  -0.879 -17.664  0.00  0.00    +0.000 C 
ENDBRANCH  16  24
ENDBRANCH   9  15
ENDBRANCH   2  10
BRANCH   3  25
ATOM     25  O   UNL     1      -8.278  -3.293 -18.799  0.00  0.00    +0.000 OA
BRANCH  25  27
ATOM     26  N   UNL     1     -11.267  -1.316 -20.936  0.00  0.00    +0.000 NA
ATOM     27  C   UNL     1      -9.289  -2.609 -19.436  0.00  0.00    +0.000 A 
ATOM     28  C   UNL     1      -9.639  -1.298 -19.128  0.00  0.00    +0.000 A 
ATOM     29  C   UNL     1     -10.630  -0.709 -19.894  0.00  0.00    +0.000 A 
ATOM     30  C   UNL     1      -9.894  -3.262 -20.505  0.00  0.00    +0.000 A 
ATOM     31  C   UNL     1     -10.872  -2.580 -21.212  0.00  0.00    +0.000 A 
BRANCH  29  34
ATOM     32  O   UNL     1     -10.651   1.244 -18.574  0.00  0.00    +0.000 OA
ATOM     33  N   UNL     1     -11.933   1.188 -20.528  0.00  0.00    +0.000 N 
ATOM     34  C   UNL     1     -11.061   0.678 -19.582  0.00  0.00    +0.000 C 
ATOM     35  C   UNL     1     -12.593   2.462 -20.627  0.00  0.00    +0.000 C 
ATOM     36  H   UNL     1     -12.149   0.546 -21.290  0.00  0.00    +0.000 HD
ENDBRANCH  29  34
ENDBRANCH  25  27
ENDBRANCH   3  25
TORSDOF 6
ENDMDL
MODEL 4
REMARK VINA RESULT:      -6.9      4.370      6.308
REMARK  Name = 11167602_Regorafenib.pdbqt.pdb
REMARK  6 active torsions:
REMARK  status: ('A' for Active; 'I' for Inactive)
REMARK    1  A    between atoms: C_2  and  N_10
REMARK    2  A    between atoms: C_3  and  O_25
REMARK    3  A    between atoms: N_9  and  C_15
REMARK    4  A    between atoms: C_16  and  C_24
REMARK    5  A    between atoms: O_25  and  C_27
REMARK    6  A    between atoms: C_29  and  C_34
REMARK                            x       y       z     vdW  Elec       q    Type
REMARK                         _______ _______ _______ _____ _____    ______ ____
ROOT
ATOM      1  F   UNL     1      -1.500   1.930 -19.163  0.00  0.00    +0.000 F 
ATOM      2  C   UNL     1      -1.913  -0.313 -18.531  0.00  0.00    +0.000 A 
ATOM      3  C   UNL     1      -4.488  -0.073 -19.593  0.00  0.00    +0.000 A 
ATOM      4  C   UNL     1      -2.341   0.885 -19.111  0.00  0.00    +0.000 A 
ATOM      5  C   UNL     1      -2.803  -1.385 -18.472  0.00  0.00    +0.000 A 
ATOM      6  C   UNL     1      -3.624   1.021 -19.630  0.00  0.00    +0.000 A 
ATOM      7  C   UNL     1      -4.092  -1.264 -18.989  0.00  0.00    +0.000 A 
ENDROOT
BRANCH   2  10
ATOM      8  O   UNL     1       0.540  -0.855 -19.987  0.00  0.00    +0.000 OA
ATOM      9  N   UNL     1       1.676  -0.605 -17.989  0.00  0.00    +0.000 N 
ATOM     10  N   UNL     1      -0.595  -0.383 -18.033  0.00  0.00    +0.000 N 
ATOM     11  C   UNL     1       0.541  -0.634 -18.784  0.00  0.00    +0.000 C 
ATOM     12  H   UNL     1       1.562  -0.383 -17.011  0.00  0.00    +0.000 HD
ATOM     13  H   UNL     1      -0.497  -0.248 -17.036  0.00  0.00    +0.000 HD
BRANCH   9  15
ATOM     14 CL   UNL     1       7.240  -1.414 -19.846  0.00  0.00    +0.000 Cl
ATOM     15  C   UNL     1       2.991  -0.830 -18.435  0.00  0.00    +0.000 A 
ATOM     16  C   UNL     1       5.183   0.130 -18.913  0.00  0.00    +0.000 A 
ATOM     17  C   UNL     1       3.857   0.263 -18.483  0.00  0.00    +0.000 A 
ATOM     18  C   UNL     1       3.460  -2.081 -18.825  0.00  0.00    +0.000 A 
ATOM     19  C   UNL     1       5.632  -1.134 -19.301  0.00  0.00    +0.000 A 
ATOM     20  C   UNL     1       4.774  -2.232 -19.257  0.00  0.00    +0.000 A 
BRANCH  16  24
ATOM     21  F   UNL     1       7.226   1.169 -18.254  0.00  0.00    +0.000 F 
ATOM     22  F   UNL     1       6.429   1.705 -20.196  0.00  0.00    +0.000 F 
ATOM     23  F   UNL     1       5.471   2.435 -18.377  0.00  0.00    +0.000 F 
ATOM     24  C   UNL     1       6.058   1.343 -18.938  0.00  0.00    +0.000 C 
ENDBRANCH  16  24
ENDBRANCH   9  15
ENDBRANCH   2  10
BRANCH   3  25
ATOM     25  O   UNL     1      -5.793   0.013 -20.019  0.00  0.00    +0.000 OA
BRANCH  25  27
ATOM     26  N   UNL     1      -7.352  -3.096 -22.324  0.00  0.00    +0.000 NA
ATOM     27  C   UNL     1      -6.314  -1.056 -20.713  0.00  0.00    +0.000 A 
ATOM     28  C   UNL     1      -7.371  -1.830 -20.246  0.00  0.00    +0.000 A 
ATOM     29  C   UNL     1      -7.839  -2.833 -21.078  0.00  0.00    +0.000 A 
ATOM     30  C   UNL     1      -5.798  -1.271 -21.987  0.00  0.00    +0.000 A 
ATOM     31  C   UNL     1      -6.342  -2.298 -22.742  0.00  0.00    +0.000 A 
BRANCH  29  34
ATOM     32  O   UNL     1      -9.618  -4.343 -21.415  0.00  0.00    +0.000 OA
ATOM     33  N   UNL     1      -9.088  -3.691 -19.233  0.00  0.00    +0.000 N 
ATOM     34  C   UNL     1      -8.945  -3.708 -20.610  0.00  0.00    +0.000 C 
ATOM     35  C   UNL     1     -10.010  -4.368 -18.362  0.00  0.00    +0.000 C 
ATOM     36  H   UNL     1      -8.423  -3.088 -18.750  0.00  0.00    +0.000 HD
ENDBRANCH  29  34
ENDBRANCH  25  27
ENDBRANCH   3  25
TORSDOF 6
ENDMDL
MODEL 5
REMARK VINA RESULT:      -6.8     21.686     24.703
REMARK  Name = 11167602_Regorafenib.pdbqt.pdb
REMARK  6 active torsions:
REMARK  status: ('A' for Active; 'I' for Inactive)
REMARK    1  A    between atoms: C_2  and  N_10
REMARK    2  A    between atoms: C_3  and  O_25
REMARK    3  A    between atoms: N_9  and  C_15
REMARK    4  A    between atoms: C_16  and  C_24
REMARK    5  A    between atoms: O_25  and  C_27
REMARK    6  A    between atoms: C_29  and  C_34
REMARK                            x       y       z     vdW  Elec       q    Type
REMARK                         _______ _______ _______ _____ _____    ______ ____
ROOT
ATOM      1  F   UNL     1      -5.879   1.520   2.917  0.00  0.00    +0.000 F 
ATOM      2  C   UNL     1      -4.850   0.806   0.909  0.00  0.00    +0.000 A 
ATOM      3  C   UNL     1      -2.407   0.721   2.265  0.00  0.00    +0.000 A 
ATOM      4  C   UNL     1      -4.768   1.151   2.261  0.00  0.00    +0.000 A 
ATOM      5  C   UNL     1      -3.684   0.438   0.239  0.00  0.00    +0.000 A 
ATOM      6  C   UNL     1      -3.556   1.126   2.943  0.00  0.00    +0.000 A 
ATOM      7  C   UNL     1      -2.462   0.407   0.908  0.00  0.00    +0.000 A 
ENDROOT
BRANCH   2  10
ATOM      8  O   UNL     1      -6.989  -1.155   1.038  0.00  0.00    +0.000 OA
ATOM      9  N   UNL     1      -8.230   0.242  -0.324  0.00  0.00    +0.000 N 
ATOM     10  N   UNL     1      -6.114   0.845   0.283  0.00  0.00    +0.000 N 
ATOM     11  C   UNL     1      -7.101  -0.120   0.394  0.00  0.00    +0.000 C 
ATOM     12  H   UNL     1      -8.223   1.134  -0.796  0.00  0.00    +0.000 HD
ATOM     13  H   UNL     1      -6.287   1.650  -0.302  0.00  0.00    +0.000 HD
BRANCH   9  15
ATOM     14 CL   UNL     1     -13.116  -3.063  -0.838  0.00  0.00    +0.000 Cl
ATOM     15  C   UNL     1      -9.409  -0.519  -0.431  0.00  0.00    +0.000 A 
ATOM     16  C   UNL     1     -10.447  -2.585  -1.208  0.00  0.00    +0.000 A 
ATOM     17  C   UNL     1      -9.324  -1.762  -1.058  0.00  0.00    +0.000 A 
ATOM     18  C   UNL     1     -10.638  -0.090   0.058  0.00  0.00    +0.000 A 
ATOM     19  C   UNL     1     -11.671  -2.136  -0.711  0.00  0.00    +0.000 A 
ATOM     20  C   UNL     1     -11.766  -0.894  -0.082  0.00  0.00    +0.000 A 
BRANCH  16  24
ATOM     21  F   UNL     1     -10.471  -4.965  -1.047  0.00  0.00    +0.000 F 
ATOM     22  F   UNL     1     -11.175  -4.094  -2.903  0.00  0.00    +0.000 F 
ATOM     23  F   UNL     1      -9.047  -4.084  -2.423  0.00  0.00    +0.000 F 
ATOM     24  C   UNL     1     -10.286  -3.908  -1.889  0.00  0.00    +0.000 C 
ENDBRANCH  16  24
ENDBRANCH   9  15
ENDBRANCH   2  10
BRANCH   3  25
ATOM     25  O   UNL     1      -1.164   0.745   2.854  0.00  0.00    +0.000 OA
BRANCH  25  27
ATOM     26  N   UNL     1       1.450   3.873   1.965  0.00  0.00    +0.000 NA
ATOM     27  C   UNL     1      -0.352   1.827   2.598  0.00  0.00    +0.000 A 
ATOM     28  C   UNL     1      -0.101   2.832   3.525  0.00  0.00    +0.000 A 
ATOM     29  C   UNL     1       0.791   3.826   3.158  0.00  0.00    +0.000 A 
ATOM     30  C   UNL     1       0.314   1.818   1.376  0.00  0.00    +0.000 A 
ATOM     31  C   UNL     1       1.191   2.857   1.109  0.00  0.00    +0.000 A 
BRANCH  29  34
ATOM     32  O   UNL     1       2.212   5.338   4.276  0.00  0.00    +0.000 OA
ATOM     33  N   UNL     1      -0.084   5.417   4.708  0.00  0.00    +0.000 N 
ATOM     34  C   UNL     1       1.065   4.940   4.101  0.00  0.00    +0.000 C 
ATOM     35  C   UNL     1      -0.289   6.462   5.673  0.00  0.00    +0.000 C 
ATOM     36  H   UNL     1      -0.938   4.940   4.423  0.00  0.00    +0.000 HD
ENDBRANCH  29  34
ENDBRANCH  25  27
ENDBRANCH   3  25
TORSDOF 6
ENDMDL
MODEL 6
REMARK VINA RESULT:      -6.6      4.490      6.441
REMARK  Name = 11167602_Regorafenib.pdbqt.pdb
REMARK  6 active torsions:
REMARK  status: ('A' for Active; 'I' for Inactive)
REMARK    1  A    between atoms: C_2  and  N_10
REMARK    2  A    between atoms: C_3  and  O_25
REMARK    3  A    between atoms: N_9  and  C_15
REMARK    4  A    between atoms: C_16  and  C_24
REMARK    5  A    between atoms: O_25  and  C_27
REMARK    6  A    between atoms: C_29  and  C_34
REMARK                            x       y       z     vdW  Elec       q    Type
REMARK                         _______ _______ _______ _____ _____    ______ ____
ROOT
ATOM      1  F   UNL     1      -1.941   1.527 -19.703  0.00  0.00    +0.000 F 
ATOM      2  C   UNL     1      -2.198  -0.461 -18.444  0.00  0.00    +0.000 A 
ATOM      3  C   UNL     1      -4.840  -0.615 -19.344  0.00  0.00    +0.000 A 
ATOM      4  C   UNL     1      -2.721   0.511 -19.302  0.00  0.00    +0.000 A 
ATOM      5  C   UNL     1      -3.025  -1.501 -18.026  0.00  0.00    +0.000 A 
ATOM      6  C   UNL     1      -4.038   0.453 -19.746  0.00  0.00    +0.000 A 
ATOM      7  C   UNL     1      -4.348  -1.574 -18.462  0.00  0.00    +0.000 A 
ENDROOT
BRANCH   2  10
ATOM      8  O   UNL     1       0.185  -1.379 -19.827  0.00  0.00    +0.000 OA
ATOM      9  N   UNL     1       1.426  -0.493 -18.090  0.00  0.00    +0.000 N 
ATOM     10  N   UNL     1      -0.851  -0.343 -18.042  0.00  0.00    +0.000 N 
ATOM     11  C   UNL     1       0.248  -0.793 -18.755  0.00  0.00    +0.000 C 
ATOM     12  H   UNL     1       1.361   0.021 -17.223  0.00  0.00    +0.000 HD
ATOM     13  H   UNL     1      -0.699   0.099 -17.146  0.00  0.00    +0.000 HD
BRANCH   9  15
ATOM     14 CL   UNL     1       6.913  -1.728 -19.943  0.00  0.00    +0.000 Cl
ATOM     15  C   UNL     1       2.721  -0.818 -18.535  0.00  0.00    +0.000 A 
ATOM     16  C   UNL     1       4.973  -0.025 -19.032  0.00  0.00    +0.000 A 
ATOM     17  C   UNL     1       3.662   0.209 -18.601  0.00  0.00    +0.000 A 
ATOM     18  C   UNL     1       3.098  -2.105 -18.904  0.00  0.00    +0.000 A 
ATOM     19  C   UNL     1       5.330  -1.324 -19.399  0.00  0.00    +0.000 A 
ATOM     20  C   UNL     1       4.396  -2.358 -19.336  0.00  0.00    +0.000 A 
BRANCH  16  24
ATOM     21  F   UNL     1       7.128   0.839 -18.483  0.00  0.00    +0.000 F 
ATOM     22  F   UNL     1       6.244   1.503 -20.347  0.00  0.00    +0.000 F 
ATOM     23  F   UNL     1       5.468   2.231 -18.443  0.00  0.00    +0.000 F 
ATOM     24  C   UNL     1       5.933   1.122 -19.078  0.00  0.00    +0.000 C 
ENDBRANCH  16  24
ENDBRANCH   9  15
ENDBRANCH   2  10
BRANCH   3  25
ATOM     25  O   UNL     1      -6.171  -0.696 -19.682  0.00  0.00    +0.000 OA
BRANCH  25  27
ATOM     26  N   UNL     1      -7.633  -4.504 -20.560  0.00  0.00    +0.000 NA
ATOM     27  C   UNL     1      -6.668  -1.928 -20.046  0.00  0.00    +0.000 A 
ATOM     28  C   UNL     1      -6.390  -2.535 -21.266  0.00  0.00    +0.000 A 
ATOM     29  C   UNL     1      -6.900  -3.805 -21.473  0.00  0.00    +0.000 A 
ATOM     30  C   UNL     1      -7.392  -2.609 -19.073  0.00  0.00    +0.000 A 
ATOM     31  C   UNL     1      -7.853  -3.880 -19.380  0.00  0.00    +0.000 A 
BRANCH  29  34
ATOM     32  O   UNL     1      -7.572  -5.061 -23.353  0.00  0.00    +0.000 OA
ATOM     33  N   UNL     1      -5.344  -4.368 -23.195  0.00  0.00    +0.000 N 
ATOM     34  C   UNL     1      -6.658  -4.481 -22.774  0.00  0.00    +0.000 C 
ATOM     35  C   UNL     1      -4.673  -4.860 -24.367  0.00  0.00    +0.000 C 
ATOM     36  H   UNL     1      -4.744  -3.845 -22.559  0.00  0.00    +0.000 HD
ENDBRANCH  29  34
ENDBRANCH  25  27
ENDBRANCH   3  25
TORSDOF 6
ENDMDL
MODEL 7
REMARK VINA RESULT:      -6.6      2.698      3.244
REMARK  Name = 11167602_Regorafenib.pdbqt.pdb
REMARK  6 active torsions:
REMARK  status: ('A' for Active; 'I' for Inactive)
REMARK    1  A    between atoms: C_2  and  N_10
REMARK    2  A    between atoms: C_3  and  O_25
REMARK    3  A    between atoms: N_9  and  C_15
REMARK    4  A    between atoms: C_16  and  C_24
REMARK    5  A    between atoms: O_25  and  C_27
REMARK    6  A    between atoms: C_29  and  C_34
REMARK                            x       y       z     vdW  Elec       q    Type
REMARK                         _______ _______ _______ _____ _____    ______ ____
ROOT
ATOM      1  F   UNL     1       2.268  -2.191 -18.184  0.00  0.00    +0.000 F 
ATOM      2  C   UNL     1       1.994   0.076 -18.803  0.00  0.00    +0.000 A 
ATOM      3  C   UNL     1      -0.584  -0.541 -19.688  0.00  0.00    +0.000 A 
ATOM      4  C   UNL     1       1.497  -1.227 -18.711  0.00  0.00    +0.000 A 
ATOM      5  C   UNL     1       1.187   1.064 -19.366  0.00  0.00    +0.000 A 
ATOM      6  C   UNL     1       0.221  -1.550 -19.160  0.00  0.00    +0.000 A 
ATOM      7  C   UNL     1      -0.095   0.756 -19.821  0.00  0.00    +0.000 A 
ENDROOT
BRANCH   2  10
ATOM      8  O   UNL     1       4.329   0.963 -20.285  0.00  0.00    +0.000 OA
ATOM      9  N   UNL     1       5.491   0.950 -18.286  0.00  0.00    +0.000 N 
ATOM     10  N   UNL     1       3.294   0.333 -18.319  0.00  0.00    +0.000 N 
ATOM     11  C   UNL     1       4.368   0.768 -19.078  0.00  0.00    +0.000 C 
ATOM     12  H   UNL     1       5.401   0.786 -17.294  0.00  0.00    +0.000 HD
ATOM     13  H   UNL     1       3.434   0.165 -17.333  0.00  0.00    +0.000 HD
BRANCH   9  15
ATOM     14 CL   UNL     1      10.840   2.603 -20.214  0.00  0.00    +0.000 Cl
ATOM     15  C   UNL     1       6.753   1.375 -18.744  0.00  0.00    +0.000 A 
ATOM     16  C   UNL     1       9.004   0.732 -19.427  0.00  0.00    +0.000 A 
ATOM     17  C   UNL     1       7.723   0.399 -18.971  0.00  0.00    +0.000 A 
ATOM     18  C   UNL     1       7.068   2.710 -18.977  0.00  0.00    +0.000 A 
ATOM     19  C   UNL     1       9.300   2.078 -19.654  0.00  0.00    +0.000 A 
ATOM     20  C   UNL     1       8.336   3.060 -19.429  0.00  0.00    +0.000 A 
BRANCH  16  24
ATOM     21  F   UNL     1       9.499  -1.600 -19.363  0.00  0.00    +0.000 F 
ATOM     22  F   UNL     1      10.423  -0.439 -20.942  0.00  0.00    +0.000 F 
ATOM     23  F   UNL     1      11.114  -0.237 -18.883  0.00  0.00    +0.000 F 
ATOM     24  C   UNL     1       9.998  -0.364 -19.652  0.00  0.00    +0.000 C 
ENDBRANCH  16  24
ENDBRANCH   9  15
ENDBRANCH   2  10
BRANCH   3  25
ATOM     25  O   UNL     1      -1.826  -0.802 -20.220  0.00  0.00    +0.000 OA
BRANCH  25  27
ATOM     26  N   UNL     1      -4.807  -1.516 -17.390  0.00  0.00    +0.000 NA
ATOM     27  C   UNL     1      -2.863  -1.039 -19.345  0.00  0.00    +0.000 A 
ATOM     28  C   UNL     1      -3.893  -1.937 -19.605  0.00  0.00    +0.000 A 
ATOM     29  C   UNL     1      -4.834  -2.128 -18.608  0.00  0.00    +0.000 A 
ATOM     30  C   UNL     1      -2.779  -0.408 -18.108  0.00  0.00    +0.000 A 
ATOM     31  C   UNL     1      -3.771  -0.673 -17.177  0.00  0.00    +0.000 A 
BRANCH  29  34
ATOM     32  O   UNL     1      -5.768  -4.211 -19.197  0.00  0.00    +0.000 OA
ATOM     33  N   UNL     1      -7.200  -2.446 -18.647  0.00  0.00    +0.000 N 
ATOM     34  C   UNL     1      -5.972  -3.052 -18.851  0.00  0.00    +0.000 C 
ATOM     35  C   UNL     1      -8.542  -2.948 -18.767  0.00  0.00    +0.000 C 
ATOM     36  H   UNL     1      -7.144  -1.469 -18.364  0.00  0.00    +0.000 HD
ENDBRANCH  29  34
ENDBRANCH  25  27
ENDBRANCH   3  25
TORSDOF 6
ENDMDL
MODEL 8
REMARK VINA RESULT:      -6.5      5.435      8.518
REMARK  Name = 11167602_Regorafenib.pdbqt.pdb
REMARK  6 active torsions:
REMARK  status: ('A' for Active; 'I' for Inactive)
REMARK    1  A    between atoms: C_2  and  N_10
REMARK    2  A    between atoms: C_3  and  O_25
REMARK    3  A    between atoms: N_9  and  C_15
REMARK    4  A    between atoms: C_16  and  C_24
REMARK    5  A    between atoms: O_25  and  C_27
REMARK    6  A    between atoms: C_29  and  C_34
REMARK                            x       y       z     vdW  Elec       q    Type
REMARK                         _______ _______ _______ _____ _____    ______ ____
ROOT
ATOM      1  F   UNL     1      -4.564  -2.022 -21.620  0.00  0.00    +0.000 F 
ATOM      2  C   UNL     1      -4.298  -1.707 -19.289  0.00  0.00    +0.000 A 
ATOM      3  C   UNL     1      -6.902  -2.655 -18.926  0.00  0.00    +0.000 A 
ATOM      4  C   UNL     1      -5.077  -2.098 -20.382  0.00  0.00    +0.000 A 
ATOM      5  C   UNL     1      -4.850  -1.778 -18.011  0.00  0.00    +0.000 A 
ATOM      6  C   UNL     1      -6.379  -2.558 -20.215  0.00  0.00    +0.000 A 
ATOM      7  C   UNL     1      -6.154  -2.238 -17.828  0.00  0.00    +0.000 A 
ENDROOT
BRANCH   2  10
ATOM      8  O   UNL     1      -1.809  -3.175 -19.001  0.00  0.00    +0.000 OA
ATOM      9  N   UNL     1      -0.709  -1.278 -19.734  0.00  0.00    +0.000 N 
ATOM     10  N   UNL     1      -2.982  -1.258 -19.531  0.00  0.00    +0.000 N 
ATOM     11  C   UNL     1      -1.831  -2.014 -19.386  0.00  0.00    +0.000 C 
ATOM     12  H   UNL     1      -0.848  -0.335 -20.068  0.00  0.00    +0.000 HD
ATOM     13  H   UNL     1      -2.896  -0.294 -19.822  0.00  0.00    +0.000 HD
BRANCH   9  15
ATOM     14 CL   UNL     1       4.903  -3.144 -19.445  0.00  0.00    +0.000 Cl
ATOM     15  C   UNL     1       0.618  -1.743 -19.691  0.00  0.00    +0.000 A 
ATOM     16  C   UNL     1       2.817  -1.562 -18.649  0.00  0.00    +0.000 A 
ATOM     17  C   UNL     1       1.481  -1.160 -18.762  0.00  0.00    +0.000 A 
ATOM     18  C   UNL     1       1.101  -2.748 -20.523  0.00  0.00    +0.000 A 
ATOM     19  C   UNL     1       3.281  -2.571 -19.495  0.00  0.00    +0.000 A 
ATOM     20  C   UNL     1       2.426  -3.160 -20.427  0.00  0.00    +0.000 A 
BRANCH  16  24
ATOM     21  F   UNL     1       3.077   0.160 -17.020  0.00  0.00    +0.000 F 
ATOM     22  F   UNL     1       4.058  -1.731 -16.622  0.00  0.00    +0.000 F 
ATOM     23  F   UNL     1       4.836  -0.393 -18.159  0.00  0.00    +0.000 F 
ATOM     24  C   UNL     1       3.687  -0.896 -17.631  0.00  0.00    +0.000 C 
ENDBRANCH  16  24
ENDBRANCH   9  15
ENDBRANCH   2  10
BRANCH   3  25
ATOM     25  O   UNL     1      -8.205  -3.030 -18.693  0.00  0.00    +0.000 OA
BRANCH  25  27
ATOM     26  N   UNL     1     -11.315  -1.042 -20.639  0.00  0.00    +0.000 NA
ATOM     27  C   UNL     1      -9.195  -2.389 -19.404  0.00  0.00    +0.000 A 
ATOM     28  C   UNL     1      -9.709  -2.870 -20.604  0.00  0.00    +0.000 A 
ATOM     29  C   UNL     1     -10.751  -2.160 -21.177  0.00  0.00    +0.000 A 
ATOM     30  C   UNL     1      -9.753  -1.265 -18.804  0.00  0.00    +0.000 A 
ATOM     31  C   UNL     1     -10.796  -0.631 -19.459  0.00  0.00    +0.000 A 
BRANCH  29  34
ATOM     32  O   UNL     1     -10.661  -3.354 -23.208  0.00  0.00    +0.000 OA
ATOM     33  N   UNL     1     -12.579  -2.113 -22.712  0.00  0.00    +0.000 N 
ATOM     34  C   UNL     1     -11.311  -2.616 -22.476  0.00  0.00    +0.000 C 
ATOM     35  C   UNL     1     -13.481  -2.283 -23.819  0.00  0.00    +0.000 C 
ATOM     36  H   UNL     1     -12.937  -1.511 -21.971  0.00  0.00    +0.000 HD
ENDBRANCH  29  34
ENDBRANCH  25  27
ENDBRANCH   3  25
TORSDOF 6
ENDMDL
MODEL 9
REMARK VINA RESULT:      -6.5     15.563     16.586
REMARK  Name = 11167602_Regorafenib.pdbqt.pdb
REMARK  6 active torsions:
REMARK  status: ('A' for Active; 'I' for Inactive)
REMARK    1  A    between atoms: C_2  and  N_10
REMARK    2  A    between atoms: C_3  and  O_25
REMARK    3  A    between atoms: N_9  and  C_15
REMARK    4  A    between atoms: C_16  and  C_24
REMARK    5  A    between atoms: O_25  and  C_27
REMARK    6  A    between atoms: C_29  and  C_34
REMARK                            x       y       z     vdW  Elec       q    Type
REMARK                         _______ _______ _______ _____ _____    ______ ____
ROOT
ATOM      1  F   UNL     1       1.117 -12.831 -19.794  0.00  0.00    +0.000 F 
ATOM      2  C   UNL     1       0.678 -14.790 -18.541  0.00  0.00    +0.000 A 
ATOM      3  C   UNL     1      -1.491 -15.308 -20.228  0.00  0.00    +0.000 A 
ATOM      4  C   UNL     1       0.363 -13.923 -19.591  0.00  0.00    +0.000 A 
ATOM      5  C   UNL     1      -0.123 -15.912 -18.335  0.00  0.00    +0.000 A 
ATOM      6  C   UNL     1      -0.722 -14.162 -20.428  0.00  0.00    +0.000 A 
ATOM      7  C   UNL     1      -1.214 -16.166 -19.166  0.00  0.00    +0.000 A 
ENDROOT
BRANCH   2  10
ATOM      8  O   UNL     1       2.063 -16.515 -16.659  0.00  0.00    +0.000 OA
ATOM      9  N   UNL     1       3.510 -14.758 -16.253  0.00  0.00    +0.000 N 
ATOM     10  N   UNL     1       1.798 -14.490 -17.738  0.00  0.00    +0.000 N 
ATOM     11  C   UNL     1       2.424 -15.364 -16.864  0.00  0.00    +0.000 C 
ATOM     12  H   UNL     1       3.735 -13.811 -16.520  0.00  0.00    +0.000 HD
ATOM     13  H   UNL     1       2.149 -13.545 -17.812  0.00  0.00    +0.000 HD
BRANCH   9  15
ATOM     14 CL   UNL     1       6.979 -17.259 -12.157  0.00  0.00    +0.000 Cl
ATOM     15  C   UNL     1       4.355 -15.364 -15.304  0.00  0.00    +0.000 A 
ATOM     16  C   UNL     1       4.795 -15.811 -12.947  0.00  0.00    +0.000 A 
ATOM     17  C   UNL     1       4.013 -15.241 -13.957  0.00  0.00    +0.000 A 
ATOM     18  C   UNL     1       5.502 -16.071 -15.648  0.00  0.00    +0.000 A 
ATOM     19  C   UNL     1       5.943 -16.517 -13.314  0.00  0.00    +0.000 A 
ATOM     20  C   UNL     1       6.294 -16.645 -14.657  0.00  0.00    +0.000 A 
BRANCH  16  24
ATOM     21  F   UNL     1       4.136 -16.831 -10.894  0.00  0.00    +0.000 F 
ATOM     22  F   UNL     1       5.303 -15.009 -10.761  0.00  0.00    +0.000 F 
ATOM     23  F   UNL     1       3.216 -14.934 -11.392  0.00  0.00    +0.000 F 
ATOM     24  C   UNL     1       4.370 -15.643 -11.522  0.00  0.00    +0.000 C 
ENDBRANCH  16  24
ENDBRANCH   9  15
ENDBRANCH   2  10
BRANCH   3  25
ATOM     25  O   UNL     1      -2.620 -15.568 -20.968  0.00  0.00    +0.000 OA
BRANCH  25  27
ATOM     26  N   UNL     1      -6.106 -13.383 -20.277  0.00  0.00    +0.000 NA
ATOM     27  C   UNL     1      -3.728 -14.780 -20.749  0.00  0.00    +0.000 A 
ATOM     28  C   UNL     1      -4.004 -13.628 -21.478  0.00  0.00    +0.000 A 
ATOM     29  C   UNL     1      -5.190 -12.969 -21.197  0.00  0.00    +0.000 A 
ATOM     30  C   UNL     1      -4.643 -15.254 -19.814  0.00  0.00    +0.000 A 
ATOM     31  C   UNL     1      -5.802 -14.522 -19.613  0.00  0.00    +0.000 A 
BRANCH  29  34
ATOM     32  O   UNL     1      -4.792 -10.730 -21.817  0.00  0.00    +0.000 OA
ATOM     33  N   UNL     1      -6.667 -11.825 -22.684  0.00  0.00    +0.000 N 
ATOM     34  C   UNL     1      -5.513 -11.716 -21.926  0.00  0.00    +0.000 C 
ATOM     35  C   UNL     1      -7.345 -10.881 -23.529  0.00  0.00    +0.000 C 
ATOM     36  H   UNL     1      -7.119 -12.737 -22.630  0.00  0.00    +0.000 HD
ENDBRANCH  29  34
ENDBRANCH  25  27
ENDBRANCH   3  25
TORSDOF 6
ENDMDL
