MODEL 1
REMARK VINA RESULT:      -6.0      0.000      0.000
REMARK  Name = 114778_Kahweol.pdbqt.pdb
REMARK  3 active torsions:
REMARK  status: ('A' for Active; 'I' for Inactive)
REMARK    1  A    between atoms: C_8  and  O_21
REMARK    2  A    between atoms: C_8  and  C_23
REMARK    3  A    between atoms: C_23  and  O_24
REMARK                            x       y       z     vdW  Elec       q    Type
REMARK                         _______ _______ _______ _____ _____    ______ ____
ROOT
ATOM      1  O   UNL     1     -12.226  -3.263 -24.738  0.00  0.00    +0.000 OA
ATOM      2  C   UNL     1      -8.511  -1.883 -19.889  0.00  0.00    +0.000 C 
ATOM      3  C   UNL     1      -8.828  -3.302 -20.535  0.00  0.00    +0.000 C 
ATOM      4  C   UNL     1      -6.509  -2.622 -18.805  0.00  0.00    +0.000 C 
ATOM      5  C   UNL     1      -7.883  -2.150 -18.567  0.00  0.00    +0.000 C 
ATOM      6  C   UNL     1      -7.300  -1.335 -20.538  0.00  0.00    +0.000 C 
ATOM      7  C   UNL     1     -10.241  -3.695 -20.980  0.00  0.00    +0.000 C 
ATOM      8  C   UNL     1      -5.995  -1.597 -19.899  0.00  0.00    +0.000 C 
ATOM      9  C   UNL     1      -9.689  -1.058 -19.956  0.00  0.00    +0.000 C 
ATOM     10  C   UNL     1      -7.804  -4.282 -20.210  0.00  0.00    +0.000 C 
ATOM     11  C   UNL     1      -6.621  -3.995 -19.277  0.00  0.00    +0.000 C 
ATOM     12  C   UNL     1     -11.236  -2.461 -21.341  0.00  0.00    +0.000 C 
ATOM     13  C   UNL     1     -11.004  -1.256 -20.641  0.00  0.00    +0.000 C 
ATOM     14  C   UNL     1     -10.934  -4.497 -19.832  0.00  0.00    +0.000 C 
ATOM     15  C   UNL     1     -10.152  -4.505 -22.227  0.00  0.00    +0.000 C 
ATOM     16  C   UNL     1     -11.863  -2.466 -22.643  0.00  0.00    +0.000 A 
ATOM     17  C   UNL     1     -10.667  -4.476 -23.309  0.00  0.00    +0.000 C 
ATOM     18  C   UNL     1     -11.581  -3.441 -23.576  0.00  0.00    +0.000 A 
ATOM     19  C   UNL     1     -12.769  -1.599 -23.287  0.00  0.00    +0.000 A 
ATOM     20  C   UNL     1     -12.973  -2.125 -24.556  0.00  0.00    +0.000 A 
ENDROOT
BRANCH   8  21
ATOM     21  O   UNL     1      -5.530  -0.411 -19.278  0.00  0.00    +0.000 OA
ATOM     22  H   UNL     1      -5.141   0.126 -19.989  0.00  0.00    +0.000 HD
ENDBRANCH   8  21
BRANCH   8  23
ATOM     23  C   UNL     1      -4.953  -2.132 -20.785  0.00  0.00    +0.000 C 
BRANCH  23  24
ATOM     24  O   UNL     1      -3.997  -2.622 -21.575  0.00  0.00    +0.000 OA
ATOM     25  H   UNL     1      -3.386  -1.919 -21.858  0.00  0.00    +0.000 HD
ENDBRANCH  23  24
ENDBRANCH   8  23
TORSDOF 3
ENDMDL
MODEL 2
REMARK VINA RESULT:      -5.9      2.308      6.345
REMARK  Name = 114778_Kahweol.pdbqt.pdb
REMARK  3 active torsions:
REMARK  status: ('A' for Active; 'I' for Inactive)
REMARK    1  A    between atoms: C_8  and  O_21
REMARK    2  A    between atoms: C_8  and  C_23
REMARK    3  A    between atoms: C_23  and  O_24
REMARK                            x       y       z     vdW  Elec       q    Type
REMARK                         _______ _______ _______ _____ _____    ______ ____
ROOT
ATOM      1  O   UNL     1      -2.781  -1.184 -19.662  0.00  0.00    +0.000 OA
ATOM      2  C   UNL     1      -8.852  -2.084 -20.908  0.00  0.00    +0.000 C 
ATOM      3  C   UNL     1      -8.072  -2.278 -19.535  0.00  0.00    +0.000 C 
ATOM      4  C   UNL     1     -11.007  -1.950 -19.874  0.00  0.00    +0.000 C 
ATOM      5  C   UNL     1     -10.161  -2.774 -20.754  0.00  0.00    +0.000 C 
ATOM      6  C   UNL     1      -9.395  -0.708 -20.945  0.00  0.00    +0.000 C 
ATOM      7  C   UNL     1      -6.680  -2.917 -19.474  0.00  0.00    +0.000 C 
ATOM      8  C   UNL     1     -10.775  -0.497 -20.462  0.00  0.00    +0.000 C 
ATOM      9  C   UNL     1      -7.987  -2.447 -22.000  0.00  0.00    +0.000 C 
ATOM     10  C   UNL     1      -8.975  -2.247 -18.395  0.00  0.00    +0.000 C 
ATOM     11  C   UNL     1     -10.499  -2.137 -18.522  0.00  0.00    +0.000 C 
ATOM     12  C   UNL     1      -5.799  -2.820 -20.836  0.00  0.00    +0.000 C 
ATOM     13  C   UNL     1      -6.531  -2.786 -22.044  0.00  0.00    +0.000 C 
ATOM     14  C   UNL     1      -6.830  -4.441 -19.157  0.00  0.00    +0.000 C 
ATOM     15  C   UNL     1      -5.871  -2.226 -18.432  0.00  0.00    +0.000 C 
ATOM     16  C   UNL     1      -4.480  -2.235 -20.739  0.00  0.00    +0.000 A 
ATOM     17  C   UNL     1      -4.783  -1.726 -18.381  0.00  0.00    +0.000 C 
ATOM     18  C   UNL     1      -4.006  -1.716 -19.553  0.00  0.00    +0.000 A 
ATOM     19  C   UNL     1      -3.452  -2.001 -21.674  0.00  0.00    +0.000 A 
ATOM     20  C   UNL     1      -2.431  -1.370 -20.976  0.00  0.00    +0.000 A 
ENDROOT
BRANCH   8  21
ATOM     21  O   UNL     1     -11.630  -0.276 -21.570  0.00  0.00    +0.000 OA
ATOM     22  H   UNL     1     -12.534  -0.413 -21.240  0.00  0.00    +0.000 HD
ENDBRANCH   8  21
BRANCH   8  23
ATOM     23  C   UNL     1     -10.944   0.584 -19.483  0.00  0.00    +0.000 C 
BRANCH  23  24
ATOM     24  O   UNL     1     -11.086   1.557 -18.582  0.00  0.00    +0.000 OA
ATOM     25  H   UNL     1     -12.021   1.814 -18.492  0.00  0.00    +0.000 HD
ENDBRANCH  23  24
ENDBRANCH   8  23
TORSDOF 3
ENDMDL
MODEL 3
REMARK VINA RESULT:      -5.4     19.009     21.810
REMARK  Name = 114778_Kahweol.pdbqt.pdb
REMARK  3 active torsions:
REMARK  status: ('A' for Active; 'I' for Inactive)
REMARK    1  A    between atoms: C_8  and  O_21
REMARK    2  A    between atoms: C_8  and  C_23
REMARK    3  A    between atoms: C_23  and  O_24
REMARK                            x       y       z     vdW  Elec       q    Type
REMARK                         _______ _______ _______ _____ _____    ______ ____
ROOT
ATOM      1  O   UNL     1      10.815   2.875 -16.033  0.00  0.00    +0.000 OA
ATOM      2  C   UNL     1      12.286  -0.432 -21.144  0.00  0.00    +0.000 C 
ATOM      3  C   UNL     1      11.285   0.796 -21.000  0.00  0.00    +0.000 C 
ATOM      4  C   UNL     1      12.524  -0.193 -23.514  0.00  0.00    +0.000 C 
ATOM      5  C   UNL     1      11.991  -1.068 -22.456  0.00  0.00    +0.000 C 
ATOM      6  C   UNL     1      13.619   0.094 -21.513  0.00  0.00    +0.000 C 
ATOM      7  C   UNL     1      10.333   0.933 -19.807  0.00  0.00    +0.000 C 
ATOM      8  C   UNL     1      13.960   0.170 -22.948  0.00  0.00    +0.000 C 
ATOM      9  C   UNL     1      12.235  -1.228 -19.946  0.00  0.00    +0.000 C 
ATOM     10  C   UNL     1      11.044   1.447 -22.278  0.00  0.00    +0.000 C 
ATOM     11  C   UNL     1      11.614   0.940 -23.609  0.00  0.00    +0.000 C 
ATOM     12  C   UNL     1      10.790   0.168 -18.447  0.00  0.00    +0.000 C 
ATOM     13  C   UNL     1      11.567  -0.999 -18.628  0.00  0.00    +0.000 C 
ATOM     14  C   UNL     1       8.938   0.343 -20.195  0.00  0.00    +0.000 C 
ATOM     15  C   UNL     1      10.225   2.370 -19.431  0.00  0.00    +0.000 C 
ATOM     16  C   UNL     1      10.879   0.951 -17.236  0.00  0.00    +0.000 A 
ATOM     17  C   UNL     1      10.327   3.003 -18.418  0.00  0.00    +0.000 C 
ATOM     18  C   UNL     1      10.652   2.311 -17.238  0.00  0.00    +0.000 A 
ATOM     19  C   UNL     1      11.218   0.641 -15.904  0.00  0.00    +0.000 A 
ATOM     20  C   UNL     1      11.156   1.837 -15.201  0.00  0.00    +0.000 A 
ENDROOT
BRANCH   8  21
ATOM     21  O   UNL     1      14.884  -0.856 -23.265  0.00  0.00    +0.000 OA
ATOM     22  H   UNL     1      14.516  -1.672 -22.887  0.00  0.00    +0.000 HD
ENDBRANCH   8  21
BRANCH   8  23
ATOM     23  C   UNL     1      14.480   1.464 -23.407  0.00  0.00    +0.000 C 
BRANCH  23  24
ATOM     24  O   UNL     1      14.940   2.638 -23.839  0.00  0.00    +0.000 OA
ATOM     25  H   UNL     1      15.519   3.050 -23.173  0.00  0.00    +0.000 HD
ENDBRANCH  23  24
ENDBRANCH   8  23
TORSDOF 3
ENDMDL
MODEL 4
REMARK VINA RESULT:      -5.0     21.067     23.628
REMARK  Name = 114778_Kahweol.pdbqt.pdb
REMARK  3 active torsions:
REMARK  status: ('A' for Active; 'I' for Inactive)
REMARK    1  A    between atoms: C_8  and  O_21
REMARK    2  A    between atoms: C_8  and  C_23
REMARK    3  A    between atoms: C_23  and  O_24
REMARK                            x       y       z     vdW  Elec       q    Type
REMARK                         _______ _______ _______ _____ _____    ______ ____
ROOT
ATOM      1  O   UNL     1      -1.719  19.122  -8.827  0.00  0.00    +0.000 OA
ATOM      2  C   UNL     1      -5.747  17.702 -13.407  0.00  0.00    +0.000 C 
ATOM      3  C   UNL     1      -4.366  18.486 -13.497  0.00  0.00    +0.000 C 
ATOM      4  C   UNL     1      -5.805  17.173 -15.741  0.00  0.00    +0.000 C 
ATOM      5  C   UNL     1      -6.465  17.959 -14.685  0.00  0.00    +0.000 C 
ATOM      6  C   UNL     1      -5.486  16.267 -13.652  0.00  0.00    +0.000 C 
ATOM      7  C   UNL     1      -3.950  19.523 -12.447  0.00  0.00    +0.000 C 
ATOM      8  C   UNL     1      -5.620  15.766 -15.035  0.00  0.00    +0.000 C 
ATOM      9  C   UNL     1      -6.392  18.019 -12.159  0.00  0.00    +0.000 C 
ATOM     10  C   UNL     1      -3.826  18.472 -14.847  0.00  0.00    +0.000 C 
ATOM     11  C   UNL     1      -4.557  17.858 -16.047  0.00  0.00    +0.000 C 
ATOM     12  C   UNL     1      -4.629  19.354 -10.980  0.00  0.00    +0.000 C 
ATOM     13  C   UNL     1      -5.919  18.776 -10.959  0.00  0.00    +0.000 C 
ATOM     14  C   UNL     1      -4.347  20.948 -12.953  0.00  0.00    +0.000 C 
ATOM     15  C   UNL     1      -2.483  19.422 -12.215  0.00  0.00    +0.000 C 
ATOM     16  C   UNL     1      -3.746  19.263  -9.840  0.00  0.00    +0.000 A 
ATOM     17  C   UNL     1      -1.770  19.322 -11.257  0.00  0.00    +0.000 C 
ATOM     18  C   UNL     1      -2.375  19.250  -9.989  0.00  0.00    +0.000 A 
ATOM     19  C   UNL     1      -3.961  19.128  -8.454  0.00  0.00    +0.000 A 
ATOM     20  C   UNL     1      -2.703  19.057  -7.872  0.00  0.00    +0.000 A 
ENDROOT
BRANCH   8  21
ATOM     21  O   UNL     1      -6.810  15.003 -15.144  0.00  0.00    +0.000 OA
ATOM     22  H   UNL     1      -6.537  14.131 -15.474  0.00  0.00    +0.000 HD
ENDBRANCH   8  21
BRANCH   8  23
ATOM     23  C   UNL     1      -4.484  14.984 -15.537  0.00  0.00    +0.000 C 
BRANCH  23  24
ATOM     24  O   UNL     1      -3.450  14.285 -16.008  0.00  0.00    +0.000 OA
ATOM     25  H   UNL     1      -2.872  14.846 -16.555  0.00  0.00    +0.000 HD
ENDBRANCH  23  24
ENDBRANCH   8  23
TORSDOF 3
ENDMDL
MODEL 5
REMARK VINA RESULT:      -4.9     20.997     24.370
REMARK  Name = 114778_Kahweol.pdbqt.pdb
REMARK  3 active torsions:
REMARK  status: ('A' for Active; 'I' for Inactive)
REMARK    1  A    between atoms: C_8  and  O_21
REMARK    2  A    between atoms: C_8  and  C_23
REMARK    3  A    between atoms: C_23  and  O_24
REMARK                            x       y       z     vdW  Elec       q    Type
REMARK                         _______ _______ _______ _____ _____    ______ ____
ROOT
ATOM      1  O   UNL     1       2.245 -17.916  -4.184  0.00  0.00    +0.000 OA
ATOM      2  C   UNL     1       5.618 -17.656  -9.454  0.00  0.00    +0.000 C 
ATOM      3  C   UNL     1       4.159 -18.249  -9.228  0.00  0.00    +0.000 C 
ATOM      4  C   UNL     1       5.359 -17.442 -11.824  0.00  0.00    +0.000 C 
ATOM      5  C   UNL     1       6.085 -18.170 -10.770  0.00  0.00    +0.000 C 
ATOM      6  C   UNL     1       5.488 -16.242  -9.867  0.00  0.00    +0.000 C 
ATOM      7  C   UNL     1       3.801 -19.077  -7.989  0.00  0.00    +0.000 C 
ATOM      8  C   UNL     1       5.454 -15.944 -11.313  0.00  0.00    +0.000 C 
ATOM      9  C   UNL     1       6.415 -17.897  -8.279  0.00  0.00    +0.000 C 
ATOM     10  C   UNL     1       3.413 -18.334 -10.473  0.00  0.00    +0.000 C 
ATOM     11  C   UNL     1       4.008 -17.983 -11.843  0.00  0.00    +0.000 C 
ATOM     12  C   UNL     1       4.723 -18.817  -6.675  0.00  0.00    +0.000 C 
ATOM     13  C   UNL     1       6.057 -18.422  -6.925  0.00  0.00    +0.000 C 
ATOM     14  C   UNL     1       3.943 -20.596  -8.331  0.00  0.00    +0.000 C 
ATOM     15  C   UNL     1       2.412 -18.747  -7.565  0.00  0.00    +0.000 C 
ATOM     16  C   UNL     1       4.051 -18.461  -5.446  0.00  0.00    +0.000 A 
ATOM     17  C   UNL     1       1.879 -18.429  -6.539  0.00  0.00    +0.000 C 
ATOM     18  C   UNL     1       2.685 -18.280  -5.397  0.00  0.00    +0.000 A 
ATOM     19  C   UNL     1       4.502 -18.181  -4.140  0.00  0.00    +0.000 A 
ATOM     20  C   UNL     1       3.370 -17.865  -3.400  0.00  0.00    +0.000 A 
ENDROOT
BRANCH   8  21
ATOM     21  O   UNL     1       6.690 -15.372 -11.703  0.00  0.00    +0.000 OA
ATOM     22  H   UNL     1       7.375 -15.865 -11.221  0.00  0.00    +0.000 HD
ENDBRANCH   8  21
BRANCH   8  23
ATOM     23  C   UNL     1       4.349 -15.085 -11.757  0.00  0.00    +0.000 C 
BRANCH  23  24
ATOM     24  O   UNL     1       3.336 -14.319 -12.162  0.00  0.00    +0.000 OA
ATOM     25  H   UNL     1       2.505 -14.827 -12.189  0.00  0.00    +0.000 HD
ENDBRANCH  23  24
ENDBRANCH   8  23
TORSDOF 3
ENDMDL
MODEL 6
REMARK VINA RESULT:      -4.9      2.288      2.914
REMARK  Name = 114778_Kahweol.pdbqt.pdb
REMARK  3 active torsions:
REMARK  status: ('A' for Active; 'I' for Inactive)
REMARK    1  A    between atoms: C_8  and  O_21
REMARK    2  A    between atoms: C_8  and  C_23
REMARK    3  A    between atoms: C_23  and  O_24
REMARK                            x       y       z     vdW  Elec       q    Type
REMARK                         _______ _______ _______ _____ _____    ______ ____
ROOT
ATOM      1  O   UNL     1     -14.388  -2.532 -23.825  0.00  0.00    +0.000 OA
ATOM      2  C   UNL     1      -8.263  -2.214 -22.560  0.00  0.00    +0.000 C 
ATOM      3  C   UNL     1      -9.396  -3.049 -21.819  0.00  0.00    +0.000 C 
ATOM      4  C   UNL     1      -6.468  -3.538 -21.693  0.00  0.00    +0.000 C 
ATOM      5  C   UNL     1      -7.083  -2.201 -21.654  0.00  0.00    +0.000 C 
ATOM      6  C   UNL     1      -7.659  -3.071 -23.604  0.00  0.00    +0.000 C 
ATOM      7  C   UNL     1     -10.784  -2.463 -21.535  0.00  0.00    +0.000 C 
ATOM      8  C   UNL     1      -6.454  -3.847 -23.248  0.00  0.00    +0.000 C 
ATOM      9  C   UNL     1      -8.816  -0.965 -23.016  0.00  0.00    +0.000 C 
ATOM     10  C   UNL     1      -8.838  -4.155 -21.057  0.00  0.00    +0.000 C 
ATOM     11  C   UNL     1      -7.333  -4.414 -20.917  0.00  0.00    +0.000 C 
ATOM     12  C   UNL     1     -11.255  -1.256 -22.516  0.00  0.00    +0.000 C 
ATOM     13  C   UNL     1     -10.221  -0.452 -23.047  0.00  0.00    +0.000 C 
ATOM     14  C   UNL     1     -10.806  -1.881 -20.083  0.00  0.00    +0.000 C 
ATOM     15  C   UNL     1     -11.809  -3.529 -21.704  0.00  0.00    +0.000 C 
ATOM     16  C   UNL     1     -12.517  -1.407 -23.204  0.00  0.00    +0.000 A 
ATOM     17  C   UNL     1     -12.842  -3.642 -22.301  0.00  0.00    +0.000 C 
ATOM     18  C   UNL     1     -13.269  -2.557 -23.089  0.00  0.00    +0.000 A 
ATOM     19  C   UNL     1     -13.239  -0.590 -24.098  0.00  0.00    +0.000 A 
ATOM     20  C   UNL     1     -14.377  -1.307 -24.444  0.00  0.00    +0.000 A 
ENDROOT
BRANCH   8  21
ATOM     21  O   UNL     1      -5.319  -3.254 -23.855  0.00  0.00    +0.000 OA
ATOM     22  H   UNL     1      -5.648  -2.467 -24.321  0.00  0.00    +0.000 HD
ENDBRANCH   8  21
BRANCH   8  23
ATOM     23  C   UNL     1      -6.501  -5.276 -23.580  0.00  0.00    +0.000 C 
BRANCH  23  24
ATOM     24  O   UNL     1      -6.562  -6.573 -23.883  0.00  0.00    +0.000 OA
ATOM     25  H   UNL     1      -5.905  -6.802 -24.564  0.00  0.00    +0.000 HD
ENDBRANCH  23  24
ENDBRANCH   8  23
TORSDOF 3
ENDMDL
MODEL 7
REMARK VINA RESULT:      -4.8     10.865     13.756
REMARK  Name = 114778_Kahweol.pdbqt.pdb
REMARK  3 active torsions:
REMARK  status: ('A' for Active; 'I' for Inactive)
REMARK    1  A    between atoms: C_8  and  O_21
REMARK    2  A    between atoms: C_8  and  C_23
REMARK    3  A    between atoms: C_23  and  O_24
REMARK                            x       y       z     vdW  Elec       q    Type
REMARK                         _______ _______ _______ _____ _____    ______ ____
ROOT
ATOM      1  O   UNL     1     -11.598 -16.514 -12.940  0.00  0.00    +0.000 OA
ATOM      2  C   UNL     1     -13.602 -10.827 -14.630  0.00  0.00    +0.000 C 
ATOM      3  C   UNL     1     -13.330 -12.104 -15.540  0.00  0.00    +0.000 C 
ATOM      4  C   UNL     1     -14.996  -9.747 -16.250  0.00  0.00    +0.000 C 
ATOM      5  C   UNL     1     -13.702  -9.663 -15.552  0.00  0.00    +0.000 C 
ATOM      6  C   UNL     1     -15.025 -10.838 -14.226  0.00  0.00    +0.000 C 
ATOM      7  C   UNL     1     -12.111 -13.009 -15.326  0.00  0.00    +0.000 C 
ATOM      8  C   UNL     1     -15.987 -10.092 -15.062  0.00  0.00    +0.000 C 
ATOM      9  C   UNL     1     -12.644 -10.797 -13.556  0.00  0.00    +0.000 C 
ATOM     10  C   UNL     1     -14.036 -12.021 -16.808  0.00  0.00    +0.000 C 
ATOM     11  C   UNL     1     -14.861 -10.803 -17.243  0.00  0.00    +0.000 C 
ATOM     12  C   UNL     1     -11.479 -12.999 -13.829  0.00  0.00    +0.000 C 
ATOM     13  C   UNL     1     -11.625 -11.794 -13.104  0.00  0.00    +0.000 C 
ATOM     14  C   UNL     1     -10.965 -12.560 -16.290  0.00  0.00    +0.000 C 
ATOM     15  C   UNL     1     -12.504 -14.423 -15.577  0.00  0.00    +0.000 C 
ATOM     16  C   UNL     1     -11.336 -14.269 -13.154  0.00  0.00    +0.000 A 
ATOM     17  C   UNL     1     -12.396 -15.462 -14.989  0.00  0.00    +0.000 C 
ATOM     18  C   UNL     1     -11.780 -15.443 -13.725  0.00  0.00    +0.000 A 
ATOM     19  C   UNL     1     -10.833 -14.647 -11.893  0.00  0.00    +0.000 A 
ATOM     20  C   UNL     1     -11.000 -16.023 -11.806  0.00  0.00    +0.000 A 
ENDROOT
BRANCH   8  21
ATOM     21  O   UNL     1     -16.374  -8.907 -14.388  0.00  0.00    +0.000 OA
ATOM     22  H   UNL     1     -15.705  -8.240 -14.617  0.00  0.00    +0.000 HD
ENDBRANCH   8  21
BRANCH   8  23
ATOM     23  C   UNL     1     -17.182 -10.840 -15.472  0.00  0.00    +0.000 C 
BRANCH  23  24
ATOM     24  O   UNL     1     -18.258 -11.535 -15.844  0.00  0.00    +0.000 OA
ATOM     25  H   UNL     1     -18.527 -12.159 -15.147  0.00  0.00    +0.000 HD
ENDBRANCH  23  24
ENDBRANCH   8  23
TORSDOF 3
ENDMDL
MODEL 8
REMARK VINA RESULT:      -4.6     24.850     28.663
REMARK  Name = 114778_Kahweol.pdbqt.pdb
REMARK  3 active torsions:
REMARK  status: ('A' for Active; 'I' for Inactive)
REMARK    1  A    between atoms: C_8  and  O_21
REMARK    2  A    between atoms: C_8  and  C_23
REMARK    3  A    between atoms: C_23  and  O_24
REMARK                            x       y       z     vdW  Elec       q    Type
REMARK                         _______ _______ _______ _____ _____    ______ ____
ROOT
ATOM      1  O   UNL     1      18.870  13.217 -15.283  0.00  0.00    +0.000 OA
ATOM      2  C   UNL     1      13.500  10.037 -15.803  0.00  0.00    +0.000 C 
ATOM      3  C   UNL     1      14.048  10.882 -14.571  0.00  0.00    +0.000 C 
ATOM      4  C   UNL     1      11.226  10.083 -15.056  0.00  0.00    +0.000 C 
ATOM      5  C   UNL     1      12.384   9.202 -15.282  0.00  0.00    +0.000 C 
ATOM      6  C   UNL     1      12.664  10.923 -16.642  0.00  0.00    +0.000 C 
ATOM      7  C   UNL     1      15.518  10.829 -14.140  0.00  0.00    +0.000 C 
ATOM      8  C   UNL     1      11.210  10.950 -16.383  0.00  0.00    +0.000 C 
ATOM      9  C   UNL     1      14.606   9.400 -16.470  0.00  0.00    +0.000 C 
ATOM     10  C   UNL     1      12.976  11.277 -13.671  0.00  0.00    +0.000 C 
ATOM     11  C   UNL     1      11.516  10.843 -13.848  0.00  0.00    +0.000 C 
ATOM     12  C   UNL     1      16.579  10.404 -15.295  0.00  0.00    +0.000 C 
ATOM     13  C   UNL     1      16.085   9.540 -16.299  0.00  0.00    +0.000 C 
ATOM     14  C   UNL     1      15.676   9.781 -12.991  0.00  0.00    +0.000 C 
ATOM     15  C   UNL     1      15.944  12.185 -13.695  0.00  0.00    +0.000 C 
ATOM     16  C   UNL     1      17.684  11.299 -15.551  0.00  0.00    +0.000 A 
ATOM     17  C   UNL     1      16.857  12.922 -13.940  0.00  0.00    +0.000 C 
ATOM     18  C   UNL     1      17.805  12.504 -14.891  0.00  0.00    +0.000 A 
ATOM     19  C   UNL     1      18.777  11.262 -16.440  0.00  0.00    +0.000 A 
ATOM     20  C   UNL     1      19.481  12.441 -16.237  0.00  0.00    +0.000 A 
ENDROOT
BRANCH   8  21
ATOM     21  O   UNL     1      10.537  10.252 -17.416  0.00  0.00    +0.000 OA
ATOM     22  H   UNL     1       9.936  10.897 -17.825  0.00  0.00    +0.000 HD
ENDBRANCH   8  21
BRANCH   8  23
ATOM     23  C   UNL     1      10.621  12.286 -16.223  0.00  0.00    +0.000 C 
BRANCH  23  24
ATOM     24  O   UNL     1      10.070  13.491 -16.077  0.00  0.00    +0.000 OA
ATOM     25  H   UNL     1       9.433  13.495 -15.340  0.00  0.00    +0.000 HD
ENDBRANCH  23  24
ENDBRANCH   8  23
TORSDOF 3
ENDMDL
MODEL 9
REMARK VINA RESULT:      -4.6      9.598     11.653
REMARK  Name = 114778_Kahweol.pdbqt.pdb
REMARK  3 active torsions:
REMARK  status: ('A' for Active; 'I' for Inactive)
REMARK    1  A    between atoms: C_8  and  O_21
REMARK    2  A    between atoms: C_8  and  C_23
REMARK    3  A    between atoms: C_23  and  O_24
REMARK                            x       y       z     vdW  Elec       q    Type
REMARK                         _______ _______ _______ _____ _____    ______ ____
ROOT
ATOM      1  O   UNL     1       0.868  -7.444 -22.077  0.00  0.00    +0.000 OA
ATOM      2  C   UNL     1       2.708  -1.614 -20.722  0.00  0.00    +0.000 C 
ATOM      3  C   UNL     1       1.349  -2.348 -20.341  0.00  0.00    +0.000 C 
ATOM      4  C   UNL     1       2.483   0.066 -19.031  0.00  0.00    +0.000 C 
ATOM      5  C   UNL     1       2.485  -0.161 -20.486  0.00  0.00    +0.000 C 
ATOM      6  C   UNL     1       3.671  -1.813 -19.617  0.00  0.00    +0.000 C 
ATOM      7  C   UNL     1       0.604  -3.246 -21.336  0.00  0.00    +0.000 C 
ATOM      8  C   UNL     1       3.741  -0.779 -18.565  0.00  0.00    +0.000 C 
ATOM      9  C   UNL     1       3.141  -2.060 -22.020  0.00  0.00    +0.000 C 
ATOM     10  C   UNL     1       0.692  -1.714 -19.210  0.00  0.00    +0.000 C 
ATOM     11  C   UNL     1       1.209  -0.435 -18.537  0.00  0.00    +0.000 C 
ATOM     12  C   UNL     1       1.514  -3.901 -22.513  0.00  0.00    +0.000 C 
ATOM     13  C   UNL     1       2.639  -3.147 -22.916  0.00  0.00    +0.000 C 
ATOM     14  C   UNL     1      -0.503  -2.407 -22.052  0.00  0.00    +0.000 C 
ATOM     15  C   UNL     1       0.017  -4.402 -20.605  0.00  0.00    +0.000 C 
ATOM     16  C   UNL     1       1.478  -5.338 -22.666  0.00  0.00    +0.000 A 
ATOM     17  C   UNL     1       0.020  -5.594 -20.736  0.00  0.00    +0.000 C 
ATOM     18  C   UNL     1       0.754  -6.137 -21.806  0.00  0.00    +0.000 A 
ATOM     19  C   UNL     1       2.102  -6.235 -23.555  0.00  0.00    +0.000 A 
ATOM     20  C   UNL     1       1.697  -7.506 -23.171  0.00  0.00    +0.000 A 
ENDROOT
BRANCH   8  21
ATOM     21  O   UNL     1       4.927  -0.022 -18.730  0.00  0.00    +0.000 OA
ATOM     22  H   UNL     1       4.998   0.536 -17.937  0.00  0.00    +0.000 HD
ENDBRANCH   8  21
BRANCH   8  23
ATOM     23  C   UNL     1       3.657  -1.273 -17.185  0.00  0.00    +0.000 C 
BRANCH  23  24
ATOM     24  O   UNL     1       3.562  -1.724 -15.933  0.00  0.00    +0.000 OA
ATOM     25  H   UNL     1       4.434  -1.733 -15.501  0.00  0.00    +0.000 HD
ENDBRANCH  23  24
ENDBRANCH   8  23
TORSDOF 3
ENDMDL
