MODEL 1
REMARK VINA RESULT:      -3.8      0.000      0.000
REMARK  Name = 1174_Uracil.pdbqt.pdb
REMARK  0 active torsions:
REMARK  status: ('A' for Active; 'I' for Inactive)
REMARK                            x       y       z     vdW  Elec       q    Type
REMARK                         _______ _______ _______ _____ _____    ______ ____
ROOT
ATOM      1  O   UNL     1      -2.025   1.800 -18.962  0.00  0.00    +0.000 OA
ATOM      2  O   UNL     1      -2.958  -2.739 -19.034  0.00  0.00    +0.000 OA
ATOM      3  N   UNL     1      -2.451  -0.470 -19.056  0.00  0.00    +0.000 N 
ATOM      4  N   UNL     1      -3.342   0.836 -17.326  0.00  0.00    +0.000 N 
ATOM      5  C   UNL     1      -2.562   0.807 -18.487  0.00  0.00    +0.000 A 
ATOM      6  C   UNL     1      -3.046  -1.623 -18.546  0.00  0.00    +0.000 A 
ATOM      7  C   UNL     1      -3.908  -0.284 -16.847  0.00  0.00    +0.000 A 
ATOM      8  C   UNL     1      -3.801  -1.361 -17.349  0.00  0.00    +0.000 A 
ATOM      9  H   UNL     1      -1.902  -0.559 -19.895  0.00  0.00    +0.000 HD
ATOM     10  H   UNL     1      -3.470   1.723 -16.855  0.00  0.00    +0.000 HD
ENDROOT
TORSDOF 0
ENDMDL
MODEL 2
REMARK VINA RESULT:      -3.6     18.360     18.443
REMARK  Name = 1174_Uracil.pdbqt.pdb
REMARK  0 active torsions:
REMARK  status: ('A' for Active; 'I' for Inactive)
REMARK                            x       y       z     vdW  Elec       q    Type
REMARK                         _______ _______ _______ _____ _____    ______ ____
ROOT
ATOM      1  O   UNL     1       9.396  -4.003  -8.056  0.00  0.00    +0.000 OA
ATOM      2  O   UNL     1      11.254  -8.088  -6.899  0.00  0.00    +0.000 OA
ATOM      3  N   UNL     1      10.336  -6.053  -7.547  0.00  0.00    +0.000 N 
ATOM      4  N   UNL     1       9.512  -4.667  -5.846  0.00  0.00    +0.000 N 
ATOM      5  C   UNL     1       9.720  -4.836  -7.219  0.00  0.00    +0.000 A 
ATOM      6  C   UNL     1      10.718  -7.025  -6.625  0.00  0.00    +0.000 A 
ATOM      7  C   UNL     1       9.886  -5.614  -4.970  0.00  0.00    +0.000 A 
ATOM      8  C   UNL     1      10.409  -6.642  -5.271  0.00  0.00    +0.000 A 
ATOM      9  H   UNL     1      10.514  -6.236  -8.521  0.00  0.00    +0.000 HD
ATOM     10  H   UNL     1       9.071  -3.813  -5.528  0.00  0.00    +0.000 HD
ENDROOT
TORSDOF 0
ENDMDL
MODEL 3
REMARK VINA RESULT:      -3.4     18.043     18.190
REMARK  Name = 1174_Uracil.pdbqt.pdb
REMARK  0 active torsions:
REMARK  status: ('A' for Active; 'I' for Inactive)
REMARK                            x       y       z     vdW  Elec       q    Type
REMARK                         _______ _______ _______ _____ _____    ______ ____
ROOT
ATOM      1  O   UNL     1      11.635  -5.123  -9.232  0.00  0.00    +0.000 OA
ATOM      2  O   UNL     1       8.996  -3.648  -5.720  0.00  0.00    +0.000 OA
ATOM      3  N   UNL     1      10.319  -4.323  -7.508  0.00  0.00    +0.000 N 
ATOM      4  N   UNL     1      10.954  -6.578  -7.572  0.00  0.00    +0.000 N 
ATOM      5  C   UNL     1      11.022  -5.326  -8.192  0.00  0.00    +0.000 A 
ATOM      6  C   UNL     1       9.610  -4.514  -6.324  0.00  0.00    +0.000 A 
ATOM      7  C   UNL     1      10.266  -6.746  -6.430  0.00  0.00    +0.000 A 
ATOM      8  C   UNL     1       9.675  -5.878  -5.866  0.00  0.00    +0.000 A 
ATOM      9  H   UNL     1      10.329  -3.397  -7.903  0.00  0.00    +0.000 HD
ATOM     10  H   UNL     1      11.436  -7.356  -8.005  0.00  0.00    +0.000 HD
ENDROOT
TORSDOF 0
ENDMDL
MODEL 4
REMARK VINA RESULT:      -3.4     13.885     14.448
REMARK  Name = 1174_Uracil.pdbqt.pdb
REMARK  0 active torsions:
REMARK  status: ('A' for Active; 'I' for Inactive)
REMARK                            x       y       z     vdW  Elec       q    Type
REMARK                         _______ _______ _______ _____ _____    ______ ____
ROOT
ATOM      1  O   UNL     1     -12.429   9.085  -9.562  0.00  0.00    +0.000 OA
ATOM      2  O   UNL     1     -12.920   4.495  -9.161  0.00  0.00    +0.000 OA
ATOM      3  N   UNL     1     -12.677   6.803  -9.293  0.00  0.00    +0.000 N 
ATOM      4  N   UNL     1     -12.479   7.733 -11.435  0.00  0.00    +0.000 N 
ATOM      5  C   UNL     1     -12.521   7.969 -10.057  0.00  0.00    +0.000 A 
ATOM      6  C   UNL     1     -12.785   5.517  -9.817  0.00  0.00    +0.000 A 
ATOM      7  C   UNL     1     -12.584   6.486 -11.924  0.00  0.00    +0.000 A 
ATOM      8  C   UNL     1     -12.717   5.508 -11.255  0.00  0.00    +0.000 A 
ATOM      9  H   UNL     1     -12.715   6.905  -8.291  0.00  0.00    +0.000 HD
ATOM     10  H   UNL     1     -12.368   8.525 -12.055  0.00  0.00    +0.000 HD
ENDROOT
TORSDOF 0
ENDMDL
MODEL 5
REMARK VINA RESULT:      -3.4     13.508     14.125
REMARK  Name = 1174_Uracil.pdbqt.pdb
REMARK  0 active torsions:
REMARK  status: ('A' for Active; 'I' for Inactive)
REMARK                            x       y       z     vdW  Elec       q    Type
REMARK                         _______ _______ _______ _____ _____    ______ ____
ROOT
ATOM      1  O   UNL     1     -12.181   8.858  -9.809  0.00  0.00    +0.000 OA
ATOM      2  O   UNL     1     -10.120   5.455  -7.433  0.00  0.00    +0.000 OA
ATOM      3  N   UNL     1     -11.144   7.205  -8.570  0.00  0.00    +0.000 N 
ATOM      4  N   UNL     1     -11.930   6.754 -10.732  0.00  0.00    +0.000 N 
ATOM      5  C   UNL     1     -11.786   7.703  -9.714  0.00  0.00    +0.000 A 
ATOM      6  C   UNL     1     -10.680   5.899  -8.423  0.00  0.00    +0.000 A 
ATOM      7  C   UNL     1     -11.477   5.499 -10.574  0.00  0.00    +0.000 A 
ATOM      8  C   UNL     1     -10.934   5.097  -9.592  0.00  0.00    +0.000 A 
ATOM      9  H   UNL     1     -11.009   7.838  -7.800  0.00  0.00    +0.000 HD
ATOM     10  H   UNL     1     -12.384   7.037 -11.591  0.00  0.00    +0.000 HD
ENDROOT
TORSDOF 0
ENDMDL
MODEL 6
REMARK VINA RESULT:      -3.4     19.036     19.344
REMARK  Name = 1174_Uracil.pdbqt.pdb
REMARK  0 active torsions:
REMARK  status: ('A' for Active; 'I' for Inactive)
REMARK                            x       y       z     vdW  Elec       q    Type
REMARK                         _______ _______ _______ _____ _____    ______ ____
ROOT
ATOM      1  O   UNL     1      11.773  -8.551  -6.611  0.00  0.00    +0.000 OA
ATOM      2  O   UNL     1      11.579  -3.943  -7.067  0.00  0.00    +0.000 OA
ATOM      3  N   UNL     1      11.670  -6.247  -6.769  0.00  0.00    +0.000 N 
ATOM      4  N   UNL     1      11.921  -7.560  -8.694  0.00  0.00    +0.000 N 
ATOM      5  C   UNL     1      11.787  -7.539  -7.301  0.00  0.00    +0.000 A 
ATOM      6  C   UNL     1      11.681  -5.073  -7.520  0.00  0.00    +0.000 A 
ATOM      7  C   UNL     1      11.930  -6.419  -9.403  0.00  0.00    +0.000 A 
ATOM      8  C   UNL     1      11.829  -5.330  -8.929  0.00  0.00    +0.000 A 
ATOM      9  H   UNL     1      11.570  -6.162  -5.771  0.00  0.00    +0.000 HD
ATOM     10  H   UNL     1      12.011  -8.457  -9.155  0.00  0.00    +0.000 HD
ENDROOT
TORSDOF 0
ENDMDL
MODEL 7
REMARK VINA RESULT:      -3.3     13.898     14.558
REMARK  Name = 1174_Uracil.pdbqt.pdb
REMARK  0 active torsions:
REMARK  status: ('A' for Active; 'I' for Inactive)
REMARK                            x       y       z     vdW  Elec       q    Type
REMARK                         _______ _______ _______ _____ _____    ______ ____
ROOT
ATOM      1  O   UNL     1     -13.796   4.291  -9.484  0.00  0.00    +0.000 OA
ATOM      2  O   UNL     1     -12.042   8.551  -9.982  0.00  0.00    +0.000 OA
ATOM      3  N   UNL     1     -12.983   6.438  -9.755  0.00  0.00    +0.000 N 
ATOM      4  N   UNL     1     -11.592   4.733  -8.951  0.00  0.00    +0.000 N 
ATOM      5  C   UNL     1     -12.868   5.085  -9.403  0.00  0.00    +0.000 A 
ATOM      6  C   UNL     1     -11.952   7.372  -9.677  0.00  0.00    +0.000 A 
ATOM      7  C   UNL     1     -10.608   5.645  -8.881  0.00  0.00    +0.000 A 
ATOM      8  C   UNL     1     -10.729   6.791  -9.186  0.00  0.00    +0.000 A 
ATOM      9  H   UNL     1     -13.878   6.756 -10.089  0.00  0.00    +0.000 HD
ATOM     10  H   UNL     1     -11.427   3.772  -8.676  0.00  0.00    +0.000 HD
ENDROOT
TORSDOF 0
ENDMDL
MODEL 8
REMARK VINA RESULT:      -3.3     19.601     20.237
REMARK  Name = 1174_Uracil.pdbqt.pdb
REMARK  0 active torsions:
REMARK  status: ('A' for Active; 'I' for Inactive)
REMARK                            x       y       z     vdW  Elec       q    Type
REMARK                         _______ _______ _______ _____ _____    ______ ____
ROOT
ATOM      1  O   UNL     1       5.724   4.424  -0.123  0.00  0.00    +0.000 OA
ATOM      2  O   UNL     1       7.883   4.198  -4.217  0.00  0.00    +0.000 OA
ATOM      3  N   UNL     1       6.756   4.261  -2.185  0.00  0.00    +0.000 N 
ATOM      4  N   UNL     1       7.513   5.808  -0.595  0.00  0.00    +0.000 N 
ATOM      5  C   UNL     1       6.592   4.801  -0.901  0.00  0.00    +0.000 A 
ATOM      6  C   UNL     1       7.730   4.662  -3.097  0.00  0.00    +0.000 A 
ATOM      7  C   UNL     1       8.446   6.183  -1.486  0.00  0.00    +0.000 A 
ATOM      8  C   UNL     1       8.567   5.710  -2.574  0.00  0.00    +0.000 A 
ATOM      9  H   UNL     1       6.124   3.530  -2.467  0.00  0.00    +0.000 HD
ATOM     10  H   UNL     1       7.459   6.249   0.315  0.00  0.00    +0.000 HD
ENDROOT
TORSDOF 0
ENDMDL
MODEL 9
REMARK VINA RESULT:      -3.3     20.510     20.753
REMARK  Name = 1174_Uracil.pdbqt.pdb
REMARK  0 active torsions:
REMARK  status: ('A' for Active; 'I' for Inactive)
REMARK                            x       y       z     vdW  Elec       q    Type
REMARK                         _______ _______ _______ _____ _____    ______ ____
ROOT
ATOM      1  O   UNL     1      -6.461  16.828  -5.876  0.00  0.00    +0.000 OA
ATOM      2  O   UNL     1      -9.264  13.623  -4.047  0.00  0.00    +0.000 OA
ATOM      3  N   UNL     1      -7.914  15.267  -4.985  0.00  0.00    +0.000 N 
ATOM      4  N   UNL     1      -5.597  14.958  -4.829  0.00  0.00    +0.000 N 
ATOM      5  C   UNL     1      -6.640  15.773  -5.280  0.00  0.00    +0.000 A 
ATOM      6  C   UNL     1      -8.159  14.072  -4.310  0.00  0.00    +0.000 A 
ATOM      7  C   UNL     1      -5.849  13.810  -4.180  0.00  0.00    +0.000 A 
ATOM      8  C   UNL     1      -6.942  13.398  -3.939  0.00  0.00    +0.000 A 
ATOM      9  H   UNL     1      -8.710  15.807  -5.283  0.00  0.00    +0.000 HD
ATOM     10  H   UNL     1      -4.645  15.255  -5.004  0.00  0.00    +0.000 HD
ENDROOT
TORSDOF 0
ENDMDL
