MODEL 1
REMARK VINA RESULT:      -5.9      0.000      0.000
REMARK  Name = 122178712_SalternamideA.pdbqt.pdb
REMARK  8 active torsions:
REMARK  status: ('A' for Active; 'I' for Inactive)
REMARK    1  A    between atoms: C_3  and  O_24
REMARK    2  A    between atoms: C_3  and  C_26
REMARK    3  A    between atoms: C_6  and  N_10
REMARK    4  A    between atoms: C_11  and  C_14
REMARK    5  A    between atoms: C_13  and  C_15
REMARK    6  A    between atoms: C_27  and  C_28
REMARK    7  A    between atoms: C_29  and  C_31
REMARK    8  A    between atoms: C_31  and  O_32
REMARK                            x       y       z     vdW  Elec       q    Type
REMARK                         _______ _______ _______ _____ _____    ______ ____
ROOT
ATOM      1 CL   UNL     1      -0.768   3.880 -24.058  0.00  0.00    +0.000 Cl
ATOM      2  O   UNL     1       2.076   2.874 -23.140  0.00  0.00    +0.000 OA
ATOM      3  C   UNL     1      -1.012   2.816 -20.136  0.00  0.00    +0.000 C 
ATOM      4  C   UNL     1       0.394   2.381 -20.096  0.00  0.00    +0.000 C 
ATOM      5  C   UNL     1      -1.052   3.283 -21.532  0.00  0.00    +0.000 C 
ATOM      6  C   UNL     1       1.429   2.341 -20.886  0.00  0.00    +0.000 C 
ATOM      7  C   UNL     1      -0.227   3.381 -22.533  0.00  0.00    +0.000 C 
ATOM      8  C   UNL     1       1.184   2.878 -22.301  0.00  0.00    +0.000 C 
ENDROOT
BRANCH   6  10
ATOM      9  O   UNL     1       2.483  -0.372 -21.161  0.00  0.00    +0.000 OA
ATOM     10  N   UNL     1       2.673   1.864 -20.567  0.00  0.00    +0.000 N 
ATOM     11  C   UNL     1       3.118   0.574 -20.719  0.00  0.00    +0.000 C 
ATOM     12  H   UNL     1       3.315   2.553 -20.179  0.00  0.00    +0.000 HD
BRANCH  11  14
ATOM     13  C   UNL     1       5.618   0.180 -19.947  0.00  0.00    +0.000 C 
ATOM     14  C   UNL     1       4.483   0.354 -20.303  0.00  0.00    +0.000 C 
BRANCH  13  15
ATOM     15  C   UNL     1       6.953  -0.023 -19.520  0.00  0.00    +0.000 C 
ATOM     16  C   UNL     1       7.537  -1.401 -19.655  0.00  0.00    +0.000 C 
ATOM     17  C   UNL     1       7.766   0.963 -18.927  0.00  0.00    +0.000 C 
ATOM     18  C   UNL     1       8.591   1.940 -18.334  0.00  0.00    +0.000 C 
ATOM     19  C   UNL     1       8.211   3.378 -18.529  0.00  0.00    +0.000 C 
ATOM     20  C   UNL     1       9.727   1.661 -17.557  0.00  0.00    +0.000 C 
ATOM     21  C   UNL     1      10.767   1.406 -16.837  0.00  0.00    +0.000 C 
ATOM     22  C   UNL     1      12.099   1.244 -17.501  0.00  0.00    +0.000 C 
ATOM     23  C   UNL     1      10.581   0.945 -15.425  0.00  0.00    +0.000 C 
ENDBRANCH  13  15
ENDBRANCH  11  14
ENDBRANCH   6  10
BRANCH   3  24
ATOM     24  O   UNL     1      -1.185   3.919 -19.272  0.00  0.00    +0.000 OA
ATOM     25  H   UNL     1      -1.719   3.594 -18.527  0.00  0.00    +0.000 HD
ENDBRANCH   3  24
BRANCH   3  26
ATOM     26  C   UNL     1      -1.977   1.768 -19.827  0.00  0.00    +0.000 C 
ATOM     27  C   UNL     1      -2.986   0.664 -19.498  0.00  0.00    +0.000 C 
BRANCH  27  28
ATOM     28  C   UNL     1      -3.993  -0.441 -19.165  0.00  0.00    +0.000 C 
ATOM     29  C   UNL     1      -4.999  -1.548 -18.836  0.00  0.00    +0.000 C 
BRANCH  29  31
ATOM     30  O   UNL     1      -7.078  -2.367 -18.154  0.00  0.00    +0.000 OA
ATOM     31  C   UNL     1      -5.939  -2.582 -18.528  0.00  0.00    +0.000 C 
BRANCH  31  32
ATOM     32  O   UNL     1      -5.454  -3.827 -18.688  0.00  0.00    +0.000 OA
ATOM     33  H   UNL     1      -4.597  -3.684 -19.139  0.00  0.00    +0.000 HD
ENDBRANCH  31  32
ENDBRANCH  29  31
ENDBRANCH  27  28
ENDBRANCH   3  26
TORSDOF 8
ENDMDL
MODEL 2
REMARK VINA RESULT:      -5.7      3.303      4.397
REMARK  Name = 122178712_SalternamideA.pdbqt.pdb
REMARK  8 active torsions:
REMARK  status: ('A' for Active; 'I' for Inactive)
REMARK    1  A    between atoms: C_3  and  O_24
REMARK    2  A    between atoms: C_3  and  C_26
REMARK    3  A    between atoms: C_6  and  N_10
REMARK    4  A    between atoms: C_11  and  C_14
REMARK    5  A    between atoms: C_13  and  C_15
REMARK    6  A    between atoms: C_27  and  C_28
REMARK    7  A    between atoms: C_29  and  C_31
REMARK    8  A    between atoms: C_31  and  O_32
REMARK                            x       y       z     vdW  Elec       q    Type
REMARK                         _______ _______ _______ _____ _____    ______ ____
ROOT
ATOM      1 CL   UNL     1      -2.858   3.196 -21.524  0.00  0.00    +0.000 Cl
ATOM      2  O   UNL     1      -0.260   1.414 -21.660  0.00  0.00    +0.000 OA
ATOM      3  C   UNL     1      -3.116   0.364 -18.610  0.00  0.00    +0.000 C 
ATOM      4  C   UNL     1      -1.841  -0.256 -19.005  0.00  0.00    +0.000 C 
ATOM      5  C   UNL     1      -3.128   1.468 -19.585  0.00  0.00    +0.000 C 
ATOM      6  C   UNL     1      -0.885  -0.064 -19.868  0.00  0.00    +0.000 C 
ATOM      7  C   UNL     1      -2.358   1.917 -20.531  0.00  0.00    +0.000 C 
ATOM      8  C   UNL     1      -1.082   1.142 -20.793  0.00  0.00    +0.000 C 
ENDROOT
BRANCH   6  10
ATOM      9  O   UNL     1       1.572  -0.055 -18.283  0.00  0.00    +0.000 OA
ATOM     10  N   UNL     1       0.239  -0.833 -20.017  0.00  0.00    +0.000 N 
ATOM     11  C   UNL     1       1.370  -0.788 -19.240  0.00  0.00    +0.000 C 
ATOM     12  H   UNL     1       0.211  -1.496 -20.790  0.00  0.00    +0.000 HD
BRANCH  11  14
ATOM     13  C   UNL     1       3.274  -2.488 -19.935  0.00  0.00    +0.000 C 
ATOM     14  C   UNL     1       2.404  -1.720 -19.624  0.00  0.00    +0.000 C 
BRANCH  13  15
ATOM     15  C   UNL     1       4.303  -3.393 -20.295  0.00  0.00    +0.000 C 
ATOM     16  C   UNL     1       3.912  -4.793 -20.675  0.00  0.00    +0.000 C 
ATOM     17  C   UNL     1       5.679  -3.094 -20.276  0.00  0.00    +0.000 C 
ATOM     18  C   UNL     1       7.060  -2.808 -20.264  0.00  0.00    +0.000 C 
ATOM     19  C   UNL     1       7.468  -1.365 -20.274  0.00  0.00    +0.000 C 
ATOM     20  C   UNL     1       8.075  -3.777 -20.219  0.00  0.00    +0.000 C 
ATOM     21  C   UNL     1       9.009  -4.665 -20.171  0.00  0.00    +0.000 C 
ATOM     22  C   UNL     1       9.537  -5.246 -21.445  0.00  0.00    +0.000 C 
ATOM     23  C   UNL     1       9.307  -5.341 -18.868  0.00  0.00    +0.000 C 
ENDBRANCH  13  15
ENDBRANCH  11  14
ENDBRANCH   6  10
BRANCH   3  24
ATOM     24  O   UNL     1      -2.994   0.896 -17.307  0.00  0.00    +0.000 OA
ATOM     25  H   UNL     1      -3.385   0.235 -16.711  0.00  0.00    +0.000 HD
ENDBRANCH   3  24
BRANCH   3  26
ATOM     26  C   UNL     1      -4.270  -0.523 -18.694  0.00  0.00    +0.000 C 
ATOM     27  C   UNL     1      -5.485  -1.451 -18.780  0.00  0.00    +0.000 C 
BRANCH  27  28
ATOM     28  C   UNL     1      -6.703  -2.375 -18.866  0.00  0.00    +0.000 C 
ATOM     29  C   UNL     1      -7.920  -3.301 -18.949  0.00  0.00    +0.000 C 
BRANCH  29  31
ATOM     30  O   UNL     1      -9.373  -4.943 -18.142  0.00  0.00    +0.000 OA
ATOM     31  C   UNL     1      -9.058  -4.166 -19.026  0.00  0.00    +0.000 C 
BRANCH  31  32
ATOM     32  O   UNL     1      -9.759  -4.047 -20.168  0.00  0.00    +0.000 OA
ATOM     33  H   UNL     1      -9.889  -4.974 -20.456  0.00  0.00    +0.000 HD
ENDBRANCH  31  32
ENDBRANCH  29  31
ENDBRANCH  27  28
ENDBRANCH   3  26
TORSDOF 8
ENDMDL
MODEL 3
REMARK VINA RESULT:      -5.4      9.033     17.413
REMARK  Name = 122178712_SalternamideA.pdbqt.pdb
REMARK  8 active torsions:
REMARK  status: ('A' for Active; 'I' for Inactive)
REMARK    1  A    between atoms: C_3  and  O_24
REMARK    2  A    between atoms: C_3  and  C_26
REMARK    3  A    between atoms: C_6  and  N_10
REMARK    4  A    between atoms: C_11  and  C_14
REMARK    5  A    between atoms: C_13  and  C_15
REMARK    6  A    between atoms: C_27  and  C_28
REMARK    7  A    between atoms: C_29  and  C_31
REMARK    8  A    between atoms: C_31  and  O_32
REMARK                            x       y       z     vdW  Elec       q    Type
REMARK                         _______ _______ _______ _____ _____    ______ ____
ROOT
ATOM      1 CL   UNL     1     -10.563  -4.955 -17.522  0.00  0.00    +0.000 Cl
ATOM      2  O   UNL     1     -11.521  -4.906 -20.525  0.00  0.00    +0.000 OA
ATOM      3  C   UNL     1      -8.938  -1.679 -19.311  0.00  0.00    +0.000 C 
ATOM      4  C   UNL     1      -9.529  -2.014 -20.617  0.00  0.00    +0.000 C 
ATOM      5  C   UNL     1      -9.498  -2.794 -18.529  0.00  0.00    +0.000 C 
ATOM      6  C   UNL     1     -10.313  -2.916 -21.133  0.00  0.00    +0.000 C 
ATOM      7  C   UNL     1     -10.283  -3.810 -18.738  0.00  0.00    +0.000 C 
ATOM      8  C   UNL     1     -10.795  -3.993 -20.153  0.00  0.00    +0.000 C 
ENDROOT
BRANCH   6  10
ATOM      9  O   UNL     1      -8.928  -4.076 -23.431  0.00  0.00    +0.000 OA
ATOM     10  N   UNL     1     -10.720  -2.985 -22.440  0.00  0.00    +0.000 N 
ATOM     11  C   UNL     1     -10.027  -3.544 -23.484  0.00  0.00    +0.000 C 
ATOM     12  H   UNL     1     -11.631  -2.571 -22.632  0.00  0.00    +0.000 HD
BRANCH  11  14
ATOM     13  C   UNL     1     -11.269  -3.435 -25.817  0.00  0.00    +0.000 C 
ATOM     14  C   UNL     1     -10.700  -3.479 -24.760  0.00  0.00    +0.000 C 
BRANCH  13  15
ATOM     15  C   UNL     1     -11.947  -3.384 -27.060  0.00  0.00    +0.000 C 
ATOM     16  C   UNL     1     -11.445  -2.424 -28.101  0.00  0.00    +0.000 C 
ATOM     17  C   UNL     1     -13.097  -4.133 -27.380  0.00  0.00    +0.000 C 
ATOM     18  C   UNL     1     -14.246  -4.878 -27.714  0.00  0.00    +0.000 C 
ATOM     19  C   UNL     1     -14.546  -6.096 -26.890  0.00  0.00    +0.000 C 
ATOM     20  C   UNL     1     -15.139  -4.549 -28.747  0.00  0.00    +0.000 C 
ATOM     21  C   UNL     1     -15.963  -4.243 -29.690  0.00  0.00    +0.000 C 
ATOM     22  C   UNL     1     -15.711  -4.744 -31.078  0.00  0.00    +0.000 C 
ATOM     23  C   UNL     1     -16.949  -3.138 -29.468  0.00  0.00    +0.000 C 
ENDBRANCH  13  15
ENDBRANCH  11  14
ENDBRANCH   6  10
BRANCH   3  24
ATOM     24  O   UNL     1      -9.488  -0.464 -18.846  0.00  0.00    +0.000 OA
ATOM     25  H   UNL     1      -8.760   0.007 -18.405  0.00  0.00    +0.000 HD
ENDBRANCH   3  24
BRANCH   3  26
ATOM     26  C   UNL     1      -7.482  -1.616 -19.307  0.00  0.00    +0.000 C 
ATOM     27  C   UNL     1      -5.952  -1.546 -19.298  0.00  0.00    +0.000 C 
BRANCH  27  28
ATOM     28  C   UNL     1      -4.422  -1.475 -19.285  0.00  0.00    +0.000 C 
ATOM     29  C   UNL     1      -2.893  -1.400 -19.274  0.00  0.00    +0.000 C 
BRANCH  29  31
ATOM     30  O   UNL     1      -0.761  -1.756 -20.162  0.00  0.00    +0.000 OA
ATOM     31  C   UNL     1      -1.463  -1.330 -19.262  0.00  0.00    +0.000 C 
BRANCH  31  32
ATOM     32  O   UNL     1      -0.953  -0.748 -18.162  0.00  0.00    +0.000 OA
ATOM     33  H   UNL     1      -1.232  -1.343 -17.436  0.00  0.00    +0.000 HD
ENDBRANCH  31  32
ENDBRANCH  29  31
ENDBRANCH  27  28
ENDBRANCH   3  26
TORSDOF 8
ENDMDL
MODEL 4
REMARK VINA RESULT:      -5.3      9.687     16.912
REMARK  Name = 122178712_SalternamideA.pdbqt.pdb
REMARK  8 active torsions:
REMARK  status: ('A' for Active; 'I' for Inactive)
REMARK    1  A    between atoms: C_3  and  O_24
REMARK    2  A    between atoms: C_3  and  C_26
REMARK    3  A    between atoms: C_6  and  N_10
REMARK    4  A    between atoms: C_11  and  C_14
REMARK    5  A    between atoms: C_13  and  C_15
REMARK    6  A    between atoms: C_27  and  C_28
REMARK    7  A    between atoms: C_29  and  C_31
REMARK    8  A    between atoms: C_31  and  O_32
REMARK                            x       y       z     vdW  Elec       q    Type
REMARK                         _______ _______ _______ _____ _____    ______ ____
ROOT
ATOM      1 CL   UNL     1     -10.585  -2.152 -24.969  0.00  0.00    +0.000 Cl
ATOM      2  O   UNL     1     -11.944   0.485 -23.903  0.00  0.00    +0.000 OA
ATOM      3  C   UNL     1     -10.416  -2.201 -20.902  0.00  0.00    +0.000 C 
ATOM      4  C   UNL     1     -11.053  -0.879 -20.791  0.00  0.00    +0.000 C 
ATOM      5  C   UNL     1     -10.454  -2.336 -22.367  0.00  0.00    +0.000 C 
ATOM      6  C   UNL     1     -11.564   0.029 -21.572  0.00  0.00    +0.000 C 
ATOM      7  C   UNL     1     -10.883  -1.643 -23.382  0.00  0.00    +0.000 C 
ATOM      8  C   UNL     1     -11.513  -0.300 -23.069  0.00  0.00    +0.000 C 
ENDROOT
BRANCH   6  10
ATOM      9  O   UNL     1     -10.446   2.724 -21.752  0.00  0.00    +0.000 OA
ATOM     10  N   UNL     1     -12.117   1.220 -21.178  0.00  0.00    +0.000 N 
ATOM     11  C   UNL     1     -11.546   2.463 -21.287  0.00  0.00    +0.000 C 
ATOM     12  H   UNL     1     -13.045   1.150 -20.763  0.00  0.00    +0.000 HD
BRANCH  11  14
ATOM     13  C   UNL     1     -13.026   4.455 -20.372  0.00  0.00    +0.000 C 
ATOM     14  C   UNL     1     -12.360   3.548 -20.792  0.00  0.00    +0.000 C 
BRANCH  13  15
ATOM     15  C   UNL     1     -13.806   5.529 -19.877  0.00  0.00    +0.000 C 
ATOM     16  C   UNL     1     -14.608   5.304 -18.626  0.00  0.00    +0.000 C 
ATOM     17  C   UNL     1     -13.930   6.786 -20.500  0.00  0.00    +0.000 C 
ATOM     18  C   UNL     1     -14.060   8.050 -21.111  0.00  0.00    +0.000 C 
ATOM     19  C   UNL     1     -13.013   8.448 -22.109  0.00  0.00    +0.000 C 
ATOM     20  C   UNL     1     -15.111   8.949 -20.869  0.00  0.00    +0.000 C 
ATOM     21  C   UNL     1     -16.079   9.773 -20.653  0.00  0.00    +0.000 C 
ATOM     22  C   UNL     1     -15.969  10.760 -19.532  0.00  0.00    +0.000 C 
ATOM     23  C   UNL     1     -17.412   9.515 -21.285  0.00  0.00    +0.000 C 
ENDBRANCH  13  15
ENDBRANCH  11  14
ENDBRANCH   6  10
BRANCH   3  24
ATOM     24  O   UNL     1     -11.259  -3.176 -20.324  0.00  0.00    +0.000 OA
ATOM     25  H   UNL     1     -12.139  -3.033 -20.714  0.00  0.00    +0.000 HD
ENDBRANCH   3  24
BRANCH   3  26
ATOM     26  C   UNL     1      -9.079  -2.276 -20.328  0.00  0.00    +0.000 C 
ATOM     27  C   UNL     1      -7.671  -2.353 -19.729  0.00  0.00    +0.000 C 
BRANCH  27  28
ATOM     28  C   UNL     1      -6.262  -2.428 -19.134  0.00  0.00    +0.000 C 
ATOM     29  C   UNL     1      -4.853  -2.506 -18.538  0.00  0.00    +0.000 C 
BRANCH  29  31
ATOM     30  O   UNL     1      -2.840  -1.602 -17.769  0.00  0.00    +0.000 OA
ATOM     31  C   UNL     1      -3.536  -2.579 -17.982  0.00  0.00    +0.000 C 
BRANCH  31  32
ATOM     32  O   UNL     1      -3.126  -3.831 -17.712  0.00  0.00    +0.000 OA
ATOM     33  H   UNL     1      -2.761  -3.764 -16.806  0.00  0.00    +0.000 HD
ENDBRANCH  31  32
ENDBRANCH  29  31
ENDBRANCH  27  28
ENDBRANCH   3  26
TORSDOF 8
ENDMDL
MODEL 5
REMARK VINA RESULT:      -5.2     18.301     22.093
REMARK  Name = 122178712_SalternamideA.pdbqt.pdb
REMARK  8 active torsions:
REMARK  status: ('A' for Active; 'I' for Inactive)
REMARK    1  A    between atoms: C_3  and  O_24
REMARK    2  A    between atoms: C_3  and  C_26
REMARK    3  A    between atoms: C_6  and  N_10
REMARK    4  A    between atoms: C_11  and  C_14
REMARK    5  A    between atoms: C_13  and  C_15
REMARK    6  A    between atoms: C_27  and  C_28
REMARK    7  A    between atoms: C_29  and  C_31
REMARK    8  A    between atoms: C_31  and  O_32
REMARK                            x       y       z     vdW  Elec       q    Type
REMARK                         _______ _______ _______ _____ _____    ______ ____
ROOT
ATOM      1 CL   UNL     1      -0.001  20.170  -5.329  0.00  0.00    +0.000 Cl
ATOM      2  O   UNL     1      -1.572  19.233  -7.897  0.00  0.00    +0.000 OA
ATOM      3  C   UNL     1       2.438  20.666  -8.551  0.00  0.00    +0.000 C 
ATOM      4  C   UNL     1       1.440  20.108  -9.478  0.00  0.00    +0.000 C 
ATOM      5  C   UNL     1       1.647  20.586  -7.311  0.00  0.00    +0.000 C 
ATOM      6  C   UNL     1       0.220  19.653  -9.445  0.00  0.00    +0.000 C 
ATOM      7  C   UNL     1       0.453  20.206  -6.960  0.00  0.00    +0.000 C 
ATOM      8  C   UNL     1      -0.435  19.656  -8.059  0.00  0.00    +0.000 C 
ENDROOT
BRANCH   6  10
ATOM      9  O   UNL     1      -1.567  21.102 -11.248  0.00  0.00    +0.000 OA
ATOM     10  N   UNL     1      -0.497  19.179 -10.512  0.00  0.00    +0.000 N 
ATOM     11  C   UNL     1      -1.325  19.907 -11.330  0.00  0.00    +0.000 C 
ATOM     12  H   UNL     1      -0.392  18.183 -10.697  0.00  0.00    +0.000 HD
BRANCH  11  14
ATOM     13  C   UNL     1      -2.469  18.504 -13.259  0.00  0.00    +0.000 C 
ATOM     14  C   UNL     1      -1.954  19.147 -12.385  0.00  0.00    +0.000 C 
BRANCH  13  15
ATOM     15  C   UNL     1      -3.076  17.739 -14.285  0.00  0.00    +0.000 C 
ATOM     16  C   UNL     1      -4.492  17.279 -14.082  0.00  0.00    +0.000 C 
ATOM     17  C   UNL     1      -2.432  17.329 -15.469  0.00  0.00    +0.000 C 
ATOM     18  C   UNL     1      -1.802  16.914 -16.660  0.00  0.00    +0.000 C 
ATOM     19  C   UNL     1      -0.563  17.648 -17.080  0.00  0.00    +0.000 C 
ATOM     20  C   UNL     1      -2.238  15.849 -17.465  0.00  0.00    +0.000 C 
ATOM     21  C   UNL     1      -2.633  14.867 -18.201  0.00  0.00    +0.000 C 
ATOM     22  C   UNL     1      -3.639  15.116 -19.281  0.00  0.00    +0.000 C 
ATOM     23  C   UNL     1      -2.351  13.464 -17.760  0.00  0.00    +0.000 C 
ENDBRANCH  13  15
ENDBRANCH  11  14
ENDBRANCH   6  10
BRANCH   3  24
ATOM     24  O   UNL     1       2.666  22.023  -8.870  0.00  0.00    +0.000 OA
ATOM     25  H   UNL     1       1.823  22.480  -8.707  0.00  0.00    +0.000 HD
ENDBRANCH   3  24
BRANCH   3  26
ATOM     26  C   UNL     1       3.697  19.933  -8.507  0.00  0.00    +0.000 C 
ATOM     27  C   UNL     1       5.017  19.158  -8.464  0.00  0.00    +0.000 C 
BRANCH  27  28
ATOM     28  C   UNL     1       6.336  18.381  -8.425  0.00  0.00    +0.000 C 
ATOM     29  C   UNL     1       7.656  17.605  -8.389  0.00  0.00    +0.000 C 
BRANCH  29  31
ATOM     30  O   UNL     1       9.936  17.353  -7.942  0.00  0.00    +0.000 OA
ATOM     31  C   UNL     1       8.890  16.881  -8.353  0.00  0.00    +0.000 C 
BRANCH  31  32
ATOM     32  O   UNL     1       8.799  15.622  -8.817  0.00  0.00    +0.000 OA
ATOM     33  H   UNL     1       8.773  15.735  -9.789  0.00  0.00    +0.000 HD
ENDBRANCH  31  32
ENDBRANCH  29  31
ENDBRANCH  27  28
ENDBRANCH   3  26
TORSDOF 8
ENDMDL
MODEL 6
REMARK VINA RESULT:      -5.2     18.842     21.332
REMARK  Name = 122178712_SalternamideA.pdbqt.pdb
REMARK  8 active torsions:
REMARK  status: ('A' for Active; 'I' for Inactive)
REMARK    1  A    between atoms: C_3  and  O_24
REMARK    2  A    between atoms: C_3  and  C_26
REMARK    3  A    between atoms: C_6  and  N_10
REMARK    4  A    between atoms: C_11  and  C_14
REMARK    5  A    between atoms: C_13  and  C_15
REMARK    6  A    between atoms: C_27  and  C_28
REMARK    7  A    between atoms: C_29  and  C_31
REMARK    8  A    between atoms: C_31  and  O_32
REMARK                            x       y       z     vdW  Elec       q    Type
REMARK                         _______ _______ _______ _____ _____    ______ ____
ROOT
ATOM      1 CL   UNL     1      -6.483 -17.940 -21.610  0.00  0.00    +0.000 Cl
ATOM      2  O   UNL     1      -7.900 -17.269 -18.875  0.00  0.00    +0.000 OA
ATOM      3  C   UNL     1      -7.201 -13.934 -21.510  0.00  0.00    +0.000 C 
ATOM      4  C   UNL     1      -7.870 -14.017 -20.202  0.00  0.00    +0.000 C 
ATOM      5  C   UNL     1      -6.837 -15.353 -21.655  0.00  0.00    +0.000 C 
ATOM      6  C   UNL     1      -8.147 -14.915 -19.300  0.00  0.00    +0.000 C 
ATOM      7  C   UNL     1      -6.957 -16.448 -20.964  0.00  0.00    +0.000 C 
ATOM      8  C   UNL     1      -7.680 -16.336 -19.636  0.00  0.00    +0.000 C 
ENDROOT
BRANCH   6  10
ATOM      9  O   UNL     1     -10.993 -15.228 -18.705  0.00  0.00    +0.000 OA
ATOM     10  N   UNL     1      -8.810 -14.700 -18.119  0.00  0.00    +0.000 N 
ATOM     11  C   UNL     1     -10.154 -14.865 -17.894  0.00  0.00    +0.000 C 
ATOM     12  H   UNL     1      -8.226 -14.386 -17.346  0.00  0.00    +0.000 HD
BRANCH  11  14
ATOM     13  C   UNL     1     -10.923 -14.321 -15.422  0.00  0.00    +0.000 C 
ATOM     14  C   UNL     1     -10.581 -14.569 -16.547  0.00  0.00    +0.000 C 
BRANCH  13  15
ATOM     15  C   UNL     1     -11.321 -14.022 -14.096  0.00  0.00    +0.000 C 
ATOM     16  C   UNL     1     -11.106 -15.068 -13.039  0.00  0.00    +0.000 C 
ATOM     17  C   UNL     1     -11.956 -12.829 -13.697  0.00  0.00    +0.000 C 
ATOM     18  C   UNL     1     -12.588 -11.639 -13.283  0.00  0.00    +0.000 C 
ATOM     19  C   UNL     1     -12.475 -10.445 -14.184  0.00  0.00    +0.000 C 
ATOM     20  C   UNL     1     -13.335 -11.501 -12.102  0.00  0.00    +0.000 C 
ATOM     21  C   UNL     1     -14.027 -11.375 -11.021  0.00  0.00    +0.000 C 
ATOM     22  C   UNL     1     -13.338 -10.991  -9.748  0.00  0.00    +0.000 C 
ATOM     23  C   UNL     1     -15.415 -11.933 -10.973  0.00  0.00    +0.000 C 
ENDBRANCH  13  15
ENDBRANCH  11  14
ENDBRANCH   6  10
BRANCH   3  24
ATOM     24  O   UNL     1      -6.024 -13.163 -21.385  0.00  0.00    +0.000 OA
ATOM     25  H   UNL     1      -5.722 -12.987 -22.293  0.00  0.00    +0.000 HD
ENDBRANCH   3  24
BRANCH   3  26
ATOM     26  C   UNL     1      -8.039 -13.417 -22.585  0.00  0.00    +0.000 C 
ATOM     27  C   UNL     1      -8.920 -12.879 -23.716  0.00  0.00    +0.000 C 
BRANCH  27  28
ATOM     28  C   UNL     1      -9.802 -12.345 -24.848  0.00  0.00    +0.000 C 
ATOM     29  C   UNL     1     -10.681 -11.811 -25.983  0.00  0.00    +0.000 C 
BRANCH  29  31
ATOM     30  O   UNL     1     -11.167 -11.319 -28.215  0.00  0.00    +0.000 OA
ATOM     31  C   UNL     1     -11.502 -11.312 -27.044  0.00  0.00    +0.000 C 
BRANCH  31  32
ATOM     32  O   UNL     1     -12.690 -10.830 -26.636  0.00  0.00    +0.000 OA
ATOM     33  H   UNL     1     -13.167 -11.625 -26.322  0.00  0.00    +0.000 HD
ENDBRANCH  31  32
ENDBRANCH  29  31
ENDBRANCH  27  28
ENDBRANCH   3  26
TORSDOF 8
ENDMDL
MODEL 7
REMARK VINA RESULT:      -5.2      6.653      9.378
REMARK  Name = 122178712_SalternamideA.pdbqt.pdb
REMARK  8 active torsions:
REMARK  status: ('A' for Active; 'I' for Inactive)
REMARK    1  A    between atoms: C_3  and  O_24
REMARK    2  A    between atoms: C_3  and  C_26
REMARK    3  A    between atoms: C_6  and  N_10
REMARK    4  A    between atoms: C_11  and  C_14
REMARK    5  A    between atoms: C_13  and  C_15
REMARK    6  A    between atoms: C_27  and  C_28
REMARK    7  A    between atoms: C_29  and  C_31
REMARK    8  A    between atoms: C_31  and  O_32
REMARK                            x       y       z     vdW  Elec       q    Type
REMARK                         _______ _______ _______ _____ _____    ______ ____
ROOT
ATOM      1 CL   UNL     1       9.972   0.778 -17.081  0.00  0.00    +0.000 Cl
ATOM      2  O   UNL     1       9.863   2.695 -19.582  0.00  0.00    +0.000 OA
ATOM      3  C   UNL     1       8.225  -1.249 -20.149  0.00  0.00    +0.000 C 
ATOM      4  C   UNL     1       8.300  -0.087 -21.050  0.00  0.00    +0.000 C 
ATOM      5  C   UNL     1       8.884  -0.653 -18.975  0.00  0.00    +0.000 C 
ATOM      6  C   UNL     1       8.757   1.133 -21.038  0.00  0.00    +0.000 C 
ATOM      7  C   UNL     1       9.433   0.484 -18.659  0.00  0.00    +0.000 C 
ATOM      8  C   UNL     1       9.414   1.565 -19.722  0.00  0.00    +0.000 C 
ENDROOT
BRANCH   6  10
ATOM      9  O   UNL     1       6.401   2.373 -22.245  0.00  0.00    +0.000 OA
ATOM     10  N   UNL     1       8.690   2.034 -22.068  0.00  0.00    +0.000 N 
ATOM     11  C   UNL     1       7.551   2.588 -22.598  0.00  0.00    +0.000 C 
ATOM     12  H   UNL     1       9.588   2.304 -22.467  0.00  0.00    +0.000 HD
BRANCH  11  14
ATOM     13  C   UNL     1       7.959   4.298 -24.575  0.00  0.00    +0.000 C 
ATOM     14  C   UNL     1       7.778   3.516 -23.681  0.00  0.00    +0.000 C 
BRANCH  13  15
ATOM     15  C   UNL     1       8.174   5.226 -25.623  0.00  0.00    +0.000 C 
ATOM     16  C   UNL     1       7.937   4.766 -27.034  0.00  0.00    +0.000 C 
ATOM     17  C   UNL     1       8.646   6.542 -25.448  0.00  0.00    +0.000 C 
ATOM     18  C   UNL     1       9.114   7.861 -25.287  0.00  0.00    +0.000 C 
ATOM     19  C   UNL     1       8.994   8.478 -23.924  0.00  0.00    +0.000 C 
ATOM     20  C   UNL     1       9.705   8.629 -26.304  0.00  0.00    +0.000 C 
ATOM     21  C   UNL     1      10.254   9.332 -27.235  0.00  0.00    +0.000 C 
ATOM     22  C   UNL     1       9.392  10.162 -28.135  0.00  0.00    +0.000 C 
ATOM     23  C   UNL     1      11.673   9.052 -27.621  0.00  0.00    +0.000 C 
ENDBRANCH  13  15
ENDBRANCH  11  14
ENDBRANCH   6  10
BRANCH   3  24
ATOM     24  O   UNL     1       9.033  -2.289 -20.659  0.00  0.00    +0.000 OA
ATOM     25  H   UNL     1       8.461  -2.805 -21.252  0.00  0.00    +0.000 HD
ENDBRANCH   3  24
BRANCH   3  26
ATOM     26  C   UNL     1       6.872  -1.729 -19.897  0.00  0.00    +0.000 C 
ATOM     27  C   UNL     1       5.450  -2.235 -19.639  0.00  0.00    +0.000 C 
BRANCH  27  28
ATOM     28  C   UNL     1       4.027  -2.741 -19.384  0.00  0.00    +0.000 C 
ATOM     29  C   UNL     1       2.605  -3.248 -19.126  0.00  0.00    +0.000 C 
BRANCH  29  31
ATOM     30  O   UNL     1       0.274  -3.121 -19.239  0.00  0.00    +0.000 OA
ATOM     31  C   UNL     1       1.275  -3.720 -18.886  0.00  0.00    +0.000 C 
BRANCH  31  32
ATOM     32  O   UNL     1       1.222  -4.893 -18.229  0.00  0.00    +0.000 OA
ATOM     33  H   UNL     1       2.014  -4.872 -17.655  0.00  0.00    +0.000 HD
ENDBRANCH  31  32
ENDBRANCH  29  31
ENDBRANCH  27  28
ENDBRANCH   3  26
TORSDOF 8
ENDMDL
MODEL 8
REMARK VINA RESULT:      -5.1     19.149     22.720
REMARK  Name = 122178712_SalternamideA.pdbqt.pdb
REMARK  8 active torsions:
REMARK  status: ('A' for Active; 'I' for Inactive)
REMARK    1  A    between atoms: C_3  and  O_24
REMARK    2  A    between atoms: C_3  and  C_26
REMARK    3  A    between atoms: C_6  and  N_10
REMARK    4  A    between atoms: C_11  and  C_14
REMARK    5  A    between atoms: C_13  and  C_15
REMARK    6  A    between atoms: C_27  and  C_28
REMARK    7  A    between atoms: C_29  and  C_31
REMARK    8  A    between atoms: C_31  and  O_32
REMARK                            x       y       z     vdW  Elec       q    Type
REMARK                         _______ _______ _______ _____ _____    ______ ____
ROOT
ATOM      1 CL   UNL     1      12.370 -14.180   1.349  0.00  0.00    +0.000 Cl
ATOM      2  O   UNL     1      13.352 -12.279  -0.967  0.00  0.00    +0.000 OA
ATOM      3  C   UNL     1       9.696 -14.434  -1.710  0.00  0.00    +0.000 C 
ATOM      4  C   UNL     1      10.419 -13.436  -2.516  0.00  0.00    +0.000 C 
ATOM      5  C   UNL     1      10.606 -14.476  -0.554  0.00  0.00    +0.000 C 
ATOM      6  C   UNL     1      11.505 -12.721  -2.444  0.00  0.00    +0.000 C 
ATOM      7  C   UNL     1      11.725 -13.917  -0.195  0.00  0.00    +0.000 C 
ATOM      8  C   UNL     1      12.321 -12.911  -1.159  0.00  0.00    +0.000 C 
ENDROOT
BRANCH   6  10
ATOM      9  O   UNL     1      11.491  -9.799  -2.377  0.00  0.00    +0.000 OA
ATOM     10  N   UNL     1      11.957 -11.836  -3.387  0.00  0.00    +0.000 N 
ATOM     11  C   UNL     1      11.927 -10.466  -3.303  0.00  0.00    +0.000 C 
ATOM     12  H   UNL     1      12.349 -12.259  -4.226  0.00  0.00    +0.000 HD
BRANCH  11  14
ATOM     13  C   UNL     1      12.937  -9.219  -5.407  0.00  0.00    +0.000 C 
ATOM     14  C   UNL     1      12.478  -9.779  -4.448  0.00  0.00    +0.000 C 
BRANCH  13  15
ATOM     15  C   UNL     1      13.473  -8.564  -6.542  0.00  0.00    +0.000 C 
ATOM     16  C   UNL     1      14.728  -9.121  -7.153  0.00  0.00    +0.000 C 
ATOM     17  C   UNL     1      12.946  -7.391  -7.118  0.00  0.00    +0.000 C 
ATOM     18  C   UNL     1      12.427  -6.220  -7.705  0.00  0.00    +0.000 C 
ATOM     19  C   UNL     1      11.005  -5.858  -7.391  0.00  0.00    +0.000 C 
ATOM     20  C   UNL     1      13.154  -5.357  -8.542  0.00  0.00    +0.000 C 
ATOM     21  C   UNL     1      13.822  -4.561  -9.305  0.00  0.00    +0.000 C 
ATOM     22  C   UNL     1      13.860  -4.816 -10.780  0.00  0.00    +0.000 C 
ATOM     23  C   UNL     1      14.807  -3.616  -8.690  0.00  0.00    +0.000 C 
ENDBRANCH  13  15
ENDBRANCH  11  14
ENDBRANCH   6  10
BRANCH   3  24
ATOM     24  O   UNL     1       9.727 -15.681  -2.372  0.00  0.00    +0.000 OA
ATOM     25  H   UNL     1       8.884 -16.117  -2.159  0.00  0.00    +0.000 HD
ENDBRANCH   3  24
BRANCH   3  26
ATOM     26  C   UNL     1       8.325 -14.063  -1.381  0.00  0.00    +0.000 C 
ATOM     27  C   UNL     1       6.883 -13.676  -1.041  0.00  0.00    +0.000 C 
BRANCH  27  28
ATOM     28  C   UNL     1       5.440 -13.290  -0.704  0.00  0.00    +0.000 C 
ATOM     29  C   UNL     1       3.996 -12.907  -0.365  0.00  0.00    +0.000 C 
BRANCH  29  31
ATOM     30  O   UNL     1       2.235 -12.420   1.092  0.00  0.00    +0.000 OA
ATOM     31  C   UNL     1       2.647 -12.548  -0.048  0.00  0.00    +0.000 C 
BRANCH  31  32
ATOM     32  O   UNL     1       1.863 -12.362  -1.125  0.00  0.00    +0.000 OA
ATOM     33  H   UNL     1       2.356 -12.801  -1.848  0.00  0.00    +0.000 HD
ENDBRANCH  31  32
ENDBRANCH  29  31
ENDBRANCH  27  28
ENDBRANCH   3  26
TORSDOF 8
ENDMDL
MODEL 9
REMARK VINA RESULT:      -5.1     16.739     20.877
REMARK  Name = 122178712_SalternamideA.pdbqt.pdb
REMARK  8 active torsions:
REMARK  status: ('A' for Active; 'I' for Inactive)
REMARK    1  A    between atoms: C_3  and  O_24
REMARK    2  A    between atoms: C_3  and  C_26
REMARK    3  A    between atoms: C_6  and  N_10
REMARK    4  A    between atoms: C_11  and  C_14
REMARK    5  A    between atoms: C_13  and  C_15
REMARK    6  A    between atoms: C_27  and  C_28
REMARK    7  A    between atoms: C_29  and  C_31
REMARK    8  A    between atoms: C_31  and  O_32
REMARK                            x       y       z     vdW  Elec       q    Type
REMARK                         _______ _______ _______ _____ _____    ______ ____
ROOT
ATOM      1 CL   UNL     1       9.362   9.223 -10.928  0.00  0.00    +0.000 Cl
ATOM      2  O   UNL     1       9.937   8.278  -7.975  0.00  0.00    +0.000 OA
ATOM      3  C   UNL     1      11.936  11.881  -9.231  0.00  0.00    +0.000 C 
ATOM      4  C   UNL     1      11.917  11.178  -7.938  0.00  0.00    +0.000 C 
ATOM      5  C   UNL     1      11.052  10.974  -9.981  0.00  0.00    +0.000 C 
ATOM      6  C   UNL     1      11.391  10.109  -7.413  0.00  0.00    +0.000 C 
ATOM      7  C   UNL     1      10.402   9.869  -9.758  0.00  0.00    +0.000 C 
ATOM      8  C   UNL     1      10.503   9.293  -8.359  0.00  0.00    +0.000 C 
ENDROOT
BRANCH   6  10
ATOM      9  O   UNL     1      13.658   8.698  -6.221  0.00  0.00    +0.000 OA
ATOM     10  N   UNL     1      11.554   9.675  -6.123  0.00  0.00    +0.000 N 
ATOM     11  C   UNL     1      12.645   9.015  -5.614  0.00  0.00    +0.000 C 
ATOM     12  H   UNL     1      10.774   9.870  -5.498  0.00  0.00    +0.000 HD
BRANCH  11  14
ATOM     13  C   UNL     1      12.477   8.388  -3.050  0.00  0.00    +0.000 C 
ATOM     14  C   UNL     1      12.548   8.678  -4.213  0.00  0.00    +0.000 C 
BRANCH  13  15
ATOM     15  C   UNL     1      12.401   8.045  -1.677  0.00  0.00    +0.000 C 
ATOM     16  C   UNL     1      13.467   8.569  -0.757  0.00  0.00    +0.000 C 
ATOM     17  C   UNL     1      11.424   7.202  -1.112  0.00  0.00    +0.000 C 
ATOM     18  C   UNL     1      10.451   6.363  -0.533  0.00  0.00    +0.000 C 
ATOM     19  C   UNL     1       9.182   6.139  -1.302  0.00  0.00    +0.000 C 
ATOM     20  C   UNL     1      10.596   5.704   0.699  0.00  0.00    +0.000 C 
ATOM     21  C   UNL     1      10.730   5.093   1.826  0.00  0.00    +0.000 C 
ATOM     22  C   UNL     1      10.323   5.784   3.090  0.00  0.00    +0.000 C 
ATOM     23  C   UNL     1      11.587   3.868   1.895  0.00  0.00    +0.000 C 
ENDBRANCH  13  15
ENDBRANCH  11  14
ENDBRANCH   6  10
BRANCH   3  24
ATOM     24  O   UNL     1      13.237  11.820  -9.778  0.00  0.00    +0.000 OA
ATOM     25  H   UNL     1      13.549  10.912  -9.622  0.00  0.00    +0.000 HD
ENDBRANCH   3  24
BRANCH   3  26
ATOM     26  C   UNL     1      11.470  13.261  -9.174  0.00  0.00    +0.000 C 
ATOM     27  C   UNL     1      10.975  14.709  -9.112  0.00  0.00    +0.000 C 
BRANCH  27  28
ATOM     28  C   UNL     1      10.477  16.156  -9.049  0.00  0.00    +0.000 C 
ATOM     29  C   UNL     1       9.980  17.603  -8.988  0.00  0.00    +0.000 C 
BRANCH  29  31
ATOM     30  O   UNL     1       8.857  19.404  -8.009  0.00  0.00    +0.000 OA
ATOM     31  C   UNL     1       9.515  18.956  -8.932  0.00  0.00    +0.000 C 
BRANCH  31  32
ATOM     32  O   UNL     1       9.867  19.700  -9.996  0.00  0.00    +0.000 OA
ATOM     33  H   UNL     1       9.412  20.553  -9.841  0.00  0.00    +0.000 HD
ENDBRANCH  31  32
ENDBRANCH  29  31
ENDBRANCH  27  28
ENDBRANCH   3  26
TORSDOF 8
ENDMDL
