MODEL 1
REMARK VINA RESULT:      -5.1      0.000      0.000
REMARK  Name = 122180587_TripolinolateA.pdbqt.pdb
REMARK  9 active torsions:
REMARK  status: ('A' for Active; 'I' for Inactive)
REMARK    1  A    between atoms: C_1  and  O_16
REMARK    2  A    between atoms: C_2  and  O_7
REMARK    3  A    between atoms: C_3  and  C_9
REMARK    4  A    between atoms: C_10  and  C_11
REMARK    5  A    between atoms: C_11  and  O_12
REMARK    6  A    between atoms: O_12  and  C_14
REMARK    7  A    between atoms: O_16  and  C_18
REMARK    8  A    between atoms: C_18  and  C_19
REMARK    9  A    between atoms: C_19  and  C_21
REMARK                            x       y       z     vdW  Elec       q    Type
REMARK                         _______ _______ _______ _____ _____    ______ ____
ROOT
ATOM      1  C   UNL     1     -13.361   5.760  -9.932  0.00  0.00    +0.000 A 
ATOM      2  C   UNL     1     -14.021   4.561 -10.224  0.00  0.00    +0.000 A 
ATOM      3  C   UNL     1     -14.154   5.266 -12.541  0.00  0.00    +0.000 A 
ATOM      4  C   UNL     1     -13.124   6.720 -10.917  0.00  0.00    +0.000 A 
ATOM      5  C   UNL     1     -14.410   4.324 -11.545  0.00  0.00    +0.000 A 
ATOM      6  C   UNL     1     -13.515   6.464 -12.228  0.00  0.00    +0.000 A 
ENDROOT
BRANCH   2   7
ATOM      7  O   UNL     1     -14.259   3.703  -9.180  0.00  0.00    +0.000 OA
ATOM      8  C   UNL     1     -15.290   2.777  -9.379  0.00  0.00    +0.000 C 
ENDBRANCH   2   7
BRANCH   3   9
ATOM      9  C   UNL     1     -14.554   5.004 -13.885  0.00  0.00    +0.000 C 
ATOM     10  C   UNL     1     -14.891   4.785 -15.017  0.00  0.00    +0.000 C 
BRANCH  10  11
ATOM     11  C   UNL     1     -15.323   4.510 -16.460  0.00  0.00    +0.000 C 
BRANCH  11  12
ATOM     12  O   UNL     1     -15.697   4.269 -17.715  0.00  0.00    +0.000 OA
BRANCH  12  14
ATOM     13  O   UNL     1     -14.032   3.289 -19.033  0.00  0.00    +0.000 OA
ATOM     14  C   UNL     1     -14.692   4.221 -18.612  0.00  0.00    +0.000 C 
ATOM     15  C   UNL     1     -14.321   5.544 -19.193  0.00  0.00    +0.000 C 
ENDBRANCH  12  14
ENDBRANCH  11  12
ENDBRANCH  10  11
ENDBRANCH   3   9
BRANCH   1  16
ATOM     16  O   UNL     1     -13.003   6.054  -8.609  0.00  0.00    +0.000 OA
BRANCH  16  18
ATOM     17  O   UNL     1     -10.852   5.172  -8.674  0.00  0.00    +0.000 OA
ATOM     18  C   UNL     1     -11.629   6.079  -8.402  0.00  0.00    +0.000 C 
BRANCH  18  19
ATOM     19  C   UNL     1     -11.216   7.362  -7.782  0.00  0.00    +0.000 C 
ATOM     20  C   UNL     1      -9.871   7.569  -7.099  0.00  0.00    +0.000 C 
BRANCH  19  21
ATOM     21  C   UNL     1     -12.108   8.467  -7.825  0.00  0.00    +0.000 C 
ATOM     22  C   UNL     1     -13.069   9.670  -7.869  0.00  0.00    +0.000 C 
ENDBRANCH  19  21
ENDBRANCH  18  19
ENDBRANCH  16  18
ENDBRANCH   1  16
TORSDOF 9
ENDMDL
MODEL 2
REMARK VINA RESULT:      -4.9     19.139     23.630
REMARK  Name = 122180587_TripolinolateA.pdbqt.pdb
REMARK  9 active torsions:
REMARK  status: ('A' for Active; 'I' for Inactive)
REMARK    1  A    between atoms: C_1  and  O_16
REMARK    2  A    between atoms: C_2  and  O_7
REMARK    3  A    between atoms: C_3  and  C_9
REMARK    4  A    between atoms: C_10  and  C_11
REMARK    5  A    between atoms: C_11  and  O_12
REMARK    6  A    between atoms: O_12  and  C_14
REMARK    7  A    between atoms: O_16  and  C_18
REMARK    8  A    between atoms: C_18  and  C_19
REMARK    9  A    between atoms: C_19  and  C_21
REMARK                            x       y       z     vdW  Elec       q    Type
REMARK                         _______ _______ _______ _____ _____    ______ ____
ROOT
ATOM      1  C   UNL     1       7.538   4.134  -1.010  0.00  0.00    +0.000 A 
ATOM      2  C   UNL     1       7.499   3.339   0.140  0.00  0.00    +0.000 A 
ATOM      3  C   UNL     1       5.086   3.587   0.161  0.00  0.00    +0.000 A 
ATOM      4  C   UNL     1       6.376   4.680  -1.558  0.00  0.00    +0.000 A 
ATOM      5  C   UNL     1       6.255   3.067   0.716  0.00  0.00    +0.000 A 
ATOM      6  C   UNL     1       5.146   4.395  -0.973  0.00  0.00    +0.000 A 
ENDROOT
BRANCH   2   7
ATOM      7  O   UNL     1       8.698   2.893   0.638  0.00  0.00    +0.000 OA
ATOM      8  C   UNL     1       9.124   3.498   1.827  0.00  0.00    +0.000 C 
ENDBRANCH   2   7
BRANCH   3   9
ATOM      9  C   UNL     1       3.826   3.295   0.760  0.00  0.00    +0.000 C 
ATOM     10  C   UNL     1       2.764   3.048   1.264  0.00  0.00    +0.000 C 
BRANCH  10  11
ATOM     11  C   UNL     1       1.408   2.731   1.903  0.00  0.00    +0.000 C 
BRANCH  11  12
ATOM     12  O   UNL     1       0.231   2.455   2.459  0.00  0.00    +0.000 OA
BRANCH  12  14
ATOM     13  O   UNL     1      -1.449   0.868   2.102  0.00  0.00    +0.000 OA
ATOM     14  C   UNL     1      -0.552   1.614   1.755  0.00  0.00    +0.000 C 
ATOM     15  C   UNL     1      -0.271   1.592   0.290  0.00  0.00    +0.000 C 
ENDBRANCH  12  14
ENDBRANCH  11  12
ENDBRANCH  10  11
ENDBRANCH   3   9
BRANCH   1  16
ATOM     16  O   UNL     1       8.772   4.469  -1.585  0.00  0.00    +0.000 OA
BRANCH  16  18
ATOM     17  O   UNL     1       8.516   6.274  -3.029  0.00  0.00    +0.000 OA
ATOM     18  C   UNL     1       8.864   5.806  -1.952  0.00  0.00    +0.000 C 
BRANCH  18  19
ATOM     19  C   UNL     1       9.464   6.609  -0.858  0.00  0.00    +0.000 C 
ATOM     20  C   UNL     1       8.721   6.970   0.421  0.00  0.00    +0.000 C 
BRANCH  19  21
ATOM     21  C   UNL     1      10.801   7.067  -0.993  0.00  0.00    +0.000 C 
ATOM     22  C   UNL     1      12.249   7.570  -1.145  0.00  0.00    +0.000 C 
ENDBRANCH  19  21
ENDBRANCH  18  19
ENDBRANCH  16  18
ENDBRANCH   1  16
TORSDOF 9
ENDMDL
MODEL 3
REMARK VINA RESULT:      -4.9     20.218     25.114
REMARK  Name = 122180587_TripolinolateA.pdbqt.pdb
REMARK  9 active torsions:
REMARK  status: ('A' for Active; 'I' for Inactive)
REMARK    1  A    between atoms: C_1  and  O_16
REMARK    2  A    between atoms: C_2  and  O_7
REMARK    3  A    between atoms: C_3  and  C_9
REMARK    4  A    between atoms: C_10  and  C_11
REMARK    5  A    between atoms: C_11  and  O_12
REMARK    6  A    between atoms: O_12  and  C_14
REMARK    7  A    between atoms: O_16  and  C_18
REMARK    8  A    between atoms: C_18  and  C_19
REMARK    9  A    between atoms: C_19  and  C_21
REMARK                            x       y       z     vdW  Elec       q    Type
REMARK                         _______ _______ _______ _____ _____    ______ ____
ROOT
ATOM      1  C   UNL     1       6.423   3.498  -0.185  0.00  0.00    +0.000 A 
ATOM      2  C   UNL     1       7.682   3.119   0.291  0.00  0.00    +0.000 A 
ATOM      3  C   UNL     1       8.587   5.169  -0.639  0.00  0.00    +0.000 A 
ATOM      4  C   UNL     1       6.241   4.679  -0.907  0.00  0.00    +0.000 A 
ATOM      5  C   UNL     1       8.763   3.975   0.059  0.00  0.00    +0.000 A 
ATOM      6  C   UNL     1       7.328   5.520  -1.125  0.00  0.00    +0.000 A 
ENDROOT
BRANCH   2   7
ATOM      7  O   UNL     1       7.773   1.915   0.942  0.00  0.00    +0.000 OA
ATOM      8  C   UNL     1       9.033   1.603   1.468  0.00  0.00    +0.000 C 
ENDBRANCH   2   7
BRANCH   3   9
ATOM      9  C   UNL     1       9.700   6.032  -0.862  0.00  0.00    +0.000 C 
ATOM     10  C   UNL     1      10.638   6.758  -1.051  0.00  0.00    +0.000 C 
BRANCH  10  11
ATOM     11  C   UNL     1      11.836   7.681  -1.295  0.00  0.00    +0.000 C 
BRANCH  11  12
ATOM     12  O   UNL     1      12.876   8.484  -1.506  0.00  0.00    +0.000 OA
BRANCH  12  14
ATOM     13  O   UNL     1      14.463   7.734  -3.051  0.00  0.00    +0.000 OA
ATOM     14  C   UNL     1      13.469   8.348  -2.708  0.00  0.00    +0.000 C 
ATOM     15  C   UNL     1      12.789   9.077  -3.818  0.00  0.00    +0.000 C 
ENDBRANCH  12  14
ENDBRANCH  11  12
ENDBRANCH  10  11
ENDBRANCH   3   9
BRANCH   1  16
ATOM     16  O   UNL     1       5.327   2.641  -0.016  0.00  0.00    +0.000 OA
BRANCH  16  18
ATOM     17  O   UNL     1       4.796   3.762   1.952  0.00  0.00    +0.000 OA
ATOM     18  C   UNL     1       4.494   3.011   1.033  0.00  0.00    +0.000 C 
BRANCH  18  19
ATOM     19  C   UNL     1       3.168   2.355   0.904  0.00  0.00    +0.000 C 
ATOM     20  C   UNL     1       2.947   0.863   1.119  0.00  0.00    +0.000 C 
BRANCH  19  21
ATOM     21  C   UNL     1       2.037   3.146   0.571  0.00  0.00    +0.000 C 
ATOM     22  C   UNL     1       0.809   3.998   0.203  0.00  0.00    +0.000 C 
ENDBRANCH  19  21
ENDBRANCH  18  19
ENDBRANCH  16  18
ENDBRANCH   1  16
TORSDOF 9
ENDMDL
MODEL 4
REMARK VINA RESULT:      -4.7     10.818     14.707
REMARK  Name = 122180587_TripolinolateA.pdbqt.pdb
REMARK  9 active torsions:
REMARK  status: ('A' for Active; 'I' for Inactive)
REMARK    1  A    between atoms: C_1  and  O_16
REMARK    2  A    between atoms: C_2  and  O_7
REMARK    3  A    between atoms: C_3  and  C_9
REMARK    4  A    between atoms: C_10  and  C_11
REMARK    5  A    between atoms: C_11  and  O_12
REMARK    6  A    between atoms: O_12  and  C_14
REMARK    7  A    between atoms: O_16  and  C_18
REMARK    8  A    between atoms: C_18  and  C_19
REMARK    9  A    between atoms: C_19  and  C_21
REMARK                            x       y       z     vdW  Elec       q    Type
REMARK                         _______ _______ _______ _____ _____    ______ ____
ROOT
ATOM      1  C   UNL     1      -9.938  -2.259 -20.023  0.00  0.00    +0.000 A 
ATOM      2  C   UNL     1      -9.503  -2.558 -18.727  0.00  0.00    +0.000 A 
ATOM      3  C   UNL     1      -7.249  -1.979 -19.413  0.00  0.00    +0.000 A 
ATOM      4  C   UNL     1      -9.045  -1.856 -21.017  0.00  0.00    +0.000 A 
ATOM      5  C   UNL     1      -8.145  -2.407 -18.434  0.00  0.00    +0.000 A 
ATOM      6  C   UNL     1      -7.697  -1.707 -20.705  0.00  0.00    +0.000 A 
ENDROOT
BRANCH   2   7
ATOM      7  O   UNL     1     -10.444  -3.001 -17.833  0.00  0.00    +0.000 OA
ATOM      8  C   UNL     1     -10.511  -2.297 -16.624  0.00  0.00    +0.000 C 
ENDBRANCH   2   7
BRANCH   3   9
ATOM      9  C   UNL     1      -5.868  -1.826 -19.094  0.00  0.00    +0.000 C 
ATOM     10  C   UNL     1      -4.704  -1.696 -18.826  0.00  0.00    +0.000 C 
BRANCH  10  11
ATOM     11  C   UNL     1      -3.219  -1.530 -18.488  0.00  0.00    +0.000 C 
BRANCH  11  12
ATOM     12  O   UNL     1      -1.929  -1.384 -18.194  0.00  0.00    +0.000 OA
BRANCH  12  14
ATOM     13  O   UNL     1      -0.233   0.123 -18.760  0.00  0.00    +0.000 OA
ATOM     14  C   UNL     1      -1.388  -0.206 -18.563  0.00  0.00    +0.000 C 
ATOM     15  C   UNL     1      -2.379   0.890 -18.767  0.00  0.00    +0.000 C 
ENDBRANCH  12  14
ENDBRANCH  11  12
ENDBRANCH  10  11
ENDBRANCH   3   9
BRANCH   1  16
ATOM     16  O   UNL     1     -11.283  -2.449 -20.367  0.00  0.00    +0.000 OA
BRANCH  16  18
ATOM     17  O   UNL     1     -11.477  -4.759 -20.552  0.00  0.00    +0.000 OA
ATOM     18  C   UNL     1     -11.517  -3.639 -21.045  0.00  0.00    +0.000 C 
BRANCH  18  19
ATOM     19  C   UNL     1     -11.810  -3.377 -22.476  0.00  0.00    +0.000 C 
ATOM     20  C   UNL     1     -13.123  -2.780 -22.967  0.00  0.00    +0.000 C 
BRANCH  19  21
ATOM     21  C   UNL     1     -10.825  -3.687 -23.450  0.00  0.00    +0.000 C 
ATOM     22  C   UNL     1      -9.761  -4.029 -24.510  0.00  0.00    +0.000 C 
ENDBRANCH  19  21
ENDBRANCH  18  19
ENDBRANCH  16  18
ENDBRANCH   1  16
TORSDOF 9
ENDMDL
MODEL 5
REMARK VINA RESULT:      -4.4     20.207     22.387
REMARK  Name = 122180587_TripolinolateA.pdbqt.pdb
REMARK  9 active torsions:
REMARK  status: ('A' for Active; 'I' for Inactive)
REMARK    1  A    between atoms: C_1  and  O_16
REMARK    2  A    between atoms: C_2  and  O_7
REMARK    3  A    between atoms: C_3  and  C_9
REMARK    4  A    between atoms: C_10  and  C_11
REMARK    5  A    between atoms: C_11  and  O_12
REMARK    6  A    between atoms: O_12  and  C_14
REMARK    7  A    between atoms: O_16  and  C_18
REMARK    8  A    between atoms: C_18  and  C_19
REMARK    9  A    between atoms: C_19  and  C_21
REMARK                            x       y       z     vdW  Elec       q    Type
REMARK                         _______ _______ _______ _____ _____    ______ ____
ROOT
ATOM      1  C   UNL     1       3.421  -2.115 -20.102  0.00  0.00    +0.000 A 
ATOM      2  C   UNL     1       3.199  -0.735 -20.050  0.00  0.00    +0.000 A 
ATOM      3  C   UNL     1       5.522  -0.443 -19.415  0.00  0.00    +0.000 A 
ATOM      4  C   UNL     1       4.665  -2.666 -19.786  0.00  0.00    +0.000 A 
ATOM      5  C   UNL     1       4.269   0.095 -19.707  0.00  0.00    +0.000 A 
ATOM      6  C   UNL     1       5.719  -1.823 -19.450  0.00  0.00    +0.000 A 
ENDROOT
BRANCH   2   7
ATOM      7  O   UNL     1       1.930  -0.291 -20.324  0.00  0.00    +0.000 OA
ATOM      8  C   UNL     1       1.528   0.859 -19.632  0.00  0.00    +0.000 C 
ENDBRANCH   2   7
BRANCH   3   9
ATOM      9  C   UNL     1       6.603   0.421 -19.071  0.00  0.00    +0.000 C 
ATOM     10  C   UNL     1       7.513   1.149 -18.783  0.00  0.00    +0.000 C 
BRANCH  10  11
ATOM     11  C   UNL     1       8.674   2.081 -18.419  0.00  0.00    +0.000 C 
BRANCH  11  12
ATOM     12  O   UNL     1       9.683   2.890 -18.105  0.00  0.00    +0.000 OA
BRANCH  12  14
ATOM     13  O   UNL     1      11.919   2.238 -17.898  0.00  0.00    +0.000 OA
ATOM     14  C   UNL     1      10.752   2.283 -17.554  0.00  0.00    +0.000 C 
ATOM     15  C   UNL     1      10.456   1.530 -16.300  0.00  0.00    +0.000 C 
ENDBRANCH  12  14
ENDBRANCH  11  12
ENDBRANCH  10  11
ENDBRANCH   3   9
BRANCH   1  16
ATOM     16  O   UNL     1       2.359  -2.982 -20.392  0.00  0.00    +0.000 OA
BRANCH  16  18
ATOM     17  O   UNL     1       1.896  -3.164 -18.120  0.00  0.00    +0.000 OA
ATOM     18  C   UNL     1       1.821  -3.591 -19.265  0.00  0.00    +0.000 C 
BRANCH  18  19
ATOM     19  C   UNL     1       1.143  -4.860 -19.630  0.00  0.00    +0.000 C 
ATOM     20  C   UNL     1      -0.205  -5.284 -19.063  0.00  0.00    +0.000 C 
BRANCH  19  21
ATOM     21  C   UNL     1       1.769  -5.734 -20.558  0.00  0.00    +0.000 C 
ATOM     22  C   UNL     1       2.447  -6.675 -21.572  0.00  0.00    +0.000 C 
ENDBRANCH  19  21
ENDBRANCH  18  19
ENDBRANCH  16  18
ENDBRANCH   1  16
TORSDOF 9
ENDMDL
MODEL 6
REMARK VINA RESULT:      -4.4     11.371     13.725
REMARK  Name = 122180587_TripolinolateA.pdbqt.pdb
REMARK  9 active torsions:
REMARK  status: ('A' for Active; 'I' for Inactive)
REMARK    1  A    between atoms: C_1  and  O_16
REMARK    2  A    between atoms: C_2  and  O_7
REMARK    3  A    between atoms: C_3  and  C_9
REMARK    4  A    between atoms: C_10  and  C_11
REMARK    5  A    between atoms: C_11  and  O_12
REMARK    6  A    between atoms: O_12  and  C_14
REMARK    7  A    between atoms: O_16  and  C_18
REMARK    8  A    between atoms: C_18  and  C_19
REMARK    9  A    between atoms: C_19  and  C_21
REMARK                            x       y       z     vdW  Elec       q    Type
REMARK                         _______ _______ _______ _____ _____    ______ ____
ROOT
ATOM      1  C   UNL     1     -10.049  -1.328 -20.208  0.00  0.00    +0.000 A 
ATOM      2  C   UNL     1      -9.640  -0.884 -21.470  0.00  0.00    +0.000 A 
ATOM      3  C   UNL     1     -11.385  -2.250 -22.454  0.00  0.00    +0.000 A 
ATOM      4  C   UNL     1     -11.091  -2.245 -20.061  0.00  0.00    +0.000 A 
ATOM      5  C   UNL     1     -10.326  -1.353 -22.592  0.00  0.00    +0.000 A 
ATOM      6  C   UNL     1     -11.765  -2.699 -21.190  0.00  0.00    +0.000 A 
ENDROOT
BRANCH   2   7
ATOM      7  O   UNL     1      -8.570  -0.025 -21.519  0.00  0.00    +0.000 OA
ATOM      8  C   UNL     1      -7.370  -0.576 -21.984  0.00  0.00    +0.000 C 
ENDBRANCH   2   7
BRANCH   3   9
ATOM      9  C   UNL     1     -12.077  -2.715 -23.611  0.00  0.00    +0.000 C 
ATOM     10  C   UNL     1     -12.661  -3.105 -24.585  0.00  0.00    +0.000 C 
BRANCH  10  11
ATOM     11  C   UNL     1     -13.410  -3.601 -25.826  0.00  0.00    +0.000 C 
BRANCH  11  12
ATOM     12  O   UNL     1     -14.062  -4.031 -26.904  0.00  0.00    +0.000 OA
BRANCH  12  14
ATOM     13  O   UNL     1     -14.507  -6.209 -26.178  0.00  0.00    +0.000 OA
ATOM     14  C   UNL     1     -14.188  -5.370 -26.999  0.00  0.00    +0.000 C 
ATOM     15  C   UNL     1     -13.882  -5.923 -28.351  0.00  0.00    +0.000 C 
ENDBRANCH  12  14
ENDBRANCH  11  12
ENDBRANCH  10  11
ENDBRANCH   3   9
BRANCH   1  16
ATOM     16  O   UNL     1      -9.350  -0.918 -19.064  0.00  0.00    +0.000 OA
BRANCH  16  18
ATOM     17  O   UNL     1      -9.727  -2.134 -17.118  0.00  0.00    +0.000 OA
ATOM     18  C   UNL     1      -9.116  -1.949 -18.163  0.00  0.00    +0.000 C 
BRANCH  18  19
ATOM     19  C   UNL     1      -7.997  -2.806 -18.628  0.00  0.00    +0.000 C 
ATOM     20  C   UNL     1      -8.174  -4.254 -19.063  0.00  0.00    +0.000 C 
BRANCH  19  21
ATOM     21  C   UNL     1      -6.687  -2.260 -18.681  0.00  0.00    +0.000 C 
ATOM     22  C   UNL     1      -5.264  -1.672 -18.732  0.00  0.00    +0.000 C 
ENDBRANCH  19  21
ENDBRANCH  18  19
ENDBRANCH  16  18
ENDBRANCH   1  16
TORSDOF 9
ENDMDL
MODEL 7
REMARK VINA RESULT:      -4.2      2.069      2.800
REMARK  Name = 122180587_TripolinolateA.pdbqt.pdb
REMARK  9 active torsions:
REMARK  status: ('A' for Active; 'I' for Inactive)
REMARK    1  A    between atoms: C_1  and  O_16
REMARK    2  A    between atoms: C_2  and  O_7
REMARK    3  A    between atoms: C_3  and  C_9
REMARK    4  A    between atoms: C_10  and  C_11
REMARK    5  A    between atoms: C_11  and  O_12
REMARK    6  A    between atoms: O_12  and  C_14
REMARK    7  A    between atoms: O_16  and  C_18
REMARK    8  A    between atoms: C_18  and  C_19
REMARK    9  A    between atoms: C_19  and  C_21
REMARK                            x       y       z     vdW  Elec       q    Type
REMARK                         _______ _______ _______ _____ _____    ______ ____
ROOT
ATOM      1  C   UNL     1     -12.431   7.888  -9.622  0.00  0.00    +0.000 A 
ATOM      2  C   UNL     1     -11.896   6.657 -10.017  0.00  0.00    +0.000 A 
ATOM      3  C   UNL     1     -13.470   6.630 -11.862  0.00  0.00    +0.000 A 
ATOM      4  C   UNL     1     -13.493   8.476 -10.311  0.00  0.00    +0.000 A 
ATOM      5  C   UNL     1     -12.426   6.038 -11.152  0.00  0.00    +0.000 A 
ATOM      6  C   UNL     1     -14.006   7.846 -11.442  0.00  0.00    +0.000 A 
ENDROOT
BRANCH   2   7
ATOM      7  O   UNL     1     -10.891   6.131  -9.245  0.00  0.00    +0.000 OA
ATOM      8  C   UNL     1     -11.135   4.856  -8.719  0.00  0.00    +0.000 C 
ENDBRANCH   2   7
BRANCH   3   9
ATOM      9  C   UNL     1     -13.995   5.985 -13.021  0.00  0.00    +0.000 C 
ATOM     10  C   UNL     1     -14.436   5.441 -13.996  0.00  0.00    +0.000 C 
BRANCH  10  11
ATOM     11  C   UNL     1     -14.995   4.745 -15.242  0.00  0.00    +0.000 C 
BRANCH  11  12
ATOM     12  O   UNL     1     -15.482   4.143 -16.324  0.00  0.00    +0.000 OA
BRANCH  12  14
ATOM     13  O   UNL     1     -17.247   5.515 -17.008  0.00  0.00    +0.000 OA
ATOM     14  C   UNL     1     -16.185   4.938 -17.154  0.00  0.00    +0.000 C 
ATOM     15  C   UNL     1     -15.552   5.151 -18.487  0.00  0.00    +0.000 C 
ENDBRANCH  12  14
ENDBRANCH  11  12
ENDBRANCH  10  11
ENDBRANCH   3   9
BRANCH   1  16
ATOM     16  O   UNL     1     -11.959   8.513  -8.460  0.00  0.00    +0.000 OA
BRANCH  16  18
ATOM     17  O   UNL     1     -13.292   7.288  -6.999  0.00  0.00    +0.000 OA
ATOM     18  C   UNL     1     -12.798   8.348  -7.365  0.00  0.00    +0.000 C 
BRANCH  18  19
ATOM     19  C   UNL     1     -13.039   9.647  -6.690  0.00  0.00    +0.000 C 
ATOM     20  C   UNL     1     -12.842   9.865  -5.195  0.00  0.00    +0.000 C 
BRANCH  19  21
ATOM     21  C   UNL     1     -13.470  10.757  -7.463  0.00  0.00    +0.000 C 
ATOM     22  C   UNL     1     -13.931  11.965  -8.300  0.00  0.00    +0.000 C 
ENDBRANCH  19  21
ENDBRANCH  18  19
ENDBRANCH  16  18
ENDBRANCH   1  16
TORSDOF 9
ENDMDL
MODEL 8
REMARK VINA RESULT:      -4.1     26.700     29.481
REMARK  Name = 122180587_TripolinolateA.pdbqt.pdb
REMARK  9 active torsions:
REMARK  status: ('A' for Active; 'I' for Inactive)
REMARK    1  A    between atoms: C_1  and  O_16
REMARK    2  A    between atoms: C_2  and  O_7
REMARK    3  A    between atoms: C_3  and  C_9
REMARK    4  A    between atoms: C_10  and  C_11
REMARK    5  A    between atoms: C_11  and  O_12
REMARK    6  A    between atoms: O_12  and  C_14
REMARK    7  A    between atoms: O_16  and  C_18
REMARK    8  A    between atoms: C_18  and  C_19
REMARK    9  A    between atoms: C_19  and  C_21
REMARK                            x       y       z     vdW  Elec       q    Type
REMARK                         _______ _______ _______ _____ _____    ______ ____
ROOT
ATOM      1  C   UNL     1      12.533  10.469 -16.668  0.00  0.00    +0.000 A 
ATOM      2  C   UNL     1      12.795   9.708 -15.524  0.00  0.00    +0.000 A 
ATOM      3  C   UNL     1      15.123   9.603 -16.197  0.00  0.00    +0.000 A 
ATOM      4  C   UNL     1      13.539  10.773 -17.588  0.00  0.00    +0.000 A 
ATOM      5  C   UNL     1      14.107   9.283 -15.297  0.00  0.00    +0.000 A 
ATOM      6  C   UNL     1      14.840  10.344 -17.343  0.00  0.00    +0.000 A 
ENDROOT
BRANCH   2   7
ATOM      7  O   UNL     1      11.733   9.414 -14.708  0.00  0.00    +0.000 OA
ATOM      8  C   UNL     1      11.256   8.099 -14.782  0.00  0.00    +0.000 C 
ENDBRANCH   2   7
BRANCH   3   9
ATOM      9  C   UNL     1      16.457   9.164 -15.946  0.00  0.00    +0.000 C 
ATOM     10  C   UNL     1      17.580   8.796 -15.734  0.00  0.00    +0.000 C 
BRANCH  10  11
ATOM     11  C   UNL     1      19.015   8.330 -15.467  0.00  0.00    +0.000 C 
BRANCH  11  12
ATOM     12  O   UNL     1      20.261   7.925 -15.232  0.00  0.00    +0.000 OA
BRANCH  12  14
ATOM     13  O   UNL     1      21.852   7.302 -16.828  0.00  0.00    +0.000 OA
ATOM     14  C   UNL     1      21.118   8.089 -16.259  0.00  0.00    +0.000 C 
ATOM     15  C   UNL     1      21.180   9.479 -16.795  0.00  0.00    +0.000 C 
ENDBRANCH  12  14
ENDBRANCH  11  12
ENDBRANCH  10  11
ENDBRANCH   3   9
BRANCH   1  16
ATOM     16  O   UNL     1      11.221  10.869 -16.955  0.00  0.00    +0.000 OA
BRANCH  16  18
ATOM     17  O   UNL     1      10.884  12.700 -18.350  0.00  0.00    +0.000 OA
ATOM     18  C   UNL     1      11.108  12.224 -17.244  0.00  0.00    +0.000 C 
BRANCH  18  19
ATOM     19  C   UNL     1      11.312  13.038 -16.020  0.00  0.00    +0.000 C 
ATOM     20  C   UNL     1      12.326  14.170 -15.925  0.00  0.00    +0.000 C 
BRANCH  19  21
ATOM     21  C   UNL     1      10.524  12.765 -14.871  0.00  0.00    +0.000 C 
ATOM     22  C   UNL     1       9.663  12.466 -13.629  0.00  0.00    +0.000 C 
ENDBRANCH  19  21
ENDBRANCH  18  19
ENDBRANCH  16  18
ENDBRANCH   1  16
TORSDOF 9
ENDMDL
MODEL 9
REMARK VINA RESULT:      -4.1     25.233     27.009
REMARK  Name = 122180587_TripolinolateA.pdbqt.pdb
REMARK  9 active torsions:
REMARK  status: ('A' for Active; 'I' for Inactive)
REMARK    1  A    between atoms: C_1  and  O_16
REMARK    2  A    between atoms: C_2  and  O_7
REMARK    3  A    between atoms: C_3  and  C_9
REMARK    4  A    between atoms: C_10  and  C_11
REMARK    5  A    between atoms: C_11  and  O_12
REMARK    6  A    between atoms: O_12  and  C_14
REMARK    7  A    between atoms: O_16  and  C_18
REMARK    8  A    between atoms: C_18  and  C_19
REMARK    9  A    between atoms: C_19  and  C_21
REMARK                            x       y       z     vdW  Elec       q    Type
REMARK                         _______ _______ _______ _____ _____    ______ ____
ROOT
ATOM      1  C   UNL     1       9.774   1.759 -19.162  0.00  0.00    +0.000 A 
ATOM      2  C   UNL     1      10.979   1.624 -19.859  0.00  0.00    +0.000 A 
ATOM      3  C   UNL     1      11.276  -0.543 -18.811  0.00  0.00    +0.000 A 
ATOM      4  C   UNL     1       9.331   0.777 -18.274  0.00  0.00    +0.000 A 
ATOM      5  C   UNL     1      11.723   0.455 -19.676  0.00  0.00    +0.000 A 
ATOM      6  C   UNL     1      10.083  -0.382 -18.108  0.00  0.00    +0.000 A 
ENDROOT
BRANCH   2   7
ATOM      7  O   UNL     1      11.360   2.666 -20.666  0.00  0.00    +0.000 OA
ATOM      8  C   UNL     1      11.876   2.307 -21.917  0.00  0.00    +0.000 C 
ENDBRANCH   2   7
BRANCH   3   9
ATOM      9  C   UNL     1      12.046  -1.732 -18.641  0.00  0.00    +0.000 C 
ATOM     10  C   UNL     1      12.694  -2.733 -18.496  0.00  0.00    +0.000 C 
BRANCH  10  11
ATOM     11  C   UNL     1      13.520  -4.008 -18.307  0.00  0.00    +0.000 C 
BRANCH  11  12
ATOM     12  O   UNL     1      14.239  -5.116 -18.140  0.00  0.00    +0.000 OA
BRANCH  12  14
ATOM     13  O   UNL     1      14.354  -6.058 -16.003  0.00  0.00    +0.000 OA
ATOM     14  C   UNL     1      14.712  -5.309 -16.893  0.00  0.00    +0.000 C 
ATOM     15  C   UNL     1      15.882  -4.454 -16.538  0.00  0.00    +0.000 C 
ENDBRANCH  12  14
ENDBRANCH  11  12
ENDBRANCH  10  11
ENDBRANCH   3   9
BRANCH   1  16
ATOM     16  O   UNL     1       9.028   2.940 -19.281  0.00  0.00    +0.000 OA
BRANCH  16  18
ATOM     17  O   UNL     1       6.747   2.884 -18.829  0.00  0.00    +0.000 OA
ATOM     18  C   UNL     1       7.692   2.719 -19.591  0.00  0.00    +0.000 C 
BRANCH  18  19
ATOM     19  C   UNL     1       7.552   2.233 -20.986  0.00  0.00    +0.000 C 
ATOM     20  C   UNL     1       8.144   2.954 -22.189  0.00  0.00    +0.000 C 
BRANCH  19  21
ATOM     21  C   UNL     1       6.837   1.030 -21.228  0.00  0.00    +0.000 C 
ATOM     22  C   UNL     1       6.066  -0.278 -21.485  0.00  0.00    +0.000 C 
ENDBRANCH  19  21
ENDBRANCH  18  19
ENDBRANCH  16  18
ENDBRANCH   1  16
TORSDOF 9
ENDMDL
