MODEL 1
REMARK VINA RESULT:      -6.8      0.000      0.000
REMARK  Name = 135423438_Nintedanib.pdbqt.pdb
REMARK  9 active torsions:
REMARK  status: ('A' for Active; 'I' for Inactive)
REMARK    1  A    between atoms: N_1  and  C_22
REMARK    2  A    between atoms: C_2  and  C_4
REMARK    3  A    between atoms: C_2  and  C_37
REMARK    4  A    between atoms: C_7  and  O_13
REMARK    5  A    between atoms: C_10  and  C_16
REMARK    6  A    between atoms: C_16  and  O_17
REMARK    7  A    between atoms: C_19  and  N_26
REMARK    8  A    between atoms: C_27  and  C_29
REMARK    9  A    between atoms: C_29  and  N_30
REMARK                            x       y       z     vdW  Elec       q    Type
REMARK                         _______ _______ _______ _____ _____    ______ ____
ROOT
ATOM      1  N   UNL     1      10.994  11.843 -15.271  0.00  0.00    +0.000 NA
ATOM      2  C   UNL     1      12.020  11.486 -14.553  0.00  0.00    +0.000 C 
ENDROOT
BRANCH   2   4
ATOM      3  N   UNL     1      12.056  12.402 -11.006  0.00  0.00    +0.000 N 
ATOM      4  C   UNL     1      11.885  11.627 -13.097  0.00  0.00    +0.000 A 
ATOM      5  C   UNL     1      11.211  10.726 -12.200  0.00  0.00    +0.000 A 
ATOM      6  C   UNL     1      11.334  11.238 -10.910  0.00  0.00    +0.000 A 
ATOM      7  C   UNL     1      12.399  12.650 -12.311  0.00  0.00    +0.000 A 
ATOM      8  C   UNL     1      10.499   9.521 -12.372  0.00  0.00    +0.000 A 
ATOM      9  C   UNL     1      10.790  10.611  -9.785  0.00  0.00    +0.000 A 
ATOM     10  C   UNL     1      10.092   9.413  -9.988  0.00  0.00    +0.000 A 
ATOM     11  C   UNL     1       9.947   8.877 -11.263  0.00  0.00    +0.000 A 
ATOM     12  H   UNL     1      12.298  12.982 -10.217  0.00  0.00    +0.000 HD
BRANCH   7  13
ATOM     13  O   UNL     1      13.117  13.717 -12.645  0.00  0.00    +0.000 OA
ATOM     14  H   UNL     1      14.059  13.486 -12.732  0.00  0.00    +0.000 HD
ENDBRANCH   7  13
BRANCH  10  16
ATOM     15  O   UNL     1       8.975   7.575  -8.986  0.00  0.00    +0.000 OA
ATOM     16  C   UNL     1       9.482   8.680  -8.858  0.00  0.00    +0.000 C 
BRANCH  16  17
ATOM     17  O   UNL     1       9.598   9.439  -7.732  0.00  0.00    +0.000 OA
ATOM     18  C   UNL     1      10.080   8.825  -6.564  0.00  0.00    +0.000 C 
ENDBRANCH  16  17
ENDBRANCH  10  16
ENDBRANCH   2   4
BRANCH   1  22
ATOM     19  C   UNL     1      11.251  11.655 -19.490  0.00  0.00    +0.000 A 
ATOM     20  C   UNL     1      11.328  12.870 -18.806  0.00  0.00    +0.000 A 
ATOM     21  C   UNL     1      11.084  10.497 -18.719  0.00  0.00    +0.000 A 
ATOM     22  C   UNL     1      11.040  11.776 -16.669  0.00  0.00    +0.000 A 
ATOM     23  C   UNL     1      11.235  12.937 -17.417  0.00  0.00    +0.000 A 
ATOM     24  C   UNL     1      10.990  10.550 -17.329  0.00  0.00    +0.000 A 
BRANCH  19  26
ATOM     25  O   UNL     1      13.700  11.343 -21.002  0.00  0.00    +0.000 OA
ATOM     26  N   UNL     1      11.340  11.582 -20.932  0.00  0.00    +0.000 N 
ATOM     27  C   UNL     1      12.606  11.429 -21.550  0.00  0.00    +0.000 C 
ATOM     28  C   UNL     1      10.062  11.685 -21.642  0.00  0.00    +0.000 C 
BRANCH  27  29
ATOM     29  C   UNL     1      12.616  11.372 -23.006  0.00  0.00    +0.000 C 
BRANCH  29  30
ATOM     30  N   UNL     1      12.595  11.319 -24.466  0.00  0.00    +0.000 N 
ATOM     31  N   UNL     1       9.559  10.181 -25.909  0.00  0.00    +0.000 N 
ATOM     32  C   UNL     1      12.117   9.960 -24.841  0.00  0.00    +0.000 C 
ATOM     33  C   UNL     1      11.365  12.039 -24.898  0.00  0.00    +0.000 C 
ATOM     34  C   UNL     1      10.785   9.460 -25.471  0.00  0.00    +0.000 C 
ATOM     35  C   UNL     1      10.032  11.538 -25.528  0.00  0.00    +0.000 C 
ATOM     36  C   UNL     1       8.501   9.823 -24.974  0.00  0.00    +0.000 C 
ENDBRANCH  29  30
ENDBRANCH  27  29
ENDBRANCH  19  26
ENDBRANCH   1  22
BRANCH   2  37
ATOM     37  C   UNL     1      13.287  10.962 -15.093  0.00  0.00    +0.000 A 
ATOM     38  C   UNL     1      14.209  11.843 -15.657  0.00  0.00    +0.000 A 
ATOM     39  C   UNL     1      13.554   9.597 -14.998  0.00  0.00    +0.000 A 
ATOM     40  C   UNL     1      15.414  11.344 -16.140  0.00  0.00    +0.000 A 
ATOM     41  C   UNL     1      14.762   9.109 -15.485  0.00  0.00    +0.000 A 
ATOM     42  C   UNL     1      15.690   9.980 -16.055  0.00  0.00    +0.000 A 
ENDBRANCH   2  37
TORSDOF 9
ENDMDL
MODEL 2
REMARK VINA RESULT:      -6.8     23.179     26.398
REMARK  Name = 135423438_Nintedanib.pdbqt.pdb
REMARK  9 active torsions:
REMARK  status: ('A' for Active; 'I' for Inactive)
REMARK    1  A    between atoms: N_1  and  C_22
REMARK    2  A    between atoms: C_2  and  C_4
REMARK    3  A    between atoms: C_2  and  C_37
REMARK    4  A    between atoms: C_7  and  O_13
REMARK    5  A    between atoms: C_10  and  C_16
REMARK    6  A    between atoms: C_16  and  O_17
REMARK    7  A    between atoms: C_19  and  N_26
REMARK    8  A    between atoms: C_27  and  C_29
REMARK    9  A    between atoms: C_29  and  N_30
REMARK                            x       y       z     vdW  Elec       q    Type
REMARK                         _______ _______ _______ _____ _____    ______ ____
ROOT
ATOM      1  N   UNL     1      -8.636  -3.138 -21.644  0.00  0.00    +0.000 NA
ATOM      2  C   UNL     1      -8.479  -2.513 -20.513  0.00  0.00    +0.000 C 
ENDROOT
BRANCH   2   4
ATOM      3  N   UNL     1      -5.674  -3.806 -18.543  0.00  0.00    +0.000 N 
ATOM      4  C   UNL     1      -7.240  -2.789 -19.774  0.00  0.00    +0.000 A 
ATOM      5  C   UNL     1      -6.128  -1.894 -19.585  0.00  0.00    +0.000 A 
ATOM      6  C   UNL     1      -5.173  -2.558 -18.818  0.00  0.00    +0.000 A 
ATOM      7  C   UNL     1      -6.916  -3.962 -19.105  0.00  0.00    +0.000 A 
ATOM      8  C   UNL     1      -5.846  -0.578 -20.004  0.00  0.00    +0.000 A 
ATOM      9  C   UNL     1      -3.956  -1.978 -18.445  0.00  0.00    +0.000 A 
ATOM     10  C   UNL     1      -3.708  -0.667 -18.874  0.00  0.00    +0.000 A 
ATOM     11  C   UNL     1      -4.638   0.022 -19.644  0.00  0.00    +0.000 A 
ATOM     12  H   UNL     1      -5.188  -4.501 -17.996  0.00  0.00    +0.000 HD
BRANCH   7  13
ATOM     13  O   UNL     1      -7.605  -5.088 -18.956  0.00  0.00    +0.000 OA
ATOM     14  H   UNL     1      -7.927  -5.178 -18.042  0.00  0.00    +0.000 HD
ENDBRANCH   7  13
BRANCH  10  16
ATOM     15  O   UNL     1      -2.374   1.242 -18.420  0.00  0.00    +0.000 OA
ATOM     16  C   UNL     1      -2.448   0.027 -18.528  0.00  0.00    +0.000 C 
BRANCH  16  17
ATOM     17  O   UNL     1      -1.467  -0.905 -18.366  0.00  0.00    +0.000 OA
ATOM     18  C   UNL     1      -0.149  -0.541 -18.685  0.00  0.00    +0.000 C 
ENDBRANCH  16  17
ENDBRANCH  10  16
ENDBRANCH   2   4
BRANCH   1  22
ATOM     19  C   UNL     1     -12.108  -2.692 -24.020  0.00  0.00    +0.000 A 
ATOM     20  C   UNL     1     -10.924  -2.014 -24.320  0.00  0.00    +0.000 A 
ATOM     21  C   UNL     1     -12.098  -3.528 -22.896  0.00  0.00    +0.000 A 
ATOM     22  C   UNL     1      -9.799  -2.966 -22.403  0.00  0.00    +0.000 A 
ATOM     23  C   UNL     1      -9.781  -2.152 -23.534  0.00  0.00    +0.000 A 
ATOM     24  C   UNL     1     -10.961  -3.674 -22.102  0.00  0.00    +0.000 A 
BRANCH  19  26
ATOM     25  O   UNL     1     -12.523  -3.898 -26.619  0.00  0.00    +0.000 OA
ATOM     26  N   UNL     1     -13.298  -2.546 -24.828  0.00  0.00    +0.000 N 
ATOM     27  C   UNL     1     -13.374  -3.191 -26.088  0.00  0.00    +0.000 C 
ATOM     28  C   UNL     1     -14.348  -1.706 -24.247  0.00  0.00    +0.000 C 
BRANCH  27  29
ATOM     29  C   UNL     1     -14.601  -2.991 -26.848  0.00  0.00    +0.000 C 
BRANCH  29  30
ATOM     30  N   UNL     1     -15.832  -2.761 -27.601  0.00  0.00    +0.000 N 
ATOM     31  N   UNL     1     -16.031  -4.411 -30.738  0.00  0.00    +0.000 N 
ATOM     32  C   UNL     1     -15.426  -2.349 -28.973  0.00  0.00    +0.000 C 
ATOM     33  C   UNL     1     -16.346  -4.104 -27.991  0.00  0.00    +0.000 C 
ATOM     34  C   UNL     1     -15.511  -3.072 -30.348  0.00  0.00    +0.000 C 
ATOM     35  C   UNL     1     -16.430  -4.828 -29.367  0.00  0.00    +0.000 C 
ATOM     36  C   UNL     1     -14.879  -5.221 -31.108  0.00  0.00    +0.000 C 
ENDBRANCH  29  30
ENDBRANCH  27  29
ENDBRANCH  19  26
ENDBRANCH   1  22
BRANCH   2  37
ATOM     37  C   UNL     1      -9.446  -1.565 -19.931  0.00  0.00    +0.000 A 
ATOM     38  C   UNL     1      -9.759  -0.394 -20.619  0.00  0.00    +0.000 A 
ATOM     39  C   UNL     1     -10.056  -1.877 -18.716  0.00  0.00    +0.000 A 
ATOM     40  C   UNL     1     -10.693   0.482 -20.075  0.00  0.00    +0.000 A 
ATOM     41  C   UNL     1     -10.987  -0.994 -18.181  0.00  0.00    +0.000 A 
ATOM     42  C   UNL     1     -11.306   0.183 -18.859  0.00  0.00    +0.000 A 
ENDBRANCH   2  37
TORSDOF 9
ENDMDL
MODEL 3
REMARK VINA RESULT:      -6.7     22.154     29.268
REMARK  Name = 135423438_Nintedanib.pdbqt.pdb
REMARK  9 active torsions:
REMARK  status: ('A' for Active; 'I' for Inactive)
REMARK    1  A    between atoms: N_1  and  C_22
REMARK    2  A    between atoms: C_2  and  C_4
REMARK    3  A    between atoms: C_2  and  C_37
REMARK    4  A    between atoms: C_7  and  O_13
REMARK    5  A    between atoms: C_10  and  C_16
REMARK    6  A    between atoms: C_16  and  O_17
REMARK    7  A    between atoms: C_19  and  N_26
REMARK    8  A    between atoms: C_27  and  C_29
REMARK    9  A    between atoms: C_29  and  N_30
REMARK                            x       y       z     vdW  Elec       q    Type
REMARK                         _______ _______ _______ _____ _____    ______ ____
ROOT
ATOM      1  N   UNL     1      -8.043  -0.513  -0.231  0.00  0.00    +0.000 NA
ATOM      2  C   UNL     1      -8.962  -0.602   0.686  0.00  0.00    +0.000 C 
ENDROOT
BRANCH   2   4
ATOM      3  N   UNL     1     -12.448  -0.708  -0.436  0.00  0.00    +0.000 N 
ATOM      4  C   UNL     1     -10.322  -0.915   0.226  0.00  0.00    +0.000 A 
ATOM      5  C   UNL     1     -10.871  -2.222  -0.021  0.00  0.00    +0.000 A 
ATOM      6  C   UNL     1     -12.192  -2.057  -0.433  0.00  0.00    +0.000 A 
ATOM      7  C   UNL     1     -11.338  -0.006  -0.038  0.00  0.00    +0.000 A 
ATOM      8  C   UNL     1     -10.360  -3.533   0.062  0.00  0.00    +0.000 A 
ATOM      9  C   UNL     1     -13.029  -3.129  -0.761  0.00  0.00    +0.000 A 
ATOM     10  C   UNL     1     -12.492  -4.419  -0.664  0.00  0.00    +0.000 A 
ATOM     11  C   UNL     1     -11.177  -4.618  -0.261  0.00  0.00    +0.000 A 
ATOM     12  H   UNL     1     -13.336  -0.303  -0.692  0.00  0.00    +0.000 HD
BRANCH   7  13
ATOM     13  O   UNL     1     -11.355   1.319   0.052  0.00  0.00    +0.000 OA
ATOM     14  H   UNL     1     -10.760   1.717  -0.608  0.00  0.00    +0.000 HD
ENDBRANCH   7  13
BRANCH  10  16
ATOM     15  O   UNL     1     -13.185  -6.673  -0.394  0.00  0.00    +0.000 OA
ATOM     16  C   UNL     1     -13.302  -5.613  -0.992  0.00  0.00    +0.000 C 
BRANCH  16  17
ATOM     17  O   UNL     1     -14.140  -5.302  -2.021  0.00  0.00    +0.000 OA
ATOM     18  C   UNL     1     -15.192  -6.188  -2.309  0.00  0.00    +0.000 C 
ENDBRANCH  16  17
ENDBRANCH  10  16
ENDBRANCH   2   4
BRANCH   1  22
ATOM     19  C   UNL     1      -4.094   0.506   0.896  0.00  0.00    +0.000 A 
ATOM     20  C   UNL     1      -5.033   1.483   0.559  0.00  0.00    +0.000 A 
ATOM     21  C   UNL     1      -4.514  -0.830   0.844  0.00  0.00    +0.000 A 
ATOM     22  C   UNL     1      -6.724  -0.186   0.105  0.00  0.00    +0.000 A 
ATOM     23  C   UNL     1      -6.333   1.150   0.178  0.00  0.00    +0.000 A 
ATOM     24  C   UNL     1      -5.811  -1.175   0.466  0.00  0.00    +0.000 A 
BRANCH  19  26
ATOM     25  O   UNL     1      -3.210   1.021   3.604  0.00  0.00    +0.000 OA
ATOM     26  N   UNL     1      -2.743   0.846   1.284  0.00  0.00    +0.000 N 
ATOM     27  C   UNL     1      -2.441   1.075   2.650  0.00  0.00    +0.000 C 
ATOM     28  C   UNL     1      -1.780   0.932   0.182  0.00  0.00    +0.000 C 
BRANCH  27  29
ATOM     29  C   UNL     1      -1.061   1.421   2.962  0.00  0.00    +0.000 C 
BRANCH  29  30
ATOM     30  N   UNL     1       0.326   1.742   3.291  0.00  0.00    +0.000 N 
ATOM     31  N   UNL     1       2.039   3.731   0.900  0.00  0.00    +0.000 N 
ATOM     32  C   UNL     1       1.144   1.386   2.098  0.00  0.00    +0.000 C 
ATOM     33  C   UNL     1       0.466   3.217   3.137  0.00  0.00    +0.000 C 
ATOM     34  C   UNL     1       1.893   2.257   1.049  0.00  0.00    +0.000 C 
ATOM     35  C   UNL     1       1.215   4.089   2.086  0.00  0.00    +0.000 C 
ATOM     36  C   UNL     1       1.273   4.114  -0.278  0.00  0.00    +0.000 C 
ENDBRANCH  29  30
ENDBRANCH  27  29
ENDBRANCH  19  26
ENDBRANCH   1  22
BRANCH   2  37
ATOM     37  C   UNL     1      -8.736  -0.410   2.130  0.00  0.00    +0.000 A 
ATOM     38  C   UNL     1      -8.358  -1.498   2.915  0.00  0.00    +0.000 A 
ATOM     39  C   UNL     1      -8.872   0.866   2.675  0.00  0.00    +0.000 A 
ATOM     40  C   UNL     1      -8.121  -1.302   4.272  0.00  0.00    +0.000 A 
ATOM     41  C   UNL     1      -8.633   1.050   4.032  0.00  0.00    +0.000 A 
ATOM     42  C   UNL     1      -8.258  -0.032   4.830  0.00  0.00    +0.000 A 
ENDBRANCH   2  37
TORSDOF 9
ENDMDL
MODEL 4
REMARK VINA RESULT:      -6.6     21.782     25.439
REMARK  Name = 135423438_Nintedanib.pdbqt.pdb
REMARK  9 active torsions:
REMARK  status: ('A' for Active; 'I' for Inactive)
REMARK    1  A    between atoms: N_1  and  C_22
REMARK    2  A    between atoms: C_2  and  C_4
REMARK    3  A    between atoms: C_2  and  C_37
REMARK    4  A    between atoms: C_7  and  O_13
REMARK    5  A    between atoms: C_10  and  C_16
REMARK    6  A    between atoms: C_16  and  O_17
REMARK    7  A    between atoms: C_19  and  N_26
REMARK    8  A    between atoms: C_27  and  C_29
REMARK    9  A    between atoms: C_29  and  N_30
REMARK                            x       y       z     vdW  Elec       q    Type
REMARK                         _______ _______ _______ _____ _____    ______ ____
ROOT
ATOM      1  N   UNL     1      -8.992  -2.503 -21.916  0.00  0.00    +0.000 NA
ATOM      2  C   UNL     1     -10.121  -2.492 -21.268  0.00  0.00    +0.000 C 
ENDROOT
BRANCH   2   4
ATOM      3  N   UNL     1     -13.029  -3.735 -23.116  0.00  0.00    +0.000 N 
ATOM      4  C   UNL     1     -11.336  -2.727 -22.058  0.00  0.00    +0.000 A 
ATOM      5  C   UNL     1     -12.154  -1.732 -22.702  0.00  0.00    +0.000 A 
ATOM      6  C   UNL     1     -13.198  -2.393 -23.347  0.00  0.00    +0.000 A 
ATOM      7  C   UNL     1     -11.915  -3.956 -22.348  0.00  0.00    +0.000 A 
ATOM      8  C   UNL     1     -12.103  -0.326 -22.788  0.00  0.00    +0.000 A 
ATOM      9  C   UNL     1     -14.188  -1.726 -24.076  0.00  0.00    +0.000 A 
ATOM     10  C   UNL     1     -14.107  -0.328 -24.145  0.00  0.00    +0.000 A 
ATOM     11  C   UNL     1     -13.081   0.361 -23.509  0.00  0.00    +0.000 A 
ATOM     12  H   UNL     1     -13.645  -4.451 -23.473  0.00  0.00    +0.000 HD
BRANCH   7  13
ATOM     13  O   UNL     1     -11.542  -5.185 -22.008  0.00  0.00    +0.000 OA
ATOM     14  H   UNL     1     -10.588  -5.309 -22.156  0.00  0.00    +0.000 HD
ENDBRANCH   7  13
BRANCH  10  16
ATOM     15  O   UNL     1     -14.801   1.311 -25.715  0.00  0.00    +0.000 OA
ATOM     16  C   UNL     1     -15.110   0.461 -24.892  0.00  0.00    +0.000 C 
BRANCH  16  17
ATOM     17  O   UNL     1     -16.355   0.070 -24.498  0.00  0.00    +0.000 OA
ATOM     18  C   UNL     1     -17.317   1.064 -24.256  0.00  0.00    +0.000 C 
ENDBRANCH  16  17
ENDBRANCH  10  16
ENDBRANCH   2   4
BRANCH   1  22
ATOM     19  C   UNL     1      -5.279  -1.790 -20.018  0.00  0.00    +0.000 A 
ATOM     20  C   UNL     1      -5.796  -3.081 -20.151  0.00  0.00    +0.000 A 
ATOM     21  C   UNL     1      -6.044  -0.738 -20.539  0.00  0.00    +0.000 A 
ATOM     22  C   UNL     1      -7.783  -2.256 -21.256  0.00  0.00    +0.000 A 
ATOM     23  C   UNL     1      -7.024  -3.318 -20.768  0.00  0.00    +0.000 A 
ATOM     24  C   UNL     1      -7.272  -0.963 -21.159  0.00  0.00    +0.000 A 
BRANCH  19  26
ATOM     25  O   UNL     1      -2.756  -1.399 -21.382  0.00  0.00    +0.000 OA
ATOM     26  N   UNL     1      -4.010  -1.538 -19.372  0.00  0.00    +0.000 N 
ATOM     27  C   UNL     1      -2.844  -1.365 -20.159  0.00  0.00    +0.000 C 
ATOM     28  C   UNL     1      -4.053  -1.492 -17.908  0.00  0.00    +0.000 C 
BRANCH  27  29
ATOM     29  C   UNL     1      -1.602  -1.123 -19.437  0.00  0.00    +0.000 C 
BRANCH  29  30
ATOM     30  N   UNL     1      -0.341  -0.891 -18.737  0.00  0.00    +0.000 N 
ATOM     31  N   UNL     1       2.492  -0.405 -20.819  0.00  0.00    +0.000 N 
ATOM     32  C   UNL     1       0.651  -1.842 -19.310  0.00  0.00    +0.000 C 
ATOM     33  C   UNL     1       0.257   0.334 -19.338  0.00  0.00    +0.000 C 
ATOM     34  C   UNL     1       1.891  -1.630 -20.226  0.00  0.00    +0.000 C 
ATOM     35  C   UNL     1       1.498   0.546 -20.254  0.00  0.00    +0.000 C 
ATOM     36  C   UNL     1       2.249  -0.468 -22.254  0.00  0.00    +0.000 C 
ENDBRANCH  29  30
ENDBRANCH  27  29
ENDBRANCH  19  26
ENDBRANCH   1  22
BRANCH   2  37
ATOM     37  C   UNL     1     -10.260  -2.259 -19.819  0.00  0.00    +0.000 A 
ATOM     38  C   UNL     1     -10.100  -3.324 -18.935  0.00  0.00    +0.000 A 
ATOM     39  C   UNL     1     -10.515  -0.968 -19.360  0.00  0.00    +0.000 A 
ATOM     40  C   UNL     1     -10.206  -3.090 -17.567  0.00  0.00    +0.000 A 
ATOM     41  C   UNL     1     -10.620  -0.745 -17.991  0.00  0.00    +0.000 A 
ATOM     42  C   UNL     1     -10.466  -1.804 -17.096  0.00  0.00    +0.000 A 
ENDBRANCH   2  37
TORSDOF 9
ENDMDL
MODEL 5
REMARK VINA RESULT:      -6.5     12.134     14.787
REMARK  Name = 135423438_Nintedanib.pdbqt.pdb
REMARK  9 active torsions:
REMARK  status: ('A' for Active; 'I' for Inactive)
REMARK    1  A    between atoms: N_1  and  C_22
REMARK    2  A    between atoms: C_2  and  C_4
REMARK    3  A    between atoms: C_2  and  C_37
REMARK    4  A    between atoms: C_7  and  O_13
REMARK    5  A    between atoms: C_10  and  C_16
REMARK    6  A    between atoms: C_16  and  O_17
REMARK    7  A    between atoms: C_19  and  N_26
REMARK    8  A    between atoms: C_27  and  C_29
REMARK    9  A    between atoms: C_29  and  N_30
REMARK                            x       y       z     vdW  Elec       q    Type
REMARK                         _______ _______ _______ _____ _____    ______ ____
ROOT
ATOM      1  N   UNL     1       9.915   0.760 -20.954  0.00  0.00    +0.000 NA
ATOM      2  C   UNL     1      10.901   0.861 -20.109  0.00  0.00    +0.000 C 
ENDROOT
BRANCH   2   4
ATOM      3  N   UNL     1      14.169   1.715 -21.528  0.00  0.00    +0.000 N 
ATOM      4  C   UNL     1      12.252   0.934 -20.680  0.00  0.00    +0.000 A 
ATOM      5  C   UNL     1      13.110  -0.173 -21.015  0.00  0.00    +0.000 A 
ATOM      6  C   UNL     1      14.292   0.348 -21.536  0.00  0.00    +0.000 A 
ATOM      7  C   UNL     1      12.949   2.085 -21.022  0.00  0.00    +0.000 A 
ATOM      8  C   UNL     1      12.988  -1.574 -20.914  0.00  0.00    +0.000 A 
ATOM      9  C   UNL     1      15.355  -0.454 -21.965  0.00  0.00    +0.000 A 
ATOM     10  C   UNL     1      15.202  -1.842 -21.855  0.00  0.00    +0.000 A 
ATOM     11  C   UNL     1      14.036  -2.394 -21.336  0.00  0.00    +0.000 A 
ATOM     12  H   UNL     1      14.882   2.348 -21.857  0.00  0.00    +0.000 HD
BRANCH   7  13
ATOM     13  O   UNL     1      12.597   3.364 -20.932  0.00  0.00    +0.000 OA
ATOM     14  H   UNL     1      12.392   3.601 -20.011  0.00  0.00    +0.000 HD
ENDBRANCH   7  13
BRANCH  10  16
ATOM     15  O   UNL     1      16.063  -3.946 -22.538  0.00  0.00    +0.000 OA
ATOM     16  C   UNL     1      16.273  -2.768 -22.283  0.00  0.00    +0.000 C 
BRANCH  16  17
ATOM     17  O   UNL     1      17.450  -2.082 -22.330  0.00  0.00    +0.000 OA
ATOM     18  C   UNL     1      18.462  -2.441 -21.425  0.00  0.00    +0.000 C 
ENDBRANCH  16  17
ENDBRANCH  10  16
ENDBRANCH   2   4
BRANCH   1  22
ATOM     19  C   UNL     1       5.963   0.421 -19.482  0.00  0.00    +0.000 A 
ATOM     20  C   UNL     1       6.789  -0.696 -19.624  0.00  0.00    +0.000 A 
ATOM     21  C   UNL     1       6.498   1.662 -19.850  0.00  0.00    +0.000 A 
ATOM     22  C   UNL     1       8.594   0.651 -20.504  0.00  0.00    +0.000 A 
ATOM     23  C   UNL     1       8.089  -0.589 -20.117  0.00  0.00    +0.000 A 
ATOM     24  C   UNL     1       7.797   1.782 -20.343  0.00  0.00    +0.000 A 
BRANCH  19  26
ATOM     25  O   UNL     1       3.729  -0.732 -20.918  0.00  0.00    +0.000 OA
ATOM     26  N   UNL     1       4.612   0.313 -18.979  0.00  0.00    +0.000 N 
ATOM     27  C   UNL     1       3.606  -0.274 -19.786  0.00  0.00    +0.000 C 
ATOM     28  C   UNL     1       4.403   0.851 -17.631  0.00  0.00    +0.000 C 
BRANCH  27  29
ATOM     29  C   UNL     1       2.268  -0.340 -19.214  0.00  0.00    +0.000 C 
BRANCH  29  30
ATOM     30  N   UNL     1       0.932  -0.379 -18.625  0.00  0.00    +0.000 N 
ATOM     31  N   UNL     1      -1.714  -1.057 -20.892  0.00  0.00    +0.000 N 
ATOM     32  C   UNL     1       0.072   0.513 -19.450  0.00  0.00    +0.000 C 
ATOM     33  C   UNL     1       0.308  -1.654 -19.077  0.00  0.00    +0.000 C 
ATOM     34  C   UNL     1      -1.086   0.217 -20.447  0.00  0.00    +0.000 C 
ATOM     35  C   UNL     1      -0.850  -1.951 -20.075  0.00  0.00    +0.000 C 
ATOM     36  C   UNL     1      -1.329  -1.253 -22.283  0.00  0.00    +0.000 C 
ENDBRANCH  29  30
ENDBRANCH  27  29
ENDBRANCH  19  26
ENDBRANCH   1  22
BRANCH   2  37
ATOM     37  C   UNL     1      10.755   0.901 -18.643  0.00  0.00    +0.000 A 
ATOM     38  C   UNL     1      10.861  -0.279 -17.910  0.00  0.00    +0.000 A 
ATOM     39  C   UNL     1      10.548   2.128 -18.015  0.00  0.00    +0.000 A 
ATOM     40  C   UNL     1      10.749  -0.228 -16.524  0.00  0.00    +0.000 A 
ATOM     41  C   UNL     1      10.437   2.168 -16.629  0.00  0.00    +0.000 A 
ATOM     42  C   UNL     1      10.537   0.993 -15.885  0.00  0.00    +0.000 A 
ENDBRANCH   2  37
TORSDOF 9
ENDMDL
MODEL 6
REMARK VINA RESULT:      -6.4     22.881     26.396
REMARK  Name = 135423438_Nintedanib.pdbqt.pdb
REMARK  9 active torsions:
REMARK  status: ('A' for Active; 'I' for Inactive)
REMARK    1  A    between atoms: N_1  and  C_22
REMARK    2  A    between atoms: C_2  and  C_4
REMARK    3  A    between atoms: C_2  and  C_37
REMARK    4  A    between atoms: C_7  and  O_13
REMARK    5  A    between atoms: C_10  and  C_16
REMARK    6  A    between atoms: C_16  and  O_17
REMARK    7  A    between atoms: C_19  and  N_26
REMARK    8  A    between atoms: C_27  and  C_29
REMARK    9  A    between atoms: C_29  and  N_30
REMARK                            x       y       z     vdW  Elec       q    Type
REMARK                         _______ _______ _______ _____ _____    ______ ____
ROOT
ATOM      1  N   UNL     1      -9.168  -2.824 -21.582  0.00  0.00    +0.000 NA
ATOM      2  C   UNL     1      -7.909  -3.133 -21.697  0.00  0.00    +0.000 C 
ENDROOT
BRANCH   2   4
ATOM      3  N   UNL     1      -6.098  -3.331 -18.518  0.00  0.00    +0.000 N 
ATOM      4  C   UNL     1      -7.080  -2.970 -20.495  0.00  0.00    +0.000 A 
ATOM      5  C   UNL     1      -6.240  -1.848 -20.170  0.00  0.00    +0.000 A 
ATOM      6  C   UNL     1      -5.643  -2.105 -18.938  0.00  0.00    +0.000 A 
ATOM      7  C   UNL     1      -6.965  -3.864 -19.438  0.00  0.00    +0.000 A 
ATOM      8  C   UNL     1      -5.927  -0.635 -20.819  0.00  0.00    +0.000 A 
ATOM      9  C   UNL     1      -4.757  -1.218 -18.318  0.00  0.00    +0.000 A 
ATOM     10  C   UNL     1      -4.471  -0.020 -18.986  0.00  0.00    +0.000 A 
ATOM     11  C   UNL     1      -5.046   0.266 -20.220  0.00  0.00    +0.000 A 
ATOM     12  H   UNL     1      -5.828  -3.766 -17.648  0.00  0.00    +0.000 HD
BRANCH   7  13
ATOM     13  O   UNL     1      -7.546  -5.041 -19.238  0.00  0.00    +0.000 OA
ATOM     14  H   UNL     1      -6.881  -5.730 -19.065  0.00  0.00    +0.000 HD
ENDBRANCH   7  13
BRANCH  10  16
ATOM     15  O   UNL     1      -3.466   1.184 -17.206  0.00  0.00    +0.000 OA
ATOM     16  C   UNL     1      -3.545   0.978 -18.408  0.00  0.00    +0.000 C 
BRANCH  16  17
ATOM     17  O   UNL     1      -2.855   1.572 -19.422  0.00  0.00    +0.000 OA
ATOM     18  C   UNL     1      -1.453   1.595 -19.345  0.00  0.00    +0.000 C 
ENDBRANCH  16  17
ENDBRANCH  10  16
ENDBRANCH   2   4
BRANCH   1  22
ATOM     19  C   UNL     1     -11.869  -3.073 -24.829  0.00  0.00    +0.000 A 
ATOM     20  C   UNL     1     -11.693  -4.137 -23.941  0.00  0.00    +0.000 A 
ATOM     21  C   UNL     1     -11.112  -1.917 -24.600  0.00  0.00    +0.000 A 
ATOM     22  C   UNL     1     -10.031  -2.913 -22.680  0.00  0.00    +0.000 A 
ATOM     23  C   UNL     1     -10.797  -4.062 -22.875  0.00  0.00    +0.000 A 
ATOM     24  C   UNL     1     -10.213  -1.829 -23.538  0.00  0.00    +0.000 A 
BRANCH  19  26
ATOM     25  O   UNL     1     -14.621  -2.176 -24.784  0.00  0.00    +0.000 OA
ATOM     26  N   UNL     1     -12.791  -3.150 -25.940  0.00  0.00    +0.000 N 
ATOM     27  C   UNL     1     -14.118  -2.674 -25.786  0.00  0.00    +0.000 C 
ATOM     28  C   UNL     1     -12.246  -3.743 -27.164  0.00  0.00    +0.000 C 
BRANCH  27  29
ATOM     29  C   UNL     1     -14.990  -2.792 -26.946  0.00  0.00    +0.000 C 
BRANCH  29  30
ATOM     30  N   UNL     1     -15.841  -2.918 -28.127  0.00  0.00    +0.000 N 
ATOM     31  N   UNL     1     -14.867  -5.420 -30.449  0.00  0.00    +0.000 N 
ATOM     32  C   UNL     1     -14.940  -2.884 -29.312  0.00  0.00    +0.000 C 
ATOM     33  C   UNL     1     -16.192  -4.361 -28.244  0.00  0.00    +0.000 C 
ATOM     34  C   UNL     1     -14.510  -3.981 -30.329  0.00  0.00    +0.000 C 
ATOM     35  C   UNL     1     -15.761  -5.459 -29.261  0.00  0.00    +0.000 C 
ATOM     36  C   UNL     1     -13.673  -6.181 -30.105  0.00  0.00    +0.000 C 
ENDBRANCH  29  30
ENDBRANCH  27  29
ENDBRANCH  19  26
ENDBRANCH   1  22
BRANCH   2  37
ATOM     37  C   UNL     1      -7.269  -3.621 -22.931  0.00  0.00    +0.000 A 
ATOM     38  C   UNL     1      -6.709  -2.708 -23.822  0.00  0.00    +0.000 A 
ATOM     39  C   UNL     1      -7.206  -4.994 -23.166  0.00  0.00    +0.000 A 
ATOM     40  C   UNL     1      -6.083  -3.179 -24.971  0.00  0.00    +0.000 A 
ATOM     41  C   UNL     1      -6.579  -5.455 -24.318  0.00  0.00    +0.000 A 
ATOM     42  C   UNL     1      -6.018  -4.550 -25.219  0.00  0.00    +0.000 A 
ENDBRANCH   2  37
TORSDOF 9
ENDMDL
MODEL 7
REMARK VINA RESULT:      -6.4     13.328     16.704
REMARK  Name = 135423438_Nintedanib.pdbqt.pdb
REMARK  9 active torsions:
REMARK  status: ('A' for Active; 'I' for Inactive)
REMARK    1  A    between atoms: N_1  and  C_22
REMARK    2  A    between atoms: C_2  and  C_4
REMARK    3  A    between atoms: C_2  and  C_37
REMARK    4  A    between atoms: C_7  and  O_13
REMARK    5  A    between atoms: C_10  and  C_16
REMARK    6  A    between atoms: C_16  and  O_17
REMARK    7  A    between atoms: C_19  and  N_26
REMARK    8  A    between atoms: C_27  and  C_29
REMARK    9  A    between atoms: C_29  and  N_30
REMARK                            x       y       z     vdW  Elec       q    Type
REMARK                         _______ _______ _______ _____ _____    ______ ____
ROOT
ATOM      1  N   UNL     1       0.904   0.490 -19.087  0.00  0.00    +0.000 NA
ATOM      2  C   UNL     1       0.118   1.111 -19.918  0.00  0.00    +0.000 C 
ENDROOT
BRANCH   2   4
ATOM      3  N   UNL     1      -3.295   0.194 -18.955  0.00  0.00    +0.000 N 
ATOM      4  C   UNL     1      -1.325   0.916 -19.729  0.00  0.00    +0.000 A 
ATOM      5  C   UNL     1      -2.386   1.522 -20.491  0.00  0.00    +0.000 A 
ATOM      6  C   UNL     1      -3.596   1.054 -19.982  0.00  0.00    +0.000 A 
ATOM      7  C   UNL     1      -1.937   0.095 -18.791  0.00  0.00    +0.000 A 
ATOM      8  C   UNL     1      -2.425   2.434 -21.565  0.00  0.00    +0.000 A 
ATOM      9  C   UNL     1      -4.839   1.443 -20.491  0.00  0.00    +0.000 A 
ATOM     10  C   UNL     1      -4.844   2.347 -21.561  0.00  0.00    +0.000 A 
ATOM     11  C   UNL     1      -3.655   2.836 -22.089  0.00  0.00    +0.000 A 
ATOM     12  H   UNL     1      -3.988  -0.295 -18.407  0.00  0.00    +0.000 HD
BRANCH   7  13
ATOM     13  O   UNL     1      -1.409  -0.696 -17.863  0.00  0.00    +0.000 OA
ATOM     14  H   UNL     1      -1.885  -1.544 -17.821  0.00  0.00    +0.000 HD
ENDBRANCH   7  13
BRANCH  10  16
ATOM     15  O   UNL     1      -7.147   2.917 -21.522  0.00  0.00    +0.000 OA
ATOM     16  C   UNL     1      -6.112   2.815 -22.163  0.00  0.00    +0.000 C 
BRANCH  16  17
ATOM     17  O   UNL     1      -5.894   3.088 -23.481  0.00  0.00    +0.000 OA
ATOM     18  C   UNL     1      -6.924   3.705 -24.209  0.00  0.00    +0.000 C 
ENDBRANCH  16  17
ENDBRANCH  10  16
ENDBRANCH   2   4
BRANCH   1  22
ATOM     19  C   UNL     1       5.121   0.713 -19.354  0.00  0.00    +0.000 A 
ATOM     20  C   UNL     1       4.405   1.477 -18.430  0.00  0.00    +0.000 A 
ATOM     21  C   UNL     1       4.382  -0.133 -20.192  0.00  0.00    +0.000 A 
ATOM     22  C   UNL     1       2.295   0.587 -19.207  0.00  0.00    +0.000 A 
ATOM     23  C   UNL     1       3.015   1.413 -18.345  0.00  0.00    +0.000 A 
ATOM     24  C   UNL     1       2.992  -0.207 -20.117  0.00  0.00    +0.000 A 
BRANCH  19  26
ATOM     25  O   UNL     1       6.919  -1.551 -19.198  0.00  0.00    +0.000 OA
ATOM     26  N   UNL     1       6.562   0.782 -19.450  0.00  0.00    +0.000 N 
ATOM     27  C   UNL     1       7.330  -0.406 -19.357  0.00  0.00    +0.000 C 
ATOM     28  C   UNL     1       7.111   2.128 -19.635  0.00  0.00    +0.000 C 
BRANCH  27  29
ATOM     29  C   UNL     1       8.775  -0.255 -19.455  0.00  0.00    +0.000 C 
BRANCH  29  30
ATOM     30  N   UNL     1      10.226  -0.099 -19.523  0.00  0.00    +0.000 N 
ATOM     31  N   UNL     1      11.738   1.366 -16.665  0.00  0.00    +0.000 N 
ATOM     32  C   UNL     1      10.524   1.316 -19.166  0.00  0.00    +0.000 C 
ATOM     33  C   UNL     1      10.775  -0.691 -18.271  0.00  0.00    +0.000 C 
ATOM     34  C   UNL     1      11.184   1.959 -17.912  0.00  0.00    +0.000 C 
ATOM     35  C   UNL     1      11.435  -0.048 -17.016  0.00  0.00    +0.000 C 
ATOM     36  C   UNL     1      10.836   1.736 -15.583  0.00  0.00    +0.000 C 
ENDBRANCH  29  30
ENDBRANCH  27  29
ENDBRANCH  19  26
ENDBRANCH   1  22
BRANCH   2  37
ATOM     37  C   UNL     1       0.571   1.980 -21.019  0.00  0.00    +0.000 A 
ATOM     38  C   UNL     1       0.672   3.355 -20.811  0.00  0.00    +0.000 A 
ATOM     39  C   UNL     1       0.923   1.403 -22.238  0.00  0.00    +0.000 A 
ATOM     40  C   UNL     1       1.126   4.164 -21.848  0.00  0.00    +0.000 A 
ATOM     41  C   UNL     1       1.375   2.222 -23.268  0.00  0.00    +0.000 A 
ATOM     42  C   UNL     1       1.476   3.599 -23.073  0.00  0.00    +0.000 A 
ENDBRANCH   2  37
TORSDOF 9
ENDMDL
MODEL 8
REMARK VINA RESULT:      -6.3     24.129     29.156
REMARK  Name = 135423438_Nintedanib.pdbqt.pdb
REMARK  9 active torsions:
REMARK  status: ('A' for Active; 'I' for Inactive)
REMARK    1  A    between atoms: N_1  and  C_22
REMARK    2  A    between atoms: C_2  and  C_4
REMARK    3  A    between atoms: C_2  and  C_37
REMARK    4  A    between atoms: C_7  and  O_13
REMARK    5  A    between atoms: C_10  and  C_16
REMARK    6  A    between atoms: C_16  and  O_17
REMARK    7  A    between atoms: C_19  and  N_26
REMARK    8  A    between atoms: C_27  and  C_29
REMARK    9  A    between atoms: C_29  and  N_30
REMARK                            x       y       z     vdW  Elec       q    Type
REMARK                         _______ _______ _______ _____ _____    ______ ____
ROOT
ATOM      1  N   UNL     1      -7.427  -0.504  -0.072  0.00  0.00    +0.000 NA
ATOM      2  C   UNL     1      -8.360  -0.610   0.831  0.00  0.00    +0.000 C 
ENDROOT
BRANCH   2   4
ATOM      3  N   UNL     1     -11.441  -2.099  -0.477  0.00  0.00    +0.000 N 
ATOM      4  C   UNL     1      -9.703  -0.961   0.351  0.00  0.00    +0.000 A 
ATOM      5  C   UNL     1     -10.844  -0.088   0.264  0.00  0.00    +0.000 A 
ATOM      6  C   UNL     1     -11.907  -0.828  -0.252  0.00  0.00    +0.000 A 
ATOM      7  C   UNL     1     -10.118  -2.197  -0.125  0.00  0.00    +0.000 A 
ATOM      8  C   UNL     1     -11.071   1.266   0.585  0.00  0.00    +0.000 A 
ATOM      9  C   UNL     1     -13.179  -0.288  -0.468  0.00  0.00    +0.000 A 
ATOM     10  C   UNL     1     -13.371   1.061  -0.143  0.00  0.00    +0.000 A 
ATOM     11  C   UNL     1     -12.333   1.826   0.378  0.00  0.00    +0.000 A 
ATOM     12  H   UNL     1     -12.002  -2.848  -0.855  0.00  0.00    +0.000 HD
BRANCH   7  13
ATOM     13  O   UNL     1      -9.447  -3.334  -0.272  0.00  0.00    +0.000 OA
ATOM     14  H   UNL     1      -9.116  -3.425  -1.182  0.00  0.00    +0.000 HD
ENDBRANCH   7  13
BRANCH  10  16
ATOM     15  O   UNL     1     -15.640   1.504   0.392  0.00  0.00    +0.000 OA
ATOM     16  C   UNL     1     -14.682   1.718  -0.337  0.00  0.00    +0.000 C 
BRANCH  16  17
ATOM     17  O   UNL     1     -14.600   2.546  -1.416  0.00  0.00    +0.000 OA
ATOM     18  C   UNL     1     -14.965   3.892  -1.248  0.00  0.00    +0.000 C 
ENDBRANCH  16  17
ENDBRANCH  10  16
ENDBRANCH   2   4
BRANCH   1  22
ATOM     19  C   UNL     1      -3.449   0.568   0.892  0.00  0.00    +0.000 A 
ATOM     20  C   UNL     1      -3.855  -0.768   0.842  0.00  0.00    +0.000 A 
ATOM     21  C   UNL     1      -4.417   1.541   0.611  0.00  0.00    +0.000 A 
ATOM     22  C   UNL     1      -6.123  -0.140   0.284  0.00  0.00    +0.000 A 
ATOM     23  C   UNL     1      -5.168  -1.124   0.533  0.00  0.00    +0.000 A 
ATOM     24  C   UNL     1      -5.732   1.197   0.300  0.00  0.00    +0.000 A 
BRANCH  19  26
ATOM     25  O   UNL     1      -2.461   1.119   3.557  0.00  0.00    +0.000 OA
ATOM     26  N   UNL     1      -2.092   0.942   1.219  0.00  0.00    +0.000 N 
ATOM     27  C   UNL     1      -1.736   1.186   2.569  0.00  0.00    +0.000 C 
ATOM     28  C   UNL     1      -1.180   1.044   0.076  0.00  0.00    +0.000 C 
BRANCH  27  29
ATOM     29  C   UNL     1      -0.353   1.566   2.819  0.00  0.00    +0.000 C 
BRANCH  29  30
ATOM     30  N   UNL     1       1.036   1.963   3.043  0.00  0.00    +0.000 N 
ATOM     31  N   UNL     1       1.489   4.907   4.974  0.00  0.00    +0.000 N 
ATOM     32  C   UNL     1       1.140   3.399   2.664  0.00  0.00    +0.000 C 
ATOM     33  C   UNL     1       1.182   2.181   4.509  0.00  0.00    +0.000 C 
ATOM     34  C   UNL     1       1.335   4.690   3.509  0.00  0.00    +0.000 C 
ATOM     35  C   UNL     1       1.377   3.473   5.356  0.00  0.00    +0.000 C 
ATOM     36  C   UNL     1       0.272   5.563   5.433  0.00  0.00    +0.000 C 
ENDBRANCH  29  30
ENDBRANCH  27  29
ENDBRANCH  19  26
ENDBRANCH   1  22
BRANCH   2  37
ATOM     37  C   UNL     1      -8.163  -0.401   2.277  0.00  0.00    +0.000 A 
ATOM     38  C   UNL     1      -8.270   0.884   2.805  0.00  0.00    +0.000 A 
ATOM     39  C   UNL     1      -7.906  -1.502   3.093  0.00  0.00    +0.000 A 
ATOM     40  C   UNL     1      -8.109   1.068   4.175  0.00  0.00    +0.000 A 
ATOM     41  C   UNL     1      -7.745  -1.306   4.461  0.00  0.00    +0.000 A 
ATOM     42  C   UNL     1      -7.847  -0.024   5.001  0.00  0.00    +0.000 A 
ENDBRANCH   2  37
TORSDOF 9
ENDMDL
MODEL 9
REMARK VINA RESULT:      -6.3     14.403     16.507
REMARK  Name = 135423438_Nintedanib.pdbqt.pdb
REMARK  9 active torsions:
REMARK  status: ('A' for Active; 'I' for Inactive)
REMARK    1  A    between atoms: N_1  and  C_22
REMARK    2  A    between atoms: C_2  and  C_4
REMARK    3  A    between atoms: C_2  and  C_37
REMARK    4  A    between atoms: C_7  and  O_13
REMARK    5  A    between atoms: C_10  and  C_16
REMARK    6  A    between atoms: C_16  and  O_17
REMARK    7  A    between atoms: C_19  and  N_26
REMARK    8  A    between atoms: C_27  and  C_29
REMARK    9  A    between atoms: C_29  and  N_30
REMARK                            x       y       z     vdW  Elec       q    Type
REMARK                         _______ _______ _______ _____ _____    ______ ____
ROOT
ATOM      1  N   UNL     1      10.329  -1.504 -18.164  0.00  0.00    +0.000 NA
ATOM      2  C   UNL     1      10.250  -0.568 -19.065  0.00  0.00    +0.000 C 
ENDROOT
BRANCH   2   4
ATOM      3  N   UNL     1       8.405   2.497 -18.275  0.00  0.00    +0.000 N 
ATOM      4  C   UNL     1       9.290   0.513 -18.809  0.00  0.00    +0.000 A 
ATOM      5  C   UNL     1       7.856   0.435 -18.905  0.00  0.00    +0.000 A 
ATOM      6  C   UNL     1       7.338   1.685 -18.569  0.00  0.00    +0.000 A 
ATOM      7  C   UNL     1       9.585   1.810 -18.410  0.00  0.00    +0.000 A 
ATOM      8  C   UNL     1       6.949  -0.587 -19.254  0.00  0.00    +0.000 A 
ATOM      9  C   UNL     1       5.968   1.966 -18.559  0.00  0.00    +0.000 A 
ATOM     10  C   UNL     1       5.094   0.928 -18.907  0.00  0.00    +0.000 A 
ATOM     11  C   UNL     1       5.577  -0.329 -19.251  0.00  0.00    +0.000 A 
ATOM     12  H   UNL     1       8.319   3.462 -17.995  0.00  0.00    +0.000 HD
BRANCH   7  13
ATOM     13  O   UNL     1      10.755   2.390 -18.161  0.00  0.00    +0.000 OA
ATOM     14  H   UNL     1      10.650   3.118 -17.523  0.00  0.00    +0.000 HD
ENDBRANCH   7  13
BRANCH  10  16
ATOM     15  O   UNL     1       2.959   1.184 -17.904  0.00  0.00    +0.000 OA
ATOM     16  C   UNL     1       3.629   1.133 -18.924  0.00  0.00    +0.000 C 
BRANCH  16  17
ATOM     17  O   UNL     1       3.220   1.243 -20.220  0.00  0.00    +0.000 OA
ATOM     18  C   UNL     1       1.843   1.358 -20.472  0.00  0.00    +0.000 C 
ENDBRANCH  16  17
ENDBRANCH  10  16
ENDBRANCH   2   4
BRANCH   1  22
ATOM     19  C   UNL     1      12.922  -4.823 -18.564  0.00  0.00    +0.000 A 
ATOM     20  C   UNL     1      13.360  -3.615 -18.018  0.00  0.00    +0.000 A 
ATOM     21  C   UNL     1      11.584  -4.891 -18.976  0.00  0.00    +0.000 A 
ATOM     22  C   UNL     1      11.191  -2.594 -18.335  0.00  0.00    +0.000 A 
ATOM     23  C   UNL     1      12.511  -2.516 -17.893  0.00  0.00    +0.000 A 
ATOM     24  C   UNL     1      10.725  -3.800 -18.856  0.00  0.00    +0.000 A 
BRANCH  19  26
ATOM     25  O   UNL     1      13.771  -6.553 -16.404  0.00  0.00    +0.000 OA
ATOM     26  N   UNL     1      13.801  -5.963 -18.703  0.00  0.00    +0.000 N 
ATOM     27  C   UNL     1      14.141  -6.730 -17.561  0.00  0.00    +0.000 C 
ATOM     28  C   UNL     1      14.281  -6.219 -20.064  0.00  0.00    +0.000 C 
BRANCH  27  29
ATOM     29  C   UNL     1      15.038  -7.857 -17.778  0.00  0.00    +0.000 C 
BRANCH  29  30
ATOM     30  N   UNL     1      15.961  -8.968 -17.998  0.00  0.00    +0.000 N 
ATOM     31  N   UNL     1      14.640 -12.199 -17.348  0.00  0.00    +0.000 N 
ATOM     32  C   UNL     1      15.929  -9.804 -16.765  0.00  0.00    +0.000 C 
ATOM     33  C   UNL     1      15.247  -9.947 -18.864  0.00  0.00    +0.000 C 
ATOM     34  C   UNL     1      15.347 -11.219 -16.479  0.00  0.00    +0.000 C 
ATOM     35  C   UNL     1      14.665 -11.362 -18.578  0.00  0.00    +0.000 C 
ATOM     36  C   UNL     1      13.257 -12.244 -16.894  0.00  0.00    +0.000 C 
ENDBRANCH  29  30
ENDBRANCH  27  29
ENDBRANCH  19  26
ENDBRANCH   1  22
BRANCH   2  37
ATOM     37  C   UNL     1      11.044  -0.523 -20.306  0.00  0.00    +0.000 A 
ATOM     38  C   UNL     1      12.296   0.090 -20.298  0.00  0.00    +0.000 A 
ATOM     39  C   UNL     1      10.540  -1.125 -21.458  0.00  0.00    +0.000 A 
ATOM     40  C   UNL     1      13.050   0.105 -21.467  0.00  0.00    +0.000 A 
ATOM     41  C   UNL     1      11.302  -1.104 -22.621  0.00  0.00    +0.000 A 
ATOM     42  C   UNL     1      12.554  -0.490 -22.626  0.00  0.00    +0.000 A 
ENDBRANCH   2  37
TORSDOF 9
ENDMDL
