MODEL 1
REMARK VINA RESULT:      -6.6      0.000      0.000
REMARK  Name = 135403648_CalciumFolinate.pdbqt.pdb
REMARK  10 active torsions:
REMARK  status: ('A' for Active; 'I' for Inactive)
REMARK    1  A    between atoms: N_1  and  C_3
REMARK    2  A    between atoms: N_1  and  C_24
REMARK    3  A    between atoms: C_6  and  C_11
REMARK    4  A    between atoms: CA_13  and  C_15
REMARK    5  A    between atoms: CA_13  and  CB_18
REMARK    6  A    between atoms: C_15  and  O_16
REMARK    7  A    between atoms: CG_19  and  CD_21
REMARK    8  A    between atoms: CD_21  and  OE1_22
REMARK    9  A    between atoms: C_24  and  C_32
REMARK   10  A    between atoms: N_27  and  C_37
REMARK                            x       y       z     vdW  Elec       q    Type
REMARK                         _______ _______ _______ _____ _____    ______ ____
ROOT
ATOM      1  N   UNL     1       4.608  -2.994 -21.088  0.00  0.00    +0.000 N 
ATOM      2  H   UNL     1       4.809  -3.993 -21.037  0.00  0.00    +0.000 HD
ENDROOT
BRANCH   1   3
ATOM      3  C   UNL     1       3.264  -2.705 -20.768  0.00  0.00    +0.000 A 
ATOM      4  C   UNL     1       2.935  -2.371 -19.451  0.00  0.00    +0.000 A 
ATOM      5  C   UNL     1       2.220  -2.913 -21.677  0.00  0.00    +0.000 A 
ATOM      6  C   UNL     1       0.582  -2.345 -19.995  0.00  0.00    +0.000 A 
ATOM      7  C   UNL     1       1.608  -2.177 -19.068  0.00  0.00    +0.000 A 
ATOM      8  C   UNL     1       0.892  -2.719 -21.302  0.00  0.00    +0.000 A 
BRANCH   6  11
ATOM      9  O   UNL     1      -1.627  -3.075 -19.796  0.00  0.00    +0.000 OA
ATOM     10  N   UNL     1      -1.179  -0.898 -19.142  0.00  0.00    +0.000 N 
ATOM     11  C   ACE A   0      -0.844  -2.145 -19.636  0.00  0.00    +0.000 C 
ATOM     12  H   UNL     1      -0.457  -0.188 -19.049  0.00  0.00    +0.000 HD
ATOM     13  CA  UNL     1      -2.432  -0.468 -18.742  0.00  0.00    +0.000 C 
BRANCH  13  15
ATOM     14  OXT UNL     1      -1.833   1.846 -18.701  0.00  0.00    +0.000 OA
ATOM     15  C   UNL     1      -2.508   0.930 -18.253  0.00  0.00    +0.000 C 
BRANCH  15  16
ATOM     16  O   UNL     1      -3.392   1.119 -17.262  0.00  0.00    +0.000 OA
ATOM     17  H   UNL     1      -4.163   1.545 -17.691  0.00  0.00    +0.000 HD
ENDBRANCH  15  16
ENDBRANCH  13  15
BRANCH  13  18
ATOM     18  CB  UNL     1      -3.574  -1.309 -18.794  0.00  0.00    +0.000 C 
ATOM     19  CG  UNL     1      -4.801  -2.227 -18.846  0.00  0.00    +0.000 C 
BRANCH  19  21
ATOM     20  OE2 UNL     1      -5.911  -4.216 -19.369  0.00  0.00    +0.000 OA
ATOM     21  CD  UNL     1      -5.936  -3.097 -18.887  0.00  0.00    +0.000 C 
BRANCH  21  22
ATOM     22  OE1 UNL     1      -7.055  -2.565 -18.364  0.00  0.00    +0.000 OA
ATOM     23  HE1 UNL     1      -6.745  -1.721 -17.978  0.00  0.00    +0.000 HD
ENDBRANCH  21  22
ENDBRANCH  19  21
ENDBRANCH  13  18
ENDBRANCH   6  11
ENDBRANCH   1   3
BRANCH   1  24
ATOM     24  C   UNL     1       5.652  -2.107 -20.590  0.00  0.00    +0.000 C 
BRANCH  24  31
ATOM     25  O   UNL     1       6.287   2.838 -18.913  0.00  0.00    +0.000 OA
ATOM     26  N   UNL     1       6.445   0.027 -19.636  0.00  0.00    +0.000 N 
ATOM     27  N   UNL     1       9.150  -1.015 -19.313  0.00  0.00    +0.000 N 
ATOM     28  N   UNL     1       9.895   1.125 -18.663  0.00  0.00    +0.000 NA
ATOM     29  N   UNL     1       8.450   2.904 -18.351  0.00  0.00    +0.000 N 
ATOM     30  N   UNL     1      10.701   3.148 -17.933  0.00  0.00    +0.000 N 
ATOM     31  C   UNL     1       6.676  -1.275 -20.065  0.00  0.00    +0.000 C 
ATOM     32  C   UNL     1       8.015  -1.662 -19.893  0.00  0.00    +0.000 C 
ATOM     33  C   UNL     1       7.545   0.797 -19.168  0.00  0.00    +0.000 A 
ATOM     34  C   UNL     1       8.835   0.329 -19.040  0.00  0.00    +0.000 A 
ATOM     35  C   UNL     1       7.353   2.240 -18.806  0.00  0.00    +0.000 A 
ATOM     36  C   UNL     1       9.682   2.351 -18.330  0.00  0.00    +0.000 A 
ATOM     37  H   UNL     1      10.085  -1.093 -19.702  0.00  0.00    +0.000 HD
ATOM     38  H   UNL     1       8.324   3.884 -18.155  0.00  0.00    +0.000 HD
ATOM     39  H   UNL     1      11.548   2.620 -17.740  0.00  0.00    +0.000 HD
ATOM     40  H   UNL     1      10.496   3.829 -17.213  0.00  0.00    +0.000 HD
BRANCH  26  42
ATOM     41  O   UNL     1       4.107   0.980 -19.721  0.00  0.00    +0.000 OA
ATOM     42  C   UNL     1       5.191   0.523 -19.717  0.00  0.00    +0.000 C 
ENDBRANCH  26  42
ENDBRANCH  24  31
ENDBRANCH   1  24
TORSDOF 10
ENDMDL
MODEL 2
REMARK VINA RESULT:      -6.4      1.711      2.359
REMARK  Name = 135403648_CalciumFolinate.pdbqt.pdb
REMARK  10 active torsions:
REMARK  status: ('A' for Active; 'I' for Inactive)
REMARK    1  A    between atoms: N_1  and  C_3
REMARK    2  A    between atoms: N_1  and  C_24
REMARK    3  A    between atoms: C_6  and  C_11
REMARK    4  A    between atoms: CA_13  and  C_15
REMARK    5  A    between atoms: CA_13  and  CB_18
REMARK    6  A    between atoms: C_15  and  O_16
REMARK    7  A    between atoms: CG_19  and  CD_21
REMARK    8  A    between atoms: CD_21  and  OE1_22
REMARK    9  A    between atoms: C_24  and  C_32
REMARK   10  A    between atoms: N_27  and  C_37
REMARK                            x       y       z     vdW  Elec       q    Type
REMARK                         _______ _______ _______ _____ _____    ______ ____
ROOT
ATOM      1  N   UNL     1       4.442  -3.010 -20.094  0.00  0.00    +0.000 N 
ATOM      2  H   UNL     1       4.767  -3.954 -19.889  0.00  0.00    +0.000 HD
ENDROOT
BRANCH   1   3
ATOM      3  C   UNL     1       3.075  -2.839 -19.789  0.00  0.00    +0.000 A 
ATOM      4  C   UNL     1       2.191  -3.901 -20.007  0.00  0.00    +0.000 A 
ATOM      5  C   UNL     1       2.538  -1.593 -19.445  0.00  0.00    +0.000 A 
ATOM      6  C   UNL     1       0.303  -2.510 -19.431  0.00  0.00    +0.000 A 
ATOM      7  C   UNL     1       0.819  -3.744 -19.815  0.00  0.00    +0.000 A 
ATOM      8  C   UNL     1       1.168  -1.430 -19.250  0.00  0.00    +0.000 A 
BRANCH   6  11
ATOM      9  O   UNL     1      -1.909  -3.251 -19.330  0.00  0.00    +0.000 OA
ATOM     10  N   UNL     1      -1.533  -1.010 -18.882  0.00  0.00    +0.000 N 
ATOM     11  C   ACE A   0      -1.150  -2.296 -19.210  0.00  0.00    +0.000 C 
ATOM     12  H   UNL     1      -0.828  -0.281 -18.811  0.00  0.00    +0.000 HD
ATOM     13  CA  UNL     1      -2.818  -0.560 -18.633  0.00  0.00    +0.000 C 
BRANCH  13  15
ATOM     14  OXT UNL     1      -3.989   1.409 -17.952  0.00  0.00    +0.000 OA
ATOM     15  C   UNL     1      -2.945   0.881 -18.306  0.00  0.00    +0.000 C 
BRANCH  15  16
ATOM     16  O   UNL     1      -1.804   1.576 -18.428  0.00  0.00    +0.000 OA
ATOM     17  H   UNL     1      -1.570   1.838 -17.514  0.00  0.00    +0.000 HD
ENDBRANCH  15  16
ENDBRANCH  13  15
BRANCH  13  18
ATOM     18  CB  UNL     1      -3.946  -1.422 -18.683  0.00  0.00    +0.000 C 
ATOM     19  CG  UNL     1      -5.170  -2.343 -18.735  0.00  0.00    +0.000 C 
BRANCH  19  21
ATOM     20  OE2 UNL     1      -7.468  -2.771 -18.720  0.00  0.00    +0.000 OA
ATOM     21  CD  UNL     1      -6.325  -3.188 -18.778  0.00  0.00    +0.000 C 
BRANCH  21  22
ATOM     22  OE1 UNL     1      -6.041  -4.500 -18.867  0.00  0.00    +0.000 OA
ATOM     23  HE1 UNL     1      -5.066  -4.526 -18.781  0.00  0.00    +0.000 HD
ENDBRANCH  21  22
ENDBRANCH  19  21
ENDBRANCH  13  18
ENDBRANCH   6  11
ENDBRANCH   1   3
BRANCH   1  24
ATOM     24  C   UNL     1       5.369  -1.932 -19.773  0.00  0.00    +0.000 C 
BRANCH  24  31
ATOM     25  O   UNL     1      10.572  -1.262 -19.367  0.00  0.00    +0.000 OA
ATOM     26  N   UNL     1       7.674  -1.084 -19.515  0.00  0.00    +0.000 N 
ATOM     27  N   UNL     1       6.714   1.539 -18.676  0.00  0.00    +0.000 N 
ATOM     28  N   UNL     1       8.927   2.194 -18.196  0.00  0.00    +0.000 NA
ATOM     29  N   UNL     1      10.753   0.859 -18.682  0.00  0.00    +0.000 N 
ATOM     30  N   UNL     1      11.054   2.957 -17.783  0.00  0.00    +0.000 N 
ATOM     31  C   UNL     1       6.297  -0.914 -19.426  0.00  0.00    +0.000 C 
ATOM     32  C   UNL     1       5.948   0.372 -18.983  0.00  0.00    +0.000 C 
ATOM     33  C   UNL     1       8.522  -0.020 -19.100  0.00  0.00    +0.000 A 
ATOM     34  C   UNL     1       8.082   1.213 -18.671  0.00  0.00    +0.000 A 
ATOM     35  C   UNL     1      10.009  -0.211 -19.074  0.00  0.00    +0.000 A 
ATOM     36  C   UNL     1      10.201   2.002 -18.221  0.00  0.00    +0.000 A 
ATOM     37  H   UNL     1       6.488   2.156 -17.902  0.00  0.00    +0.000 HD
ATOM     38  H   UNL     1      11.747   0.708 -18.622  0.00  0.00    +0.000 HD
ATOM     39  H   UNL     1      10.592   3.853 -17.653  0.00  0.00    +0.000 HD
ATOM     40  H   UNL     1      11.935   3.043 -18.272  0.00  0.00    +0.000 HD
BRANCH  26  42
ATOM     41  O   UNL     1       8.636  -3.268 -20.342  0.00  0.00    +0.000 OA
ATOM     42  C   UNL     1       8.153  -2.268 -19.955  0.00  0.00    +0.000 C 
ENDBRANCH  26  42
ENDBRANCH  24  31
ENDBRANCH   1  24
TORSDOF 10
ENDMDL
MODEL 3
REMARK VINA RESULT:      -6.3      4.213      7.256
REMARK  Name = 135403648_CalciumFolinate.pdbqt.pdb
REMARK  10 active torsions:
REMARK  status: ('A' for Active; 'I' for Inactive)
REMARK    1  A    between atoms: N_1  and  C_3
REMARK    2  A    between atoms: N_1  and  C_24
REMARK    3  A    between atoms: C_6  and  C_11
REMARK    4  A    between atoms: CA_13  and  C_15
REMARK    5  A    between atoms: CA_13  and  CB_18
REMARK    6  A    between atoms: C_15  and  O_16
REMARK    7  A    between atoms: CG_19  and  CD_21
REMARK    8  A    between atoms: CD_21  and  OE1_22
REMARK    9  A    between atoms: C_24  and  C_32
REMARK   10  A    between atoms: N_27  and  C_37
REMARK                            x       y       z     vdW  Elec       q    Type
REMARK                         _______ _______ _______ _____ _____    ______ ____
ROOT
ATOM      1  N   UNL     1      -2.177  -0.304 -17.725  0.00  0.00    +0.000 N 
ATOM      2  H   UNL     1      -2.255   0.286 -16.896  0.00  0.00    +0.000 HD
ENDROOT
BRANCH   1   3
ATOM      3  C   UNL     1      -3.422  -0.839 -18.116  0.00  0.00    +0.000 A 
ATOM      4  C   UNL     1      -4.047  -0.340 -19.263  0.00  0.00    +0.000 A 
ATOM      5  C   UNL     1      -4.142  -1.723 -17.304  0.00  0.00    +0.000 A 
ATOM      6  C   UNL     1      -6.009  -1.682 -18.835  0.00  0.00    +0.000 A 
ATOM      7  C   UNL     1      -5.323  -0.768 -19.631  0.00  0.00    +0.000 A 
ATOM      8  C   UNL     1      -5.416  -2.156 -17.665  0.00  0.00    +0.000 A 
BRANCH   6  11
ATOM      9  O   UNL     1      -7.530  -2.723 -20.269  0.00  0.00    +0.000 OA
ATOM     10  N   UNL     1      -8.355  -1.952 -18.246  0.00  0.00    +0.000 N 
ATOM     11  C   ACE A   0      -7.366  -2.169 -19.187  0.00  0.00    +0.000 C 
ATOM     12  H   UNL     1      -8.122  -1.478 -17.377  0.00  0.00    +0.000 HD
ATOM     13  CA  UNL     1      -9.689  -2.308 -18.340  0.00  0.00    +0.000 C 
BRANCH  13  15
ATOM     14  OXT UNL     1     -10.661  -2.646 -16.183  0.00  0.00    +0.000 OA
ATOM     15  C   UNL     1     -10.536  -1.947 -17.178  0.00  0.00    +0.000 C 
BRANCH  15  16
ATOM     16  O   UNL     1     -11.167  -0.769 -17.301  0.00  0.00    +0.000 OA
ATOM     17  H   UNL     1     -10.455  -0.119 -17.475  0.00  0.00    +0.000 HD
ENDBRANCH  15  16
ENDBRANCH  13  15
BRANCH  13  18
ATOM     18  CB  UNL     1     -10.217  -2.977 -19.475  0.00  0.00    +0.000 C 
ATOM     19  CG  UNL     1     -10.782  -3.711 -20.697  0.00  0.00    +0.000 C 
BRANCH  19  21
ATOM     20  OE2 UNL     1     -10.607  -5.019 -22.626  0.00  0.00    +0.000 OA
ATOM     21  CD  UNL     1     -11.303  -4.412 -21.831  0.00  0.00    +0.000 C 
BRANCH  21  22
ATOM     22  OE1 UNL     1     -12.639  -4.326 -21.963  0.00  0.00    +0.000 OA
ATOM     23  HE1 UNL     1     -12.827  -3.390 -21.749  0.00  0.00    +0.000 HD
ENDBRANCH  21  22
ENDBRANCH  19  21
ENDBRANCH  13  18
ENDBRANCH   6  11
ENDBRANCH   1   3
BRANCH   1  24
ATOM     24  C   UNL     1      -1.262   0.168 -18.758  0.00  0.00    +0.000 C 
BRANCH  24  31
ATOM     25  O   UNL     1       3.527  -1.083 -20.539  0.00  0.00    +0.000 OA
ATOM     26  N   UNL     1       0.855  -0.071 -20.004  0.00  0.00    +0.000 N 
ATOM     27  N   UNL     1       0.181   2.161 -21.758  0.00  0.00    +0.000 N 
ATOM     28  N   UNL     1       2.328   2.047 -22.725  0.00  0.00    +0.000 NA
ATOM     29  N   UNL     1       3.842   0.379 -22.201  0.00  0.00    +0.000 N 
ATOM     30  N   UNL     1       4.361   1.960 -23.792  0.00  0.00    +0.000 N 
ATOM     31  C   UNL     1      -0.351   0.580 -19.766  0.00  0.00    +0.000 C 
ATOM     32  C   UNL     1      -0.559   1.655 -20.645  0.00  0.00    +0.000 C 
ATOM     33  C   UNL     1       1.722   0.446 -21.007  0.00  0.00    +0.000 A 
ATOM     34  C   UNL     1       1.431   1.519 -21.821  0.00  0.00    +0.000 A 
ATOM     35  C   UNL     1       3.079  -0.160 -21.212  0.00  0.00    +0.000 A 
ATOM     36  C   UNL     1       3.471   1.476 -22.894  0.00  0.00    +0.000 A 
ATOM     37  H   UNL     1       0.277   3.153 -21.949  0.00  0.00    +0.000 HD
ATOM     38  H   UNL     1       4.770  -0.002 -22.301  0.00  0.00    +0.000 HD
ATOM     39  H   UNL     1       3.942   2.644 -24.416  0.00  0.00    +0.000 HD
ATOM     40  H   UNL     1       4.929   1.283 -24.284  0.00  0.00    +0.000 HD
BRANCH  26  42
ATOM     41  O   UNL     1       1.426  -2.042 -18.533  0.00  0.00    +0.000 OA
ATOM     42  C   UNL     1       1.174  -1.144 -19.249  0.00  0.00    +0.000 C 
ENDBRANCH  26  42
ENDBRANCH  24  31
ENDBRANCH   1  24
TORSDOF 10
ENDMDL
MODEL 4
REMARK VINA RESULT:      -6.0     10.554     15.695
REMARK  Name = 135403648_CalciumFolinate.pdbqt.pdb
REMARK  10 active torsions:
REMARK  status: ('A' for Active; 'I' for Inactive)
REMARK    1  A    between atoms: N_1  and  C_3
REMARK    2  A    between atoms: N_1  and  C_24
REMARK    3  A    between atoms: C_6  and  C_11
REMARK    4  A    between atoms: CA_13  and  C_15
REMARK    5  A    between atoms: CA_13  and  CB_18
REMARK    6  A    between atoms: C_15  and  O_16
REMARK    7  A    between atoms: CG_19  and  CD_21
REMARK    8  A    between atoms: CD_21  and  OE1_22
REMARK    9  A    between atoms: C_24  and  C_32
REMARK   10  A    between atoms: N_27  and  C_37
REMARK                            x       y       z     vdW  Elec       q    Type
REMARK                         _______ _______ _______ _____ _____    ______ ____
ROOT
ATOM      1  N   UNL     1      12.323  -0.753 -23.007  0.00  0.00    +0.000 N 
ATOM      2  H   UNL     1      11.478  -1.110 -23.451  0.00  0.00    +0.000 HD
ENDROOT
BRANCH   1   3
ATOM      3  C   UNL     1      13.185  -0.125 -23.932  0.00  0.00    +0.000 A 
ATOM      4  C   UNL     1      14.433   0.331 -23.498  0.00  0.00    +0.000 A 
ATOM      5  C   UNL     1      12.768   0.220 -25.222  0.00  0.00    +0.000 A 
ATOM      6  C   UNL     1      14.863   1.345 -25.647  0.00  0.00    +0.000 A 
ATOM      7  C   UNL     1      15.273   1.046 -24.351  0.00  0.00    +0.000 A 
ATOM      8  C   UNL     1      13.602   0.933 -26.081  0.00  0.00    +0.000 A 
BRANCH   6  11
ATOM      9  O   UNL     1      16.746   2.623 -26.166  0.00  0.00    +0.000 OA
ATOM     10  N   UNL     1      15.290   2.150 -27.904  0.00  0.00    +0.000 N 
ATOM     11  C   ACE A   0      15.724   2.099 -26.593  0.00  0.00    +0.000 C 
ATOM     12  H   UNL     1      14.422   1.686 -28.161  0.00  0.00    +0.000 HD
ATOM     13  CA  UNL     1      15.910   2.788 -28.964  0.00  0.00    +0.000 C 
BRANCH  13  15
ATOM     14  OXT UNL     1      14.121   2.169 -30.423  0.00  0.00    +0.000 OA
ATOM     15  C   UNL     1      15.219   2.686 -30.272  0.00  0.00    +0.000 C 
BRANCH  15  16
ATOM     16  O   UNL     1      15.901   3.216 -31.298  0.00  0.00    +0.000 OA
ATOM     17  H   UNL     1      16.645   3.700 -30.882  0.00  0.00    +0.000 HD
ENDBRANCH  15  16
ENDBRANCH  13  15
BRANCH  13  18
ATOM     18  CB  UNL     1      17.132   3.495 -28.813  0.00  0.00    +0.000 C 
ATOM     19  CG  UNL     1      18.446   4.268 -28.656  0.00  0.00    +0.000 C 
BRANCH  19  21
ATOM     20  OE2 UNL     1      20.656   4.801 -29.199  0.00  0.00    +0.000 OA
ATOM     21  CD  UNL     1      19.666   5.004 -28.519  0.00  0.00    +0.000 C 
BRANCH  21  22
ATOM     22  OE1 UNL     1      19.637   5.938 -27.551  0.00  0.00    +0.000 OA
ATOM     23  HE1 UNL     1      20.357   6.550 -27.806  0.00  0.00    +0.000 HD
ENDBRANCH  21  22
ENDBRANCH  19  21
ENDBRANCH  13  18
ENDBRANCH   6  11
ENDBRANCH   1   3
BRANCH   1  24
ATOM     24  C   UNL     1      12.147  -0.147 -21.693  0.00  0.00    +0.000 C 
BRANCH  24  31
ATOM     25  O   UNL     1      11.291  -1.803 -16.774  0.00  0.00    +0.000 OA
ATOM     26  N   UNL     1      11.835  -0.392 -19.256  0.00  0.00    +0.000 N 
ATOM     27  N   UNL     1      11.827   2.500 -18.873  0.00  0.00    +0.000 N 
ATOM     28  N   UNL     1      11.264   2.195 -16.604  0.00  0.00    +0.000 NA
ATOM     29  N   UNL     1      11.160   0.106 -15.617  0.00  0.00    +0.000 N 
ATOM     30  N   UNL     1      10.804   2.003 -14.362  0.00  0.00    +0.000 N 
ATOM     31  C   UNL     1      11.963   0.397 -20.394  0.00  0.00    +0.000 C 
ATOM     32  C   UNL     1      11.914   1.769 -20.098  0.00  0.00    +0.000 C 
ATOM     33  C   UNL     1      11.608   0.246 -18.005  0.00  0.00    +0.000 A 
ATOM     34  C   UNL     1      11.570   1.610 -17.814  0.00  0.00    +0.000 A 
ATOM     35  C   UNL     1      11.351  -0.578 -16.778  0.00  0.00    +0.000 A 
ATOM     36  C   UNL     1      11.082   1.453 -15.567  0.00  0.00    +0.000 A 
ATOM     37  H   UNL     1      11.272   3.344 -18.775  0.00  0.00    +0.000 HD
ATOM     38  H   UNL     1      10.941  -0.452 -14.807  0.00  0.00    +0.000 HD
ATOM     39  H   UNL     1      10.967   3.006 -14.351  0.00  0.00    +0.000 HD
ATOM     40  H   UNL     1      11.186   1.539 -13.548  0.00  0.00    +0.000 HD
BRANCH  26  42
ATOM     41  O   UNL     1      12.012  -2.898 -19.519  0.00  0.00    +0.000 OA
ATOM     42  C   UNL     1      11.892  -1.735 -19.389  0.00  0.00    +0.000 C 
ENDBRANCH  26  42
ENDBRANCH  24  31
ENDBRANCH   1  24
TORSDOF 10
ENDMDL
MODEL 5
REMARK VINA RESULT:      -6.0     19.279     24.420
REMARK  Name = 135403648_CalciumFolinate.pdbqt.pdb
REMARK  10 active torsions:
REMARK  status: ('A' for Active; 'I' for Inactive)
REMARK    1  A    between atoms: N_1  and  C_3
REMARK    2  A    between atoms: N_1  and  C_24
REMARK    3  A    between atoms: C_6  and  C_11
REMARK    4  A    between atoms: CA_13  and  C_15
REMARK    5  A    between atoms: CA_13  and  CB_18
REMARK    6  A    between atoms: C_15  and  O_16
REMARK    7  A    between atoms: CG_19  and  CD_21
REMARK    8  A    between atoms: CD_21  and  OE1_22
REMARK    9  A    between atoms: C_24  and  C_32
REMARK   10  A    between atoms: N_27  and  C_37
REMARK                            x       y       z     vdW  Elec       q    Type
REMARK                         _______ _______ _______ _____ _____    ______ ____
ROOT
ATOM      1  N   UNL     1     -13.554  11.112  -6.178  0.00  0.00    +0.000 N 
ATOM      2  H   UNL     1     -14.313  11.047  -5.500  0.00  0.00    +0.000 HD
ENDROOT
BRANCH   1   3
ATOM      3  C   UNL     1     -12.773  12.272  -5.993  0.00  0.00    +0.000 A 
ATOM      4  C   UNL     1     -11.884  12.329  -4.915  0.00  0.00    +0.000 A 
ATOM      5  C   UNL     1     -12.981  13.438  -6.739  0.00  0.00    +0.000 A 
ATOM      6  C   UNL     1     -11.353  14.632  -5.414  0.00  0.00    +0.000 A 
ATOM      7  C   UNL     1     -11.167  13.492  -4.636  0.00  0.00    +0.000 A 
ATOM      8  C   UNL     1     -12.268  14.603  -6.466  0.00  0.00    +0.000 A 
BRANCH   6  11
ATOM      9  O   UNL     1     -11.237  16.883  -4.805  0.00  0.00    +0.000 OA
ATOM     10  N   UNL     1      -9.241  15.839  -5.344  0.00  0.00    +0.000 N 
ATOM     11  C   ACE A   0     -10.609  15.891  -5.157  0.00  0.00    +0.000 C 
ATOM     12  H   UNL     1      -8.810  14.968  -5.643  0.00  0.00    +0.000 HD
ATOM     13  CA  UNL     1      -8.336  16.872  -5.173  0.00  0.00    +0.000 C 
BRANCH  13  15
ATOM     14  OXT UNL     1      -6.053  17.373  -5.673  0.00  0.00    +0.000 OA
ATOM     15  C   UNL     1      -6.917  16.538  -5.447  0.00  0.00    +0.000 C 
BRANCH  15  16
ATOM     16  O   UNL     1      -6.647  15.224  -5.428  0.00  0.00    +0.000 OA
ATOM     17  H   UNL     1      -7.412  14.817  -4.971  0.00  0.00    +0.000 HD
ENDBRANCH  15  16
ENDBRANCH  13  15
BRANCH  13  18
ATOM     18  CB  UNL     1      -8.736  18.170  -4.759  0.00  0.00    +0.000 C 
ATOM     19  CG  UNL     1      -9.174  19.566  -4.303  0.00  0.00    +0.000 C 
BRANCH  19  21
ATOM     20  OE2 UNL     1     -10.335  21.046  -2.915  0.00  0.00    +0.000 OA
ATOM     21  CD  UNL     1      -9.589  20.863  -3.861  0.00  0.00    +0.000 C 
BRANCH  21  22
ATOM     22  OE1 UNL     1      -9.099  21.876  -4.598  0.00  0.00    +0.000 OA
ATOM     23  HE1 UNL     1      -9.898  22.265  -5.006  0.00  0.00    +0.000 HD
ENDBRANCH  21  22
ENDBRANCH  19  21
ENDBRANCH  13  18
ENDBRANCH   6  11
ENDBRANCH   1   3
BRANCH   1  24
ATOM     24  C   UNL     1     -12.882   9.860  -6.503  0.00  0.00    +0.000 C 
BRANCH  24  31
ATOM     25  O   UNL     1     -12.191   6.704 -10.656  0.00  0.00    +0.000 OA
ATOM     26  N   UNL     1     -12.174   8.142  -8.129  0.00  0.00    +0.000 N 
ATOM     27  N   UNL     1     -10.601   6.746  -6.109  0.00  0.00    +0.000 N 
ATOM     28  N   UNL     1     -10.185   5.002  -7.640  0.00  0.00    +0.000 NA
ATOM     29  N   UNL     1     -10.854   5.103  -9.852  0.00  0.00    +0.000 N 
ATOM     30  N   UNL     1      -9.649   3.298  -9.084  0.00  0.00    +0.000 N 
ATOM     31  C   UNL     1     -12.188   8.668  -6.842  0.00  0.00    +0.000 C 
ATOM     32  C   UNL     1     -11.426   7.901  -5.946  0.00  0.00    +0.000 C 
ATOM     33  C   UNL     1     -11.489   6.917  -8.359  0.00  0.00    +0.000 A 
ATOM     34  C   UNL     1     -10.768   6.229  -7.407  0.00  0.00    +0.000 A 
ATOM     35  C   UNL     1     -11.549   6.264  -9.707  0.00  0.00    +0.000 A 
ATOM     36  C   UNL     1     -10.233   4.490  -8.822  0.00  0.00    +0.000 A 
ATOM     37  H   UNL     1     -10.565   5.995  -5.425  0.00  0.00    +0.000 HD
ATOM     38  H   UNL     1     -10.938   4.646 -10.746  0.00  0.00    +0.000 HD
ATOM     39  H   UNL     1      -9.031   3.000  -8.334  0.00  0.00    +0.000 HD
ATOM     40  H   UNL     1      -9.231   3.184  -9.998  0.00  0.00    +0.000 HD
BRANCH  26  42
ATOM     41  O   UNL     1     -13.420   9.424  -9.913  0.00  0.00    +0.000 OA
ATOM     42  C   UNL     1     -12.845   8.795  -9.103  0.00  0.00    +0.000 C 
ENDBRANCH  26  42
ENDBRANCH  24  31
ENDBRANCH   1  24
TORSDOF 10
ENDMDL
MODEL 6
REMARK VINA RESULT:      -6.0      9.564     14.047
REMARK  Name = 135403648_CalciumFolinate.pdbqt.pdb
REMARK  10 active torsions:
REMARK  status: ('A' for Active; 'I' for Inactive)
REMARK    1  A    between atoms: N_1  and  C_3
REMARK    2  A    between atoms: N_1  and  C_24
REMARK    3  A    between atoms: C_6  and  C_11
REMARK    4  A    between atoms: CA_13  and  C_15
REMARK    5  A    between atoms: CA_13  and  CB_18
REMARK    6  A    between atoms: C_15  and  O_16
REMARK    7  A    between atoms: CG_19  and  CD_21
REMARK    8  A    between atoms: CD_21  and  OE1_22
REMARK    9  A    between atoms: C_24  and  C_32
REMARK   10  A    between atoms: N_27  and  C_37
REMARK                            x       y       z     vdW  Elec       q    Type
REMARK                         _______ _______ _______ _____ _____    ______ ____
ROOT
ATOM      1  N   UNL     1      13.914   0.759 -25.982  0.00  0.00    +0.000 N 
ATOM      2  H   UNL     1      14.039  -0.222 -26.230  0.00  0.00    +0.000 HD
ENDROOT
BRANCH   1   3
ATOM      3  C   UNL     1      13.495   0.921 -24.645  0.00  0.00    +0.000 A 
ATOM      4  C   UNL     1      12.328   0.281 -24.214  0.00  0.00    +0.000 A 
ATOM      5  C   UNL     1      14.100   1.841 -23.781  0.00  0.00    +0.000 A 
ATOM      6  C   UNL     1      12.461   1.380 -22.068  0.00  0.00    +0.000 A 
ATOM      7  C   UNL     1      11.823   0.495 -22.932  0.00  0.00    +0.000 A 
ATOM      8  C   UNL     1      13.602   2.059 -22.498  0.00  0.00    +0.000 A 
BRANCH   6  11
ATOM      9  O   UNL     1      12.699   1.388 -19.745  0.00  0.00    +0.000 OA
ATOM     10  N   UNL     1      10.681   2.143 -20.594  0.00  0.00    +0.000 N 
ATOM     11  C   ACE A   0      11.963   1.636 -20.693  0.00  0.00    +0.000 C 
ATOM     12  H   UNL     1      10.144   2.312 -21.441  0.00  0.00    +0.000 HD
ATOM     13  CA  UNL     1       9.996   2.460 -19.434  0.00  0.00    +0.000 C 
BRANCH  13  15
ATOM     14  OXT UNL     1       7.874   3.276 -18.698  0.00  0.00    +0.000 OA
ATOM     15  C   UNL     1       8.622   2.986 -19.620  0.00  0.00    +0.000 C 
BRANCH  15  16
ATOM     16  O   UNL     1       8.254   3.124 -20.903  0.00  0.00    +0.000 OA
ATOM     17  H   UNL     1       8.831   2.506 -21.398  0.00  0.00    +0.000 HD
ENDBRANCH  15  16
ENDBRANCH  13  15
BRANCH  13  18
ATOM     18  CB  UNL     1      10.570   2.295 -18.146  0.00  0.00    +0.000 C 
ATOM     19  CG  UNL     1      11.197   2.108 -16.760  0.00  0.00    +0.000 C 
BRANCH  19  21
ATOM     20  OE2 UNL     1      12.960   1.605 -15.310  0.00  0.00    +0.000 OA
ATOM     21  CD  UNL     1      11.795   1.922 -15.473  0.00  0.00    +0.000 C 
BRANCH  21  22
ATOM     22  OE1 UNL     1      10.949   2.106 -14.443  0.00  0.00    +0.000 OA
ATOM     23  HE1 UNL     1      11.521   1.993 -13.658  0.00  0.00    +0.000 HD
ENDBRANCH  21  22
ENDBRANCH  19  21
ENDBRANCH  13  18
ENDBRANCH   6  11
ENDBRANCH   1   3
BRANCH   1  24
ATOM     24  C   UNL     1      14.903   1.683 -26.522  0.00  0.00    +0.000 C 
BRANCH  24  31
ATOM     25  O   UNL     1      17.185   2.870 -31.112  0.00  0.00    +0.000 OA
ATOM     26  N   UNL     1      16.201   2.654 -28.385  0.00  0.00    +0.000 N 
ATOM     27  N   UNL     1      17.660   4.414 -26.573  0.00  0.00    +0.000 N 
ATOM     28  N   UNL     1      19.043   5.099 -28.356  0.00  0.00    +0.000 NA
ATOM     29  N   UNL     1      18.677   4.433 -30.541  0.00  0.00    +0.000 N 
ATOM     30  N   UNL     1      20.383   5.898 -30.042  0.00  0.00    +0.000 N 
ATOM     31  C   UNL     1      15.904   2.553 -27.030  0.00  0.00    +0.000 C 
ATOM     32  C   UNL     1      16.686   3.420 -26.249  0.00  0.00    +0.000 C 
ATOM     33  C   UNL     1      17.253   3.521 -28.791  0.00  0.00    +0.000 A 
ATOM     34  C   UNL     1      17.973   4.334 -27.943  0.00  0.00    +0.000 A 
ATOM     35  C   UNL     1      17.675   3.567 -30.230  0.00  0.00    +0.000 A 
ATOM     36  C   UNL     1      19.352   5.136 -29.606  0.00  0.00    +0.000 A 
ATOM     37  H   UNL     1      18.500   4.561 -26.021  0.00  0.00    +0.000 HD
ATOM     38  H   UNL     1      18.987   4.425 -31.500  0.00  0.00    +0.000 HD
ATOM     39  H   UNL     1      20.704   6.550 -29.332  0.00  0.00    +0.000 HD
ATOM     40  H   UNL     1      20.279   6.332 -30.950  0.00  0.00    +0.000 HD
BRANCH  26  42
ATOM     41  O   UNL     1      14.850   1.222 -29.967  0.00  0.00    +0.000 OA
ATOM     42  C   UNL     1      15.504   1.895 -29.259  0.00  0.00    +0.000 C 
ENDBRANCH  26  42
ENDBRANCH  24  31
ENDBRANCH   1  24
TORSDOF 10
ENDMDL
MODEL 7
REMARK VINA RESULT:      -6.0     18.695     23.851
REMARK  Name = 135403648_CalciumFolinate.pdbqt.pdb
REMARK  10 active torsions:
REMARK  status: ('A' for Active; 'I' for Inactive)
REMARK    1  A    between atoms: N_1  and  C_3
REMARK    2  A    between atoms: N_1  and  C_24
REMARK    3  A    between atoms: C_6  and  C_11
REMARK    4  A    between atoms: CA_13  and  C_15
REMARK    5  A    between atoms: CA_13  and  CB_18
REMARK    6  A    between atoms: C_15  and  O_16
REMARK    7  A    between atoms: CG_19  and  CD_21
REMARK    8  A    between atoms: CD_21  and  OE1_22
REMARK    9  A    between atoms: C_24  and  C_32
REMARK   10  A    between atoms: N_27  and  C_37
REMARK                            x       y       z     vdW  Elec       q    Type
REMARK                         _______ _______ _______ _____ _____    ______ ____
ROOT
ATOM      1  N   UNL     1     -14.113  10.058  -7.070  0.00  0.00    +0.000 N 
ATOM      2  H   UNL     1     -14.810   9.900  -6.343  0.00  0.00    +0.000 HD
ENDROOT
BRANCH   1   3
ATOM      3  C   UNL     1     -13.531  11.340  -6.980  0.00  0.00    +0.000 A 
ATOM      4  C   UNL     1     -13.113  11.811  -5.731  0.00  0.00    +0.000 A 
ATOM      5  C   UNL     1     -13.519  12.231  -8.059  0.00  0.00    +0.000 A 
ATOM      6  C   UNL     1     -12.579  13.970  -6.671  0.00  0.00    +0.000 A 
ATOM      7  C   UNL     1     -12.626  13.109  -5.579  0.00  0.00    +0.000 A 
ATOM      8  C   UNL     1     -13.033  13.529  -7.915  0.00  0.00    +0.000 A 
BRANCH   6  11
ATOM      9  O   UNL     1     -12.715  16.269  -7.061  0.00  0.00    +0.000 OA
ATOM     10  N   UNL     1     -10.868  15.512  -5.884  0.00  0.00    +0.000 N 
ATOM     11  C   ACE A   0     -12.065  15.359  -6.559  0.00  0.00    +0.000 C 
ATOM     12  H   UNL     1     -10.400  14.693  -5.506  0.00  0.00    +0.000 HD
ATOM     13  CA  UNL     1     -10.188  16.694  -5.651  0.00  0.00    +0.000 C 
BRANCH  13  15
ATOM     14  OXT UNL     1      -8.619  17.268  -3.941  0.00  0.00    +0.000 OA
ATOM     15  C   UNL     1      -8.916  16.569  -4.899  0.00  0.00    +0.000 C 
BRANCH  15  16
ATOM     16  O   UNL     1      -8.098  15.609  -5.357  0.00  0.00    +0.000 OA
ATOM     17  H   UNL     1      -8.617  14.780  -5.283  0.00  0.00    +0.000 HD
ENDBRANCH  15  16
ENDBRANCH  13  15
BRANCH  13  18
ATOM     18  CB  UNL     1     -10.675  17.950  -6.099  0.00  0.00    +0.000 C 
ATOM     19  CG  UNL     1     -11.190  19.311  -6.583  0.00  0.00    +0.000 C 
BRANCH  19  21
ATOM     20  OE2 UNL     1     -11.122  21.217  -7.934  0.00  0.00    +0.000 OA
ATOM     21  CD  UNL     1     -11.652  20.588  -7.035  0.00  0.00    +0.000 C 
BRANCH  21  22
ATOM     22  OE1 UNL     1     -12.722  21.053  -6.365  0.00  0.00    +0.000 OA
ATOM     23  HE1 UNL     1     -13.475  20.613  -6.808  0.00  0.00    +0.000 HD
ENDBRANCH  21  22
ENDBRANCH  19  21
ENDBRANCH  13  18
ENDBRANCH   6  11
ENDBRANCH   1   3
BRANCH   1  24
ATOM     24  C   UNL     1     -13.257   8.922  -7.390  0.00  0.00    +0.000 C 
BRANCH  24  31
ATOM     25  O   UNL     1     -11.902   5.880 -11.463  0.00  0.00    +0.000 OA
ATOM     26  N   UNL     1     -12.226   7.316  -8.956  0.00  0.00    +0.000 N 
ATOM     27  N   UNL     1     -10.581   6.166  -6.839  0.00  0.00    +0.000 N 
ATOM     28  N   UNL     1      -9.840   4.493  -8.326  0.00  0.00    +0.000 NA
ATOM     29  N   UNL     1     -10.396   4.489 -10.572  0.00  0.00    +0.000 N 
ATOM     30  N   UNL     1      -8.990   2.877  -9.720  0.00  0.00    +0.000 N 
ATOM     31  C   UNL     1     -12.384   7.840  -7.678  0.00  0.00    +0.000 C 
ATOM     32  C   UNL     1     -11.570   7.193  -6.734  0.00  0.00    +0.000 C 
ATOM     33  C   UNL     1     -11.362   6.200  -9.135  0.00  0.00    +0.000 A 
ATOM     34  C   UNL     1     -10.603   5.626  -8.138  0.00  0.00    +0.000 A 
ATOM     35  C   UNL     1     -11.256   5.539 -10.477  0.00  0.00    +0.000 A 
ATOM     36  C   UNL     1      -9.751   3.975  -9.503  0.00  0.00    +0.000 A 
ATOM     37  H   UNL     1     -10.476   5.431  -6.146  0.00  0.00    +0.000 HD
ATOM     38  H   UNL     1     -10.366   4.021 -11.463  0.00  0.00    +0.000 HD
ATOM     39  H   UNL     1      -8.378   2.674  -8.934  0.00  0.00    +0.000 HD
ATOM     40  H   UNL     1      -8.512   2.820 -10.609  0.00  0.00    +0.000 HD
BRANCH  26  42
ATOM     41  O   UNL     1     -13.507   8.400 -10.843  0.00  0.00    +0.000 OA
ATOM     42  C   UNL     1     -12.929   7.862  -9.972  0.00  0.00    +0.000 C 
ENDBRANCH  26  42
ENDBRANCH  24  31
ENDBRANCH   1  24
TORSDOF 10
ENDMDL
MODEL 8
REMARK VINA RESULT:      -6.0     17.412     20.030
REMARK  Name = 135403648_CalciumFolinate.pdbqt.pdb
REMARK  10 active torsions:
REMARK  status: ('A' for Active; 'I' for Inactive)
REMARK    1  A    between atoms: N_1  and  C_3
REMARK    2  A    between atoms: N_1  and  C_24
REMARK    3  A    between atoms: C_6  and  C_11
REMARK    4  A    between atoms: CA_13  and  C_15
REMARK    5  A    between atoms: CA_13  and  CB_18
REMARK    6  A    between atoms: C_15  and  O_16
REMARK    7  A    between atoms: CG_19  and  CD_21
REMARK    8  A    between atoms: CD_21  and  OE1_22
REMARK    9  A    between atoms: C_24  and  C_32
REMARK   10  A    between atoms: N_27  and  C_37
REMARK                            x       y       z     vdW  Elec       q    Type
REMARK                         _______ _______ _______ _____ _____    ______ ____
ROOT
ATOM      1  N   UNL     1     -16.846   5.648 -13.002  0.00  0.00    +0.000 N 
ATOM      2  H   UNL     1     -17.486   6.441 -12.989  0.00  0.00    +0.000 HD
ENDROOT
BRANCH   1   3
ATOM      3  C   UNL     1     -16.508   5.258 -14.316  0.00  0.00    +0.000 A 
ATOM      4  C   UNL     1     -15.209   4.817 -14.583  0.00  0.00    +0.000 A 
ATOM      5  C   UNL     1     -17.370   5.465 -15.399  0.00  0.00    +0.000 A 
ATOM      6  C   UNL     1     -15.686   4.689 -16.947  0.00  0.00    +0.000 A 
ATOM      7  C   UNL     1     -14.803   4.519 -15.883  0.00  0.00    +0.000 A 
ATOM      8  C   UNL     1     -16.973   5.169 -16.701  0.00  0.00    +0.000 A 
BRANCH   6  11
ATOM      9  O   UNL     1     -14.186   4.709 -18.736  0.00  0.00    +0.000 OA
ATOM     10  N   UNL     1     -16.255   3.737 -19.113  0.00  0.00    +0.000 N 
ATOM     11  C   ACE A   0     -15.301   4.381 -18.347  0.00  0.00    +0.000 C 
ATOM     12  H   UNL     1     -17.156   3.510 -18.701  0.00  0.00    +0.000 HD
ATOM     13  CA  UNL     1     -16.139   3.348 -20.436  0.00  0.00    +0.000 C 
BRANCH  13  15
ATOM     14  OXT UNL     1     -17.364   2.223 -22.151  0.00  0.00    +0.000 OA
ATOM     15  C   UNL     1     -17.326   2.675 -21.017  0.00  0.00    +0.000 C 
BRANCH  15  16
ATOM     16  O   UNL     1     -18.376   2.597 -20.185  0.00  0.00    +0.000 OA
ATOM     17  H   UNL     1     -18.289   3.375 -19.596  0.00  0.00    +0.000 HD
ENDBRANCH  15  16
ENDBRANCH  13  15
BRANCH  13  18
ATOM     18  CB  UNL     1     -14.959   3.576 -21.192  0.00  0.00    +0.000 C 
ATOM     19  CG  UNL     1     -13.679   3.815 -22.001  0.00  0.00    +0.000 C 
BRANCH  19  21
ATOM     20  OE2 UNL     1     -12.168   3.376 -23.730  0.00  0.00    +0.000 OA
ATOM     21  CD  UNL     1     -12.475   4.025 -22.746  0.00  0.00    +0.000 C 
BRANCH  21  22
ATOM     22  OE1 UNL     1     -11.687   4.998 -22.251  0.00  0.00    +0.000 OA
ATOM     23  HE1 UNL     1     -11.033   4.507 -21.714  0.00  0.00    +0.000 HD
ENDBRANCH  21  22
ENDBRANCH  19  21
ENDBRANCH  13  18
ENDBRANCH   6  11
ENDBRANCH   1   3
BRANCH   1  24
ATOM     24  C   UNL     1     -15.802   5.655 -11.985  0.00  0.00    +0.000 C 
BRANCH  24  31
ATOM     25  O   UNL     1     -12.580   9.156  -9.741  0.00  0.00    +0.000 OA
ATOM     26  N   UNL     1     -14.157   6.872 -10.603  0.00  0.00    +0.000 N 
ATOM     27  N   UNL     1     -13.247   4.402  -9.346  0.00  0.00    +0.000 N 
ATOM     28  N   UNL     1     -11.525   5.591  -8.260  0.00  0.00    +0.000 NA
ATOM     29  N   UNL     1     -11.340   7.894  -8.374  0.00  0.00    +0.000 N 
ATOM     30  N   UNL     1      -9.872   6.673  -7.088  0.00  0.00    +0.000 N 
ATOM     31  C   UNL     1     -14.755   5.690 -11.026  0.00  0.00    +0.000 C 
ATOM     32  C   UNL     1     -14.220   4.563 -10.381  0.00  0.00    +0.000 C 
ATOM     33  C   UNL     1     -13.084   6.799  -9.672  0.00  0.00    +0.000 A 
ATOM     34  C   UNL     1     -12.622   5.637  -9.094  0.00  0.00    +0.000 A 
ATOM     35  C   UNL     1     -12.343   8.043  -9.282  0.00  0.00    +0.000 A 
ATOM     36  C   UNL     1     -10.936   6.687  -7.924  0.00  0.00    +0.000 A 
ATOM     37  H   UNL     1     -12.567   3.648  -9.344  0.00  0.00    +0.000 HD
ATOM     38  H   UNL     1     -10.817   8.726  -8.153  0.00  0.00    +0.000 HD
ATOM     39  H   UNL     1      -9.757   5.773  -6.630  0.00  0.00    +0.000 HD
ATOM     40  H   UNL     1      -9.784   7.449  -6.446  0.00  0.00    +0.000 HD
BRANCH  26  42
ATOM     41  O   UNL     1     -14.926   9.091 -11.531  0.00  0.00    +0.000 OA
ATOM     42  C   UNL     1     -14.594   8.041 -11.121  0.00  0.00    +0.000 C 
ENDBRANCH  26  42
ENDBRANCH  24  31
ENDBRANCH   1  24
TORSDOF 10
ENDMDL
MODEL 9
REMARK VINA RESULT:      -5.9     19.925     21.257
REMARK  Name = 135403648_CalciumFolinate.pdbqt.pdb
REMARK  10 active torsions:
REMARK  status: ('A' for Active; 'I' for Inactive)
REMARK    1  A    between atoms: N_1  and  C_3
REMARK    2  A    between atoms: N_1  and  C_24
REMARK    3  A    between atoms: C_6  and  C_11
REMARK    4  A    between atoms: CA_13  and  C_15
REMARK    5  A    between atoms: CA_13  and  CB_18
REMARK    6  A    between atoms: C_15  and  O_16
REMARK    7  A    between atoms: CG_19  and  CD_21
REMARK    8  A    between atoms: CD_21  and  OE1_22
REMARK    9  A    between atoms: C_24  and  C_32
REMARK   10  A    between atoms: N_27  and  C_37
REMARK                            x       y       z     vdW  Elec       q    Type
REMARK                         _______ _______ _______ _____ _____    ______ ____
ROOT
ATOM      1  N   UNL     1      12.205  -9.536  -2.735  0.00  0.00    +0.000 N 
ATOM      2  H   UNL     1      12.823  -9.329  -1.951  0.00  0.00    +0.000 HD
ENDROOT
BRANCH   1   3
ATOM      3  C   UNL     1      11.497 -10.742  -2.551  0.00  0.00    +0.000 A 
ATOM      4  C   UNL     1      10.489 -10.799  -1.584  0.00  0.00    +0.000 A 
ATOM      5  C   UNL     1      11.884 -11.936  -3.172  0.00  0.00    +0.000 A 
ATOM      6  C   UNL     1      10.200 -13.168  -1.955  0.00  0.00    +0.000 A 
ATOM      7  C   UNL     1       9.834 -11.997  -1.298  0.00  0.00    +0.000 A 
ATOM      8  C   UNL     1      11.234 -13.136  -2.892  0.00  0.00    +0.000 A 
BRANCH   6  11
ATOM      9  O   UNL     1      10.222 -15.460  -1.511  0.00  0.00    +0.000 OA
ATOM     10  N   UNL     1       8.147 -14.442  -1.662  0.00  0.00    +0.000 N 
ATOM     11  C   ACE A   0       9.529 -14.465  -1.688  0.00  0.00    +0.000 C 
ATOM     12  H   UNL     1       7.659 -13.564  -1.825  0.00  0.00    +0.000 HD
ATOM     13  CA  UNL     1       7.299 -15.511  -1.437  0.00  0.00    +0.000 C 
BRANCH  13  15
ATOM     14  OXT UNL     1       5.303 -14.419  -0.705  0.00  0.00    +0.000 OA
ATOM     15  C   UNL     1       5.849 -15.202  -1.469  0.00  0.00    +0.000 C 
BRANCH  15  16
ATOM     16  O   UNL     1       5.167 -15.859  -2.419  0.00  0.00    +0.000 OA
ATOM     17  H   UNL     1       4.228 -15.622  -2.264  0.00  0.00    +0.000 HD
ENDBRANCH  15  16
ENDBRANCH  13  15
BRANCH  13  18
ATOM     18  CB  UNL     1       7.782 -16.823  -1.189  0.00  0.00    +0.000 C 
ATOM     19  CG  UNL     1       8.300 -18.239  -0.911  0.00  0.00    +0.000 C 
BRANCH  19  21
ATOM     20  OE2 UNL     1       8.846 -20.030   0.488  0.00  0.00    +0.000 OA
ATOM     21  CD  UNL     1       8.775 -19.560  -0.634  0.00  0.00    +0.000 C 
BRANCH  21  22
ATOM     22  OE1 UNL     1       9.163 -20.244  -1.726  0.00  0.00    +0.000 OA
ATOM     23  HE1 UNL     1       8.319 -20.557  -2.108  0.00  0.00    +0.000 HD
ENDBRANCH  21  22
ENDBRANCH  19  21
ENDBRANCH  13  18
ENDBRANCH   6  11
ENDBRANCH   1   3
BRANCH   1  24
ATOM     24  C   UNL     1      11.504  -8.395  -3.312  0.00  0.00    +0.000 C 
BRANCH  24  31
ATOM     25  O   UNL     1      11.316  -5.944  -7.963  0.00  0.00    +0.000 OA
ATOM     26  N   UNL     1      10.992  -6.972  -5.263  0.00  0.00    +0.000 N 
ATOM     27  N   UNL     1       9.163  -5.325  -3.698  0.00  0.00    +0.000 N 
ATOM     28  N   UNL     1       8.928  -3.853  -5.525  0.00  0.00    +0.000 NA
ATOM     29  N   UNL     1       9.872  -4.277  -7.594  0.00  0.00    +0.000 N 
ATOM     30  N   UNL     1       8.564  -2.410  -7.275  0.00  0.00    +0.000 N 
ATOM     31  C   UNL     1      10.848  -7.291  -3.917  0.00  0.00    +0.000 C 
ATOM     32  C   UNL     1       9.972  -6.416  -3.255  0.00  0.00    +0.000 C 
ATOM     33  C   UNL     1      10.330  -5.818  -5.766  0.00  0.00    +0.000 A 
ATOM     34  C   UNL     1       9.488  -5.012  -5.031  0.00  0.00    +0.000 A 
ATOM     35  C   UNL     1      10.555  -5.380  -7.183  0.00  0.00    +0.000 A 
ATOM     36  C   UNL     1       9.121  -3.530  -6.758  0.00  0.00    +0.000 A 
ATOM     37  H   UNL     1       9.034  -4.479  -3.152  0.00  0.00    +0.000 HD
ATOM     38  H   UNL     1      10.065  -3.962  -8.532  0.00  0.00    +0.000 HD
ATOM     39  H   UNL     1       7.853  -2.017  -6.663  0.00  0.00    +0.000 HD
ATOM     40  H   UNL     1       8.264  -2.452  -8.240  0.00  0.00    +0.000 HD
BRANCH  26  42
ATOM     41  O   UNL     1      12.452  -8.482  -6.666  0.00  0.00    +0.000 OA
ATOM     42  C   UNL     1      11.787  -7.748  -6.032  0.00  0.00    +0.000 C 
ENDBRANCH  26  42
ENDBRANCH  24  31
ENDBRANCH   1  24
TORSDOF 10
ENDMDL
