MODEL 1
REMARK VINA RESULT:      -7.7      0.000      0.000
REMARK  Name = 14132199_RiccardinD.pdbqt.pdb
REMARK  3 active torsions:
REMARK  status: ('A' for Active; 'I' for Inactive)
REMARK    1  A    between atoms: C_11  and  O_30
REMARK    2  A    between atoms: C_16  and  O_32
REMARK    3  A    between atoms: C_28  and  O_34
REMARK                            x       y       z     vdW  Elec       q    Type
REMARK                         _______ _______ _______ _____ _____    ______ ____
ROOT
ATOM      1  O   UNL     1       4.263  -2.920 -19.716  0.00  0.00    +0.000 OA
ATOM      2  C   UNL     1      10.220  -0.621 -22.470  0.00  0.00    +0.000 C 
ATOM      3  C   UNL     1      11.318   0.284 -22.654  0.00  0.00    +0.000 A 
ATOM      4  C   UNL     1      11.388   1.519 -21.958  0.00  0.00    +0.000 A 
ATOM      5  C   UNL     1       8.993  -1.486 -22.140  0.00  0.00    +0.000 C 
ATOM      6  C   UNL     1       6.776   2.199 -18.806  0.00  0.00    +0.000 C 
ATOM      7  C   UNL     1      10.264   1.977 -21.111  0.00  0.00    +0.000 A 
ATOM      8  C   UNL     1       7.967   2.443 -19.550  0.00  0.00    +0.000 A 
ATOM      9  C   UNL     1       5.529   1.484 -18.280  0.00  0.00    +0.000 C 
ATOM     10  C   UNL     1       7.803  -2.130 -21.689  0.00  0.00    +0.000 A 
ATOM     11  C   UNL     1      10.348   2.119 -19.718  0.00  0.00    +0.000 A 
ATOM     12  C   UNL     1       4.580   0.432 -18.162  0.00  0.00    +0.000 A 
ATOM     13  C   UNL     1       9.014   2.197 -21.707  0.00  0.00    +0.000 A 
ATOM     14  C   UNL     1       9.210   2.328 -18.936  0.00  0.00    +0.000 A 
ATOM     15  C   UNL     1       7.875   2.418 -20.939  0.00  0.00    +0.000 A 
ATOM     16  C   UNL     1      12.559   2.281 -22.129  0.00  0.00    +0.000 A 
ATOM     17  C   UNL     1      12.347  -0.120 -23.507  0.00  0.00    +0.000 A 
ATOM     18  C   UNL     1      13.575   1.882 -22.997  0.00  0.00    +0.000 A 
ATOM     19  C   UNL     1      13.464   0.685 -23.694  0.00  0.00    +0.000 A 
ATOM     20  C   UNL     1       4.844  -0.692 -18.936  0.00  0.00    +0.000 A 
ATOM     21  C   UNL     1       6.589  -1.858 -22.321  0.00  0.00    +0.000 A 
ATOM     22  C   UNL     1       7.827  -2.852 -20.495  0.00  0.00    +0.000 A 
ATOM     23  C   UNL     1       4.004  -1.800 -18.942  0.00  0.00    +0.000 A 
ATOM     24  C   UNL     1       3.449   0.467 -17.360  0.00  0.00    +0.000 A 
ATOM     25  C   UNL     1       5.423  -2.851 -20.466  0.00  0.00    +0.000 A 
ATOM     26  C   UNL     1       5.391  -2.229 -21.716  0.00  0.00    +0.000 A 
ATOM     27  C   UNL     1       6.633  -3.227 -19.882  0.00  0.00    +0.000 A 
ATOM     28  C   UNL     1       2.871  -1.764 -18.138  0.00  0.00    +0.000 A 
ATOM     29  C   UNL     1       2.593  -0.641 -17.351  0.00  0.00    +0.000 A 
ENDROOT
BRANCH  11  30
ATOM     30  O   UNL     1      11.571   2.033 -19.106  0.00  0.00    +0.000 OA
ATOM     31  H   UNL     1      11.481   2.382 -18.199  0.00  0.00    +0.000 HD
ENDBRANCH  11  30
BRANCH  16  32
ATOM     32  O   UNL     1      12.781   3.445 -21.441  0.00  0.00    +0.000 OA
ATOM     33  H   UNL     1      12.211   4.125 -21.848  0.00  0.00    +0.000 HD
ENDBRANCH  16  32
BRANCH  28  34
ATOM     34  O   UNL     1       1.999  -2.815 -18.091  0.00  0.00    +0.000 OA
ATOM     35  H   UNL     1       1.579  -2.804 -17.212  0.00  0.00    +0.000 HD
ENDBRANCH  28  34
TORSDOF 3
ENDMDL
MODEL 2
REMARK VINA RESULT:      -7.4     17.790     20.772
REMARK  Name = 14132199_RiccardinD.pdbqt.pdb
REMARK  3 active torsions:
REMARK  status: ('A' for Active; 'I' for Inactive)
REMARK    1  A    between atoms: C_11  and  O_30
REMARK    2  A    between atoms: C_16  and  O_32
REMARK    3  A    between atoms: C_28  and  O_34
REMARK                            x       y       z     vdW  Elec       q    Type
REMARK                         _______ _______ _______ _____ _____    ______ ____
ROOT
ATOM      1  O   UNL     1       5.302 -15.763 -10.720  0.00  0.00    +0.000 OA
ATOM      2  C   UNL     1       1.437 -16.039 -16.495  0.00  0.00    +0.000 C 
ATOM      3  C   UNL     1       0.375 -16.499 -17.343  0.00  0.00    +0.000 A 
ATOM      4  C   UNL     1      -0.500 -17.541 -16.940  0.00  0.00    +0.000 A 
ATOM      5  C   UNL     1       2.502 -15.645 -15.459  0.00  0.00    +0.000 C 
ATOM      6  C   UNL     1       1.052 -19.492 -11.895  0.00  0.00    +0.000 C 
ATOM      7  C   UNL     1      -0.270 -18.279 -15.678  0.00  0.00    +0.000 A 
ATOM      8  C   UNL     1       0.462 -19.369 -13.186  0.00  0.00    +0.000 A 
ATOM      9  C   UNL     1       1.973 -19.224 -10.702  0.00  0.00    +0.000 C 
ATOM     10  C   UNL     1       3.395 -15.430 -14.367  0.00  0.00    +0.000 A 
ATOM     11  C   UNL     1      -1.139 -18.227 -14.577  0.00  0.00    +0.000 A 
ATOM     12  C   UNL     1       3.009 -18.581  -9.972  0.00  0.00    +0.000 A 
ATOM     13  C   UNL     1       0.922 -19.000 -15.523  0.00  0.00    +0.000 A 
ATOM     14  C   UNL     1      -0.773 -18.746 -13.333  0.00  0.00    +0.000 A 
ATOM     15  C   UNL     1       1.293 -19.532 -14.292  0.00  0.00    +0.000 A 
ATOM     16  C   UNL     1      -1.572 -17.841 -17.800  0.00  0.00    +0.000 A 
ATOM     17  C   UNL     1       0.201 -15.846 -18.566  0.00  0.00    +0.000 A 
ATOM     18  C   UNL     1      -1.730 -17.200 -19.028  0.00  0.00    +0.000 A 
ATOM     19  C   UNL     1      -0.837 -16.208 -19.415  0.00  0.00    +0.000 A 
ATOM     20  C   UNL     1       3.634 -17.530 -10.634  0.00  0.00    +0.000 A 
ATOM     21  C   UNL     1       4.561 -16.191 -14.269  0.00  0.00    +0.000 A 
ATOM     22  C   UNL     1       2.991 -14.622 -13.303  0.00  0.00    +0.000 A 
ATOM     23  C   UNL     1       4.675 -16.808 -10.061  0.00  0.00    +0.000 A 
ATOM     24  C   UNL     1       3.422 -18.934  -8.696  0.00  0.00    +0.000 A 
ATOM     25  C   UNL     1       4.802 -15.490 -11.980  0.00  0.00    +0.000 A 
ATOM     26  C   UNL     1       5.277 -16.215 -13.075  0.00  0.00    +0.000 A 
ATOM     27  C   UNL     1       3.702 -14.640 -12.105  0.00  0.00    +0.000 A 
ATOM     28  C   UNL     1       5.088 -17.164  -8.782  0.00  0.00    +0.000 A 
ATOM     29  C   UNL     1       4.468 -18.218  -8.102  0.00  0.00    +0.000 A 
ENDROOT
BRANCH  11  30
ATOM     30  O   UNL     1      -2.367 -17.637 -14.718  0.00  0.00    +0.000 OA
ATOM     31  H   UNL     1      -2.230 -16.683 -14.877  0.00  0.00    +0.000 HD
ENDBRANCH  11  30
BRANCH  16  32
ATOM     32  O   UNL     1      -2.533 -18.763 -17.478  0.00  0.00    +0.000 OA
ATOM     33  H   UNL     1      -3.131 -18.333 -16.837  0.00  0.00    +0.000 HD
ENDBRANCH  16  32
BRANCH  28  34
ATOM     34  O   UNL     1       6.104 -16.501  -8.153  0.00  0.00    +0.000 OA
ATOM     35  H   UNL     1       6.590 -17.155  -7.619  0.00  0.00    +0.000 HD
ENDBRANCH  28  34
TORSDOF 3
ENDMDL
MODEL 3
REMARK VINA RESULT:      -7.3     16.925     20.695
REMARK  Name = 14132199_RiccardinD.pdbqt.pdb
REMARK  3 active torsions:
REMARK  status: ('A' for Active; 'I' for Inactive)
REMARK    1  A    between atoms: C_11  and  O_30
REMARK    2  A    between atoms: C_16  and  O_32
REMARK    3  A    between atoms: C_28  and  O_34
REMARK                            x       y       z     vdW  Elec       q    Type
REMARK                         _______ _______ _______ _____ _____    ______ ____
ROOT
ATOM      1  O   UNL     1       2.840  17.347 -19.739  0.00  0.00    +0.000 OA
ATOM      2  C   UNL     1      -2.267  18.166 -15.090  0.00  0.00    +0.000 C 
ATOM      3  C   UNL     1      -3.493  17.846 -14.416  0.00  0.00    +0.000 A 
ATOM      4  C   UNL     1      -4.301  16.753 -14.823  0.00  0.00    +0.000 A 
ATOM      5  C   UNL     1      -0.973  18.356 -15.898  0.00  0.00    +0.000 C 
ATOM      6  C   UNL     1      -2.051  14.299 -19.360  0.00  0.00    +0.000 C 
ATOM      7  C   UNL     1      -3.972  15.978 -16.040  0.00  0.00    +0.000 A 
ATOM      8  C   UNL     1      -2.963  14.719 -18.348  0.00  0.00    +0.000 A 
ATOM      9  C   UNL     1      -0.802  14.258 -20.245  0.00  0.00    +0.000 C 
ATOM     10  C   UNL     1       0.167  18.350 -16.756  0.00  0.00    +0.000 A 
ATOM     11  C   UNL     1      -3.581  14.631 -16.022  0.00  0.00    +0.000 A 
ATOM     12  C   UNL     1       0.471  14.668 -20.724  0.00  0.00    +0.000 A 
ATOM     13  C   UNL     1      -3.955  16.637 -17.278  0.00  0.00    +0.000 A 
ATOM     14  C   UNL     1      -3.059  14.006 -17.157  0.00  0.00    +0.000 A 
ATOM     15  C   UNL     1      -3.448  16.022 -18.419  0.00  0.00    +0.000 A 
ATOM     16  C   UNL     1      -5.425  16.461 -14.029  0.00  0.00    +0.000 A 
ATOM     17  C   UNL     1      -3.838  18.622 -13.308  0.00  0.00    +0.000 A 
ATOM     18  C   UNL     1      -5.776  17.251 -12.934  0.00  0.00    +0.000 A 
ATOM     19  C   UNL     1      -4.986  18.338 -12.579  0.00  0.00    +0.000 A 
ATOM     20  C   UNL     1       1.038  15.744 -20.050  0.00  0.00    +0.000 A 
ATOM     21  C   UNL     1       0.112  19.018 -17.980  0.00  0.00    +0.000 A 
ATOM     22  C   UNL     1       1.238  17.504 -16.464  0.00  0.00    +0.000 A 
ATOM     23  C   UNL     1       2.274  16.273 -20.406  0.00  0.00    +0.000 A 
ATOM     24  C   UNL     1       1.147  14.087 -21.786  0.00  0.00    +0.000 A 
ATOM     25  C   UNL     1       2.085  17.839 -18.689  0.00  0.00    +0.000 A 
ATOM     26  C   UNL     1       1.081  18.773 -18.950  0.00  0.00    +0.000 A 
ATOM     27  C   UNL     1       2.211  17.253 -17.429  0.00  0.00    +0.000 A 
ATOM     28  C   UNL     1       2.950  15.689 -21.472  0.00  0.00    +0.000 A 
ATOM     29  C   UNL     1       2.394  14.604 -22.159  0.00  0.00    +0.000 A 
ENDROOT
BRANCH  11  30
ATOM     30  O   UNL     1      -3.697  13.913 -14.860  0.00  0.00    +0.000 OA
ATOM     31  H   UNL     1      -2.798  13.688 -14.552  0.00  0.00    +0.000 HD
ENDBRANCH  11  30
BRANCH  16  32
ATOM     32  O   UNL     1      -6.229  15.378 -14.268  0.00  0.00    +0.000 OA
ATOM     33  H   UNL     1      -6.613  15.503 -15.156  0.00  0.00    +0.000 HD
ENDBRANCH  16  32
BRANCH  28  34
ATOM     34  O   UNL     1       4.169  16.153 -21.879  0.00  0.00    +0.000 OA
ATOM     35  H   UNL     1       4.010  16.942 -22.429  0.00  0.00    +0.000 HD
ENDBRANCH  28  34
TORSDOF 3
ENDMDL
MODEL 4
REMARK VINA RESULT:      -7.2      2.302      8.358
REMARK  Name = 14132199_RiccardinD.pdbqt.pdb
REMARK  3 active torsions:
REMARK  status: ('A' for Active; 'I' for Inactive)
REMARK    1  A    between atoms: C_11  and  O_30
REMARK    2  A    between atoms: C_16  and  O_32
REMARK    3  A    between atoms: C_28  and  O_34
REMARK                            x       y       z     vdW  Elec       q    Type
REMARK                         _______ _______ _______ _____ _____    ______ ____
ROOT
ATOM      1  O   UNL     1       9.579  -0.193 -20.881  0.00  0.00    +0.000 OA
ATOM      2  C   UNL     1       3.749  -3.983 -20.815  0.00  0.00    +0.000 C 
ATOM      3  C   UNL     1       2.377  -4.276 -20.514  0.00  0.00    +0.000 A 
ATOM      4  C   UNL     1       1.575  -3.383 -19.757  0.00  0.00    +0.000 A 
ATOM      5  C   UNL     1       5.188  -3.508 -21.074  0.00  0.00    +0.000 C 
ATOM      6  C   UNL     1       4.659   1.028 -18.115  0.00  0.00    +0.000 C 
ATOM      7  C   UNL     1       2.163  -2.172 -19.142  0.00  0.00    +0.000 A 
ATOM      8  C   UNL     1       3.633   0.044 -18.216  0.00  0.00    +0.000 A 
ATOM      9  C   UNL     1       6.009   1.725 -18.304  0.00  0.00    +0.000 C 
ATOM     10  C   UNL     1       6.463  -2.882 -21.207  0.00  0.00    +0.000 A 
ATOM     11  C   UNL     1       1.825  -0.865 -19.522  0.00  0.00    +0.000 A 
ATOM     12  C   UNL     1       7.341   1.883 -18.774  0.00  0.00    +0.000 A 
ATOM     13  C   UNL     1       3.180  -2.323 -18.189  0.00  0.00    +0.000 A 
ATOM     14  C   UNL     1       2.564   0.237 -19.085  0.00  0.00    +0.000 A 
ATOM     15  C   UNL     1       3.916  -1.232 -17.736  0.00  0.00    +0.000 A 
ATOM     16  C   UNL     1       0.216  -3.715 -19.611  0.00  0.00    +0.000 A 
ATOM     17  C   UNL     1       1.842  -5.455 -21.039  0.00  0.00    +0.000 A 
ATOM     18  C   UNL     1      -0.309  -4.903 -20.121  0.00  0.00    +0.000 A 
ATOM     19  C   UNL     1       0.507  -5.778 -20.828  0.00  0.00    +0.000 A 
ATOM     20  C   UNL     1       7.816   0.844 -19.567  0.00  0.00    +0.000 A 
ATOM     21  C   UNL     1       7.428  -3.066 -20.216  0.00  0.00    +0.000 A 
ATOM     22  C   UNL     1       6.656  -1.928 -22.207  0.00  0.00    +0.000 A 
ATOM     23  C   UNL     1       9.103   0.842 -20.093  0.00  0.00    +0.000 A 
ATOM     24  C   UNL     1       8.162   2.963 -18.490  0.00  0.00    +0.000 A 
ATOM     25  C   UNL     1       8.672  -1.212 -21.109  0.00  0.00    +0.000 A 
ATOM     26  C   UNL     1       8.546  -2.237 -20.170  0.00  0.00    +0.000 A 
ATOM     27  C   UNL     1       7.771  -1.093 -22.168  0.00  0.00    +0.000 A 
ATOM     28  C   UNL     1       9.925   1.926 -19.807  0.00  0.00    +0.000 A 
ATOM     29  C   UNL     1       9.462   2.981 -19.012  0.00  0.00    +0.000 A 
ENDROOT
BRANCH  11  30
ATOM     30  O   UNL     1       0.758  -0.662 -20.357  0.00  0.00    +0.000 OA
ATOM     31  H   UNL     1      -0.016  -0.429 -19.810  0.00  0.00    +0.000 HD
ENDBRANCH  11  30
BRANCH  16  32
ATOM     32  O   UNL     1      -0.676  -2.888 -18.980  0.00  0.00    +0.000 OA
ATOM     33  H   UNL     1      -0.462  -1.978 -19.260  0.00  0.00    +0.000 HD
ENDBRANCH  16  32
BRANCH  28  34
ATOM     34  O   UNL     1      11.202   1.996 -20.289  0.00  0.00    +0.000 OA
ATOM     35  H   UNL     1      11.457   1.097 -20.567  0.00  0.00    +0.000 HD
ENDBRANCH  28  34
TORSDOF 3
ENDMDL
MODEL 5
REMARK VINA RESULT:      -7.1     17.349     20.514
REMARK  Name = 14132199_RiccardinD.pdbqt.pdb
REMARK  3 active torsions:
REMARK  status: ('A' for Active; 'I' for Inactive)
REMARK    1  A    between atoms: C_11  and  O_30
REMARK    2  A    between atoms: C_16  and  O_32
REMARK    3  A    between atoms: C_28  and  O_34
REMARK                            x       y       z     vdW  Elec       q    Type
REMARK                         _______ _______ _______ _____ _____    ______ ____
ROOT
ATOM      1  O   UNL     1       3.326 -20.153  -8.942  0.00  0.00    +0.000 OA
ATOM      2  C   UNL     1       0.598 -18.074 -14.992  0.00  0.00    +0.000 C 
ATOM      3  C   UNL     1       0.465 -17.247 -16.156  0.00  0.00    +0.000 A 
ATOM      4  C   UNL     1       1.276 -16.099 -16.349  0.00  0.00    +0.000 A 
ATOM      5  C   UNL     1       0.886 -18.867 -13.706  0.00  0.00    +0.000 C 
ATOM      6  C   UNL     1       4.644 -15.372 -11.900  0.00  0.00    +0.000 C 
ATOM      7  C   UNL     1       2.204 -15.639 -15.292  0.00  0.00    +0.000 A 
ATOM      8  C   UNL     1       3.885 -15.150 -13.086  0.00  0.00    +0.000 A 
ATOM      9  C   UNL     1       5.142 -16.033 -10.612  0.00  0.00    +0.000 C 
ATOM     10  C   UNL     1       1.314 -19.456 -12.479  0.00  0.00    +0.000 A 
ATOM     11  C   UNL     1       3.600 -15.646 -15.426  0.00  0.00    +0.000 A 
ATOM     12  C   UNL     1       5.191 -17.011  -9.583  0.00  0.00    +0.000 A 
ATOM     13  C   UNL     1       1.678 -15.260 -14.048  0.00  0.00    +0.000 A 
ATOM     14  C   UNL     1       4.440 -15.427 -14.331  0.00  0.00    +0.000 A 
ATOM     15  C   UNL     1       2.505 -15.027 -12.953  0.00  0.00    +0.000 A 
ATOM     16  C   UNL     1       1.139 -15.420 -17.574  0.00  0.00    +0.000 A 
ATOM     17  C   UNL     1      -0.461 -17.645 -17.124  0.00  0.00    +0.000 A 
ATOM     18  C   UNL     1       0.199 -15.810 -18.529  0.00  0.00    +0.000 A 
ATOM     19  C   UNL     1      -0.608 -16.918 -18.299  0.00  0.00    +0.000 A 
ATOM     20  C   UNL     1       4.300 -18.069  -9.729  0.00  0.00    +0.000 A 
ATOM     21  C   UNL     1       0.756 -19.024 -11.275  0.00  0.00    +0.000 A 
ATOM     22  C   UNL     1       2.430 -20.294 -12.476  0.00  0.00    +0.000 A 
ATOM     23  C   UNL     1       4.215 -19.100  -8.800  0.00  0.00    +0.000 A 
ATOM     24  C   UNL     1       6.032 -16.966  -8.481  0.00  0.00    +0.000 A 
ATOM     25  C   UNL     1       2.545 -20.102 -10.082  0.00  0.00    +0.000 A 
ATOM     26  C   UNL     1       1.365 -19.356 -10.067  0.00  0.00    +0.000 A 
ATOM     27  C   UNL     1       3.045 -20.631 -11.272  0.00  0.00    +0.000 A 
ATOM     28  C   UNL     1       5.059 -19.053  -7.696  0.00  0.00    +0.000 A 
ATOM     29  C   UNL     1       5.963 -17.997  -7.535  0.00  0.00    +0.000 A 
ENDROOT
BRANCH  11  30
ATOM     30  O   UNL     1       4.156 -15.892 -16.654  0.00  0.00    +0.000 OA
ATOM     31  H   UNL     1       3.607 -15.450 -17.329  0.00  0.00    +0.000 HD
ENDBRANCH  11  30
BRANCH  16  32
ATOM     32  O   UNL     1       1.929 -14.354 -17.912  0.00  0.00    +0.000 OA
ATOM     33  H   UNL     1       2.855 -14.643 -17.801  0.00  0.00    +0.000 HD
ENDBRANCH  16  32
BRANCH  28  34
ATOM     34  O   UNL     1       5.034 -20.030  -6.741  0.00  0.00    +0.000 OA
ATOM     35  H   UNL     1       4.267 -20.600  -6.930  0.00  0.00    +0.000 HD
ENDBRANCH  28  34
TORSDOF 3
ENDMDL
MODEL 6
REMARK VINA RESULT:      -7.0     11.843     14.872
REMARK  Name = 14132199_RiccardinD.pdbqt.pdb
REMARK  3 active torsions:
REMARK  status: ('A' for Active; 'I' for Inactive)
REMARK    1  A    between atoms: C_11  and  O_30
REMARK    2  A    between atoms: C_16  and  O_32
REMARK    3  A    between atoms: C_28  and  O_34
REMARK                            x       y       z     vdW  Elec       q    Type
REMARK                         _______ _______ _______ _____ _____    ______ ____
ROOT
ATOM      1  O   UNL     1      11.885  14.106 -11.501  0.00  0.00    +0.000 OA
ATOM      2  C   UNL     1      13.086  14.317 -18.347  0.00  0.00    +0.000 C 
ATOM      3  C   UNL     1      13.128  13.810 -19.689  0.00  0.00    +0.000 A 
ATOM      4  C   UNL     1      12.770  12.470 -19.989  0.00  0.00    +0.000 A 
ATOM      5  C   UNL     1      12.960  14.709 -16.866  0.00  0.00    +0.000 C 
ATOM      6  C   UNL     1      11.506   9.724 -15.242  0.00  0.00    +0.000 C 
ATOM      7  C   UNL     1      12.461  11.507 -18.908  0.00  0.00    +0.000 A 
ATOM      8  C   UNL     1      11.871  10.026 -16.587  0.00  0.00    +0.000 A 
ATOM      9  C   UNL     1      11.244   9.909 -13.746  0.00  0.00    +0.000 C 
ATOM     10  C   UNL     1      12.765  14.869 -15.462  0.00  0.00    +0.000 A 
ATOM     11  C   UNL     1      11.193  10.943 -18.708  0.00  0.00    +0.000 A 
ATOM     12  C   UNL     1      11.179  10.608 -12.509  0.00  0.00    +0.000 A 
ATOM     13  C   UNL     1      13.457  11.203 -17.968  0.00  0.00    +0.000 A 
ATOM     14  C   UNL     1      10.887  10.227 -17.549  0.00  0.00    +0.000 A 
ATOM     15  C   UNL     1      13.168  10.480 -16.815  0.00  0.00    +0.000 A 
ATOM     16  C   UNL     1      12.742  12.107 -21.348  0.00  0.00    +0.000 A 
ATOM     17  C   UNL     1      13.486  14.703 -20.702  0.00  0.00    +0.000 A 
ATOM     18  C   UNL     1      13.119  12.997 -22.354  0.00  0.00    +0.000 A 
ATOM     19  C   UNL     1      13.500  14.293 -22.029  0.00  0.00    +0.000 A 
ATOM     20  C   UNL     1      11.531  11.951 -12.569  0.00  0.00    +0.000 A 
ATOM     21  C   UNL     1      13.796  14.537 -14.581  0.00  0.00    +0.000 A 
ATOM     22  C   UNL     1      11.487  15.146 -14.976  0.00  0.00    +0.000 A 
ATOM     23  C   UNL     1      11.531  12.768 -11.444  0.00  0.00    +0.000 A 
ATOM     24  C   UNL     1      10.810  10.045 -11.297  0.00  0.00    +0.000 A 
ATOM     25  C   UNL     1      12.222  14.563 -12.762  0.00  0.00    +0.000 A 
ATOM     26  C   UNL     1      13.530  14.394 -13.221  0.00  0.00    +0.000 A 
ATOM     27  C   UNL     1      11.212  15.004 -13.617  0.00  0.00    +0.000 A 
ATOM     28  C   UNL     1      11.162  12.203 -10.229  0.00  0.00    +0.000 A 
ATOM     29  C   UNL     1      10.803  10.852 -10.152  0.00  0.00    +0.000 A 
ENDROOT
BRANCH  11  30
ATOM     30  O   UNL     1      10.224  11.113 -19.661  0.00  0.00    +0.000 OA
ATOM     31  H   UNL     1      10.301  12.021 -20.014  0.00  0.00    +0.000 HD
ENDBRANCH  11  30
BRANCH  16  32
ATOM     32  O   UNL     1      12.326  10.871 -21.767  0.00  0.00    +0.000 OA
ATOM     33  H   UNL     1      13.108  10.423 -22.142  0.00  0.00    +0.000 HD
ENDBRANCH  16  32
BRANCH  28  34
ATOM     34  O   UNL     1      11.137  12.942  -9.080  0.00  0.00    +0.000 OA
ATOM     35  H   UNL     1      10.770  13.816  -9.305  0.00  0.00    +0.000 HD
ENDBRANCH  28  34
TORSDOF 3
ENDMDL
MODEL 7
REMARK VINA RESULT:      -6.9      9.448     15.498
REMARK  Name = 14132199_RiccardinD.pdbqt.pdb
REMARK  3 active torsions:
REMARK  status: ('A' for Active; 'I' for Inactive)
REMARK    1  A    between atoms: C_11  and  O_30
REMARK    2  A    between atoms: C_16  and  O_32
REMARK    3  A    between atoms: C_28  and  O_34
REMARK                            x       y       z     vdW  Elec       q    Type
REMARK                         _______ _______ _______ _____ _____    ______ ____
ROOT
ATOM      1  O   UNL     1      -1.476  -1.297 -18.265  0.00  0.00    +0.000 OA
ATOM      2  C   UNL     1      -8.028  -1.898 -20.516  0.00  0.00    +0.000 C 
ATOM      3  C   UNL     1      -9.077  -2.292 -21.412  0.00  0.00    +0.000 A 
ATOM      4  C   UNL     1      -8.799  -2.935 -22.646  0.00  0.00    +0.000 A 
ATOM      5  C   UNL     1      -6.794  -1.567 -19.661  0.00  0.00    +0.000 C 
ATOM      6  C   UNL     1      -3.233  -3.364 -23.362  0.00  0.00    +0.000 C 
ATOM      7  C   UNL     1      -7.405  -3.109 -23.113  0.00  0.00    +0.000 A 
ATOM      8  C   UNL     1      -4.639  -3.315 -23.597  0.00  0.00    +0.000 A 
ATOM      9  C   UNL     1      -1.885  -3.193 -22.658  0.00  0.00    +0.000 C 
ATOM     10  C   UNL     1      -5.533  -1.360 -19.026  0.00  0.00    +0.000 A 
ATOM     11  C   UNL     1      -6.782  -4.358 -23.254  0.00  0.00    +0.000 A 
ATOM     12  C   UNL     1      -0.997  -2.817 -21.614  0.00  0.00    +0.000 A 
ATOM     13  C   UNL     1      -6.622  -1.969 -23.343  0.00  0.00    +0.000 A 
ATOM     14  C   UNL     1      -5.407  -4.468 -23.471  0.00  0.00    +0.000 A 
ATOM     15  C   UNL     1      -5.253  -2.066 -23.573  0.00  0.00    +0.000 A 
ATOM     16  C   UNL     1      -9.903  -3.375 -23.398  0.00  0.00    +0.000 A 
ATOM     17  C   UNL     1     -10.392  -2.065 -21.000  0.00  0.00    +0.000 A 
ATOM     18  C   UNL     1     -11.214  -3.129 -22.991  0.00  0.00    +0.000 A 
ATOM     19  C   UNL     1     -11.459  -2.465 -21.795  0.00  0.00    +0.000 A 
ATOM     20  C   UNL     1      -1.605  -2.272 -20.488  0.00  0.00    +0.000 A 
ATOM     21  C   UNL     1      -4.800  -0.207 -19.309  0.00  0.00    +0.000 A 
ATOM     22  C   UNL     1      -4.952  -2.403 -18.303  0.00  0.00    +0.000 A 
ATOM     23  C   UNL     1      -0.873  -1.843 -19.386  0.00  0.00    +0.000 A 
ATOM     24  C   UNL     1       0.383  -2.946 -21.658  0.00  0.00    +0.000 A 
ATOM     25  C   UNL     1      -2.855  -1.227 -18.325  0.00  0.00    +0.000 A 
ATOM     26  C   UNL     1      -3.456  -0.131 -18.948  0.00  0.00    +0.000 A 
ATOM     27  C   UNL     1      -3.609  -2.335 -17.939  0.00  0.00    +0.000 A 
ATOM     28  C   UNL     1       0.510  -1.973 -19.432  0.00  0.00    +0.000 A 
ATOM     29  C   UNL     1       1.137  -2.521 -20.557  0.00  0.00    +0.000 A 
ENDROOT
BRANCH  11  30
ATOM     30  O   UNL     1      -7.535  -5.498 -23.157  0.00  0.00    +0.000 OA
ATOM     31  H   UNL     1      -8.123  -5.410 -22.382  0.00  0.00    +0.000 HD
ENDBRANCH  11  30
BRANCH  16  32
ATOM     32  O   UNL     1      -9.760  -4.087 -24.560  0.00  0.00    +0.000 OA
ATOM     33  H   UNL     1      -9.648  -3.435 -25.277  0.00  0.00    +0.000 HD
ENDBRANCH  16  32
BRANCH  28  34
ATOM     34  O   UNL     1       1.296  -1.574 -18.388  0.00  0.00    +0.000 OA
ATOM     35  H   UNL     1       0.746  -1.599 -17.584  0.00  0.00    +0.000 HD
ENDBRANCH  28  34
TORSDOF 3
ENDMDL
MODEL 8
REMARK VINA RESULT:      -6.6     23.221     26.406
REMARK  Name = 14132199_RiccardinD.pdbqt.pdb
REMARK  3 active torsions:
REMARK  status: ('A' for Active; 'I' for Inactive)
REMARK    1  A    between atoms: C_11  and  O_30
REMARK    2  A    between atoms: C_16  and  O_32
REMARK    3  A    between atoms: C_28  and  O_34
REMARK                            x       y       z     vdW  Elec       q    Type
REMARK                         _______ _______ _______ _____ _____    ______ ____
ROOT
ATOM      1  O   UNL     1     -18.809   9.270 -13.440  0.00  0.00    +0.000 OA
ATOM      2  C   UNL     1     -13.655   8.412  -8.850  0.00  0.00    +0.000 C 
ATOM      3  C   UNL     1     -12.535   7.753  -8.242  0.00  0.00    +0.000 A 
ATOM      4  C   UNL     1     -12.072   6.494  -8.706  0.00  0.00    +0.000 A 
ATOM      5  C   UNL     1     -14.848   8.994  -9.627  0.00  0.00    +0.000 C 
ATOM      6  C   UNL     1     -15.379   4.659 -12.872  0.00  0.00    +0.000 C 
ATOM      7  C   UNL     1     -12.809   5.754  -9.753  0.00  0.00    +0.000 A 
ATOM      8  C   UNL     1     -14.439   4.716 -11.802  0.00  0.00    +0.000 A 
ATOM      9  C   UNL     1     -16.509   5.071 -13.819  0.00  0.00    +0.000 C 
ATOM     10  C   UNL     1     -15.935   9.355 -10.476  0.00  0.00    +0.000 A 
ATOM     11  C   UNL     1     -12.296   5.500 -11.034  0.00  0.00    +0.000 A 
ATOM     12  C   UNL     1     -17.530   5.908 -14.345  0.00  0.00    +0.000 A 
ATOM     13  C   UNL     1     -14.130   5.358  -9.499  0.00  0.00    +0.000 A 
ATOM     14  C   UNL     1     -13.104   5.007 -12.060  0.00  0.00    +0.000 A 
ATOM     15  C   UNL     1     -14.942   4.853 -10.510  0.00  0.00    +0.000 A 
ATOM     16  C   UNL     1     -10.901   5.988  -8.111  0.00  0.00    +0.000 A 
ATOM     17  C   UNL     1     -11.881   8.424  -7.206  0.00  0.00    +0.000 A 
ATOM     18  C   UNL     1     -10.263   6.652  -7.064  0.00  0.00    +0.000 A 
ATOM     19  C   UNL     1     -10.759   7.867  -6.605  0.00  0.00    +0.000 A 
ATOM     20  C   UNL     1     -17.686   7.129 -13.698  0.00  0.00    +0.000 A 
ATOM     21  C   UNL     1     -17.224   8.918 -10.170  0.00  0.00    +0.000 A 
ATOM     22  C   UNL     1     -15.670   9.953 -11.709  0.00  0.00    +0.000 A 
ATOM     23  C   UNL     1     -18.650   8.054 -14.084  0.00  0.00    +0.000 A 
ATOM     24  C   UNL     1     -18.353   5.584 -15.413  0.00  0.00    +0.000 A 
ATOM     25  C   UNL     1     -17.928   9.493 -12.398  0.00  0.00    +0.000 A 
ATOM     26  C   UNL     1     -18.232   8.996 -11.129  0.00  0.00    +0.000 A 
ATOM     27  C   UNL     1     -16.672  10.035 -12.674  0.00  0.00    +0.000 A 
ATOM     28  C   UNL     1     -19.474   7.727 -15.155  0.00  0.00    +0.000 A 
ATOM     29  C   UNL     1     -19.330   6.503 -15.817  0.00  0.00    +0.000 A 
ENDROOT
BRANCH  11  30
ATOM     30  O   UNL     1     -10.975   5.759 -11.291  0.00  0.00    +0.000 OA
ATOM     31  H   UNL     1     -10.729   5.293 -12.113  0.00  0.00    +0.000 HD
ENDBRANCH  11  30
BRANCH  16  32
ATOM     32  O   UNL     1     -10.308   4.828  -8.535  0.00  0.00    +0.000 OA
ATOM     33  H   UNL     1     -10.926   4.410  -9.165  0.00  0.00    +0.000 HD
ENDBRANCH  16  32
BRANCH  28  34
ATOM     34  O   UNL     1     -20.444   8.585 -15.592  0.00  0.00    +0.000 OA
ATOM     35  H   UNL     1     -20.253   9.459 -15.208  0.00  0.00    +0.000 HD
ENDBRANCH  28  34
TORSDOF 3
ENDMDL
MODEL 9
REMARK VINA RESULT:      -6.6     22.116     27.445
REMARK  Name = 14132199_RiccardinD.pdbqt.pdb
REMARK  3 active torsions:
REMARK  status: ('A' for Active; 'I' for Inactive)
REMARK    1  A    between atoms: C_11  and  O_30
REMARK    2  A    between atoms: C_16  and  O_32
REMARK    3  A    between atoms: C_28  and  O_34
REMARK                            x       y       z     vdW  Elec       q    Type
REMARK                         _______ _______ _______ _____ _____    ______ ____
ROOT
ATOM      1  O   UNL     1     -14.905  11.783  -3.379  0.00  0.00    +0.000 OA
ATOM      2  C   UNL     1     -11.526   6.842  -6.920  0.00  0.00    +0.000 C 
ATOM      3  C   UNL     1     -11.166   6.066  -8.072  0.00  0.00    +0.000 A 
ATOM      4  C   UNL     1     -11.791   6.268  -9.329  0.00  0.00    +0.000 A 
ATOM      5  C   UNL     1     -12.007   7.774  -5.796  0.00  0.00    +0.000 C 
ATOM      6  C   UNL     1     -15.783  10.208  -8.866  0.00  0.00    +0.000 C 
ATOM      7  C   UNL     1     -12.930   7.203  -9.469  0.00  0.00    +0.000 A 
ATOM      8  C   UNL     1     -14.992   9.116  -9.329  0.00  0.00    +0.000 A 
ATOM      9  C   UNL     1     -16.357  11.273  -7.928  0.00  0.00    +0.000 C 
ATOM     10  C   UNL     1     -12.579   8.732  -4.907  0.00  0.00    +0.000 A 
ATOM     11  C   UNL     1     -12.876   8.388 -10.219  0.00  0.00    +0.000 A 
ATOM     12  C   UNL     1     -16.514  11.995  -6.714  0.00  0.00    +0.000 A 
ATOM     13  C   UNL     1     -14.103   6.954  -8.743  0.00  0.00    +0.000 A 
ATOM     14  C   UNL     1     -13.884   9.350 -10.137  0.00  0.00    +0.000 A 
ATOM     15  C   UNL     1     -15.120   7.900  -8.663  0.00  0.00    +0.000 A 
ATOM     16  C   UNL     1     -11.289   5.530 -10.417  0.00  0.00    +0.000 A 
ATOM     17  C   UNL     1     -10.137   5.134  -7.921  0.00  0.00    +0.000 A 
ATOM     18  C   UNL     1     -10.273   4.587 -10.258  0.00  0.00    +0.000 A 
ATOM     19  C   UNL     1      -9.703   4.382  -9.007  0.00  0.00    +0.000 A 
ATOM     20  C   UNL     1     -15.686  11.590  -5.673  0.00  0.00    +0.000 A 
ATOM     21  C   UNL     1     -13.755   8.422  -4.223  0.00  0.00    +0.000 A 
ATOM     22  C   UNL     1     -12.083  10.037  -4.897  0.00  0.00    +0.000 A 
ATOM     23  C   UNL     1     -15.727  12.187  -4.419  0.00  0.00    +0.000 A 
ATOM     24  C   UNL     1     -17.415  13.030  -6.515  0.00  0.00    +0.000 A 
ATOM     25  C   UNL     1     -14.038  10.752  -3.694  0.00  0.00    +0.000 A 
ATOM     26  C   UNL     1     -14.486   9.432  -3.602  0.00  0.00    +0.000 A 
ATOM     27  C   UNL     1     -12.808  11.053  -4.278  0.00  0.00    +0.000 A 
ATOM     28  C   UNL     1     -16.630  13.225  -4.220  0.00  0.00    +0.000 A 
ATOM     29  C   UNL     1     -17.469  13.646  -5.258  0.00  0.00    +0.000 A 
ENDROOT
BRANCH  11  30
ATOM     30  O   UNL     1     -11.801   8.616 -11.038  0.00  0.00    +0.000 OA
ATOM     31  H   UNL     1     -12.120   8.628 -11.961  0.00  0.00    +0.000 HD
ENDBRANCH  11  30
BRANCH  16  32
ATOM     32  O   UNL     1     -11.749   5.705 -11.695  0.00  0.00    +0.000 OA
ATOM     33  H   UNL     1     -12.204   4.879 -11.945  0.00  0.00    +0.000 HD
ENDBRANCH  16  32
BRANCH  28  34
ATOM     34  O   UNL     1     -16.728  13.861  -3.015  0.00  0.00    +0.000 OA
ATOM     35  H   UNL     1     -16.046  13.482  -2.431  0.00  0.00    +0.000 HD
ENDBRANCH  28  34
TORSDOF 3
ENDMDL
