MODEL 1
REMARK VINA RESULT:      -4.1      0.000      0.000
REMARK  Name = 146026348_FluorouracilMononitrate.pdbqt.pdb
REMARK  2 active torsions:
REMARK  status: ('A' for Active; 'I' for Inactive)
REMARK    1  A    between atoms: N_4  and  O_10
REMARK    2  A    between atoms: O_10  and  N_13
REMARK                            x       y       z     vdW  Elec       q    Type
REMARK                         _______ _______ _______ _____ _____    ______ ____
ROOT
ATOM      1  F   UNL     1       5.051   4.206   0.246  0.00  0.00    +0.000 F 
ATOM      2  O   UNL     1       7.229   5.587   1.321  0.00  0.00    +0.000 OA
ATOM      3  O   UNL     1       8.731   6.207  -3.065  0.00  0.00    +0.000 OA
ATOM      4  N   UNL     1       8.101   5.782  -0.842  0.00  0.00    +0.000 N 
ATOM      5  N   UNL     1       6.089   4.617  -0.498  0.00  0.00    +0.000 N 
ATOM      6  C   UNL     1       7.150   5.342   0.120  0.00  0.00    +0.000 A 
ATOM      7  C   UNL     1       8.001   5.696  -2.232  0.00  0.00    +0.000 A 
ATOM      8  C   UNL     1       6.835   4.930  -2.606  0.00  0.00    +0.000 A 
ATOM      9  C   UNL     1       6.039   4.484  -1.837  0.00  0.00    +0.000 A 
ENDROOT
BRANCH   4  10
ATOM     10  O   UNL     1       9.141   6.588  -0.344  0.00  0.00    +0.000 OA
BRANCH  10  13
ATOM     11  O   UNL     1      11.297   6.570  -0.984  0.00  0.00    +0.000 OA
ATOM     12  O   UNL     1      10.460   4.914   0.265  0.00  0.00    +0.000 OA
ATOM     13  N   UNL     1      10.417   5.971  -0.362  0.00  0.00    +0.000 N 
ENDBRANCH  10  13
ENDBRANCH   4  10
TORSDOF 2
ENDMDL
MODEL 2
REMARK VINA RESULT:      -4.1     26.999     27.970
REMARK  Name = 146026348_FluorouracilMononitrate.pdbqt.pdb
REMARK  2 active torsions:
REMARK  status: ('A' for Active; 'I' for Inactive)
REMARK    1  A    between atoms: N_4  and  O_10
REMARK    2  A    between atoms: O_10  and  N_13
REMARK                            x       y       z     vdW  Elec       q    Type
REMARK                         _______ _______ _______ _____ _____    ______ ____
ROOT
ATOM      1  F   UNL     1     -11.763  -2.488 -23.018  0.00  0.00    +0.000 F 
ATOM      2  O   UNL     1     -10.916  -0.215 -21.631  0.00  0.00    +0.000 OA
ATOM      3  O   UNL     1      -9.679  -3.068 -18.137  0.00  0.00    +0.000 OA
ATOM      4  N   UNL     1     -10.431  -1.585 -19.796  0.00  0.00    +0.000 N 
ATOM      5  N   UNL     1     -11.361  -2.525 -21.739  0.00  0.00    +0.000 N 
ATOM      6  C   UNL     1     -10.915  -1.327 -21.109  0.00  0.00    +0.000 A 
ATOM      7  C   UNL     1     -10.237  -2.830 -19.195  0.00  0.00    +0.000 A 
ATOM      8  C   UNL     1     -10.754  -3.882 -20.038  0.00  0.00    +0.000 A 
ATOM      9  C   UNL     1     -11.228  -3.714 -21.121  0.00  0.00    +0.000 A 
ENDROOT
BRANCH   4  10
ATOM     10  O   UNL     1      -9.881  -0.479 -19.123  0.00  0.00    +0.000 OA
BRANCH  10  13
ATOM     11  O   UNL     1     -11.630  -0.194 -17.738  0.00  0.00    +0.000 OA
ATOM     12  O   UNL     1     -10.732   1.545 -18.820  0.00  0.00    +0.000 OA
ATOM     13  N   UNL     1     -10.839   0.362 -18.504  0.00  0.00    +0.000 N 
ENDBRANCH  10  13
ENDBRANCH   4  10
TORSDOF 2
ENDMDL
MODEL 3
REMARK VINA RESULT:      -4.0     17.976     19.185
REMARK  Name = 146026348_FluorouracilMononitrate.pdbqt.pdb
REMARK  2 active torsions:
REMARK  status: ('A' for Active; 'I' for Inactive)
REMARK    1  A    between atoms: N_4  and  O_10
REMARK    2  A    between atoms: O_10  and  N_13
REMARK                            x       y       z     vdW  Elec       q    Type
REMARK                         _______ _______ _______ _____ _____    ______ ____
ROOT
ATOM      1  F   UNL     1      13.257   1.134 -21.267  0.00  0.00    +0.000 F 
ATOM      2  O   UNL     1      12.025  -1.074 -20.075  0.00  0.00    +0.000 OA
ATOM      3  O   UNL     1      10.020   1.920 -17.094  0.00  0.00    +0.000 OA
ATOM      4  N   UNL     1      11.128   0.367 -18.464  0.00  0.00    +0.000 N 
ATOM      5  N   UNL     1      12.544   1.223 -20.133  0.00  0.00    +0.000 N 
ATOM      6  C   UNL     1      11.922   0.055 -19.603  0.00  0.00    +0.000 A 
ATOM      7  C   UNL     1      10.821   1.636 -17.969  0.00  0.00    +0.000 A 
ATOM      8  C   UNL     1      11.564   2.649 -18.682  0.00  0.00    +0.000 A 
ATOM      9  C   UNL     1      12.291   2.435 -19.603  0.00  0.00    +0.000 A 
ENDROOT
BRANCH   4  10
ATOM     10  O   UNL     1      10.396  -0.704 -17.921  0.00  0.00    +0.000 OA
BRANCH  10  13
ATOM     11  O   UNL     1      11.033  -2.755 -17.252  0.00  0.00    +0.000 OA
ATOM     12  O   UNL     1      11.810  -0.924 -16.229  0.00  0.00    +0.000 OA
ATOM     13  N   UNL     1      11.143  -1.542 -17.056  0.00  0.00    +0.000 N 
ENDBRANCH  10  13
ENDBRANCH   4  10
TORSDOF 2
ENDMDL
MODEL 4
REMARK VINA RESULT:      -4.0      9.062     10.084
REMARK  Name = 146026348_FluorouracilMononitrate.pdbqt.pdb
REMARK  2 active torsions:
REMARK  status: ('A' for Active; 'I' for Inactive)
REMARK    1  A    between atoms: N_4  and  O_10
REMARK    2  A    between atoms: O_10  and  N_13
REMARK                            x       y       z     vdW  Elec       q    Type
REMARK                         _______ _______ _______ _____ _____    ______ ____
ROOT
ATOM      1  F   UNL     1      18.719   5.042  -6.076  0.00  0.00    +0.000 F 
ATOM      2  O   UNL     1      16.628   6.228  -4.650  0.00  0.00    +0.000 OA
ATOM      3  O   UNL     1      13.786   4.887  -8.114  0.00  0.00    +0.000 OA
ATOM      4  N   UNL     1      15.199   5.719  -6.432  0.00  0.00    +0.000 N 
ATOM      5  N   UNL     1      17.481   5.174  -6.576  0.00  0.00    +0.000 N 
ATOM      6  C   UNL     1      16.460   5.764  -5.775  0.00  0.00    +0.000 A 
ATOM      7  C   UNL     1      14.890   5.063  -7.625  0.00  0.00    +0.000 A 
ATOM      8  C   UNL     1      16.088   4.536  -8.236  0.00  0.00    +0.000 A 
ATOM      9  C   UNL     1      17.179   4.602  -7.758  0.00  0.00    +0.000 A 
ENDROOT
BRANCH   4  10
ATOM     10  O   UNL     1      14.106   6.194  -5.684  0.00  0.00    +0.000 OA
BRANCH  10  13
ATOM     11  O   UNL     1      14.307   8.312  -6.413  0.00  0.00    +0.000 OA
ATOM     12  O   UNL     1      12.309   7.310  -6.344  0.00  0.00    +0.000 OA
ATOM     13  N   UNL     1      13.526   7.383  -6.190  0.00  0.00    +0.000 N 
ENDBRANCH  10  13
ENDBRANCH   4  10
TORSDOF 2
ENDMDL
MODEL 5
REMARK VINA RESULT:      -3.9     13.908     14.448
REMARK  Name = 146026348_FluorouracilMononitrate.pdbqt.pdb
REMARK  2 active torsions:
REMARK  status: ('A' for Active; 'I' for Inactive)
REMARK    1  A    between atoms: N_4  and  O_10
REMARK    2  A    between atoms: O_10  and  N_13
REMARK                            x       y       z     vdW  Elec       q    Type
REMARK                         _______ _______ _______ _____ _____    ______ ____
ROOT
ATOM      1  F   UNL     1      13.863  -8.961  -7.752  0.00  0.00    +0.000 F 
ATOM      2  O   UNL     1      11.679  -8.556  -6.058  0.00  0.00    +0.000 OA
ATOM      3  O   UNL     1      10.600  -4.840  -8.685  0.00  0.00    +0.000 OA
ATOM      4  N   UNL     1      11.193  -6.598  -7.245  0.00  0.00    +0.000 N 
ATOM      5  N   UNL     1      13.077  -7.876  -7.826  0.00  0.00    +0.000 N 
ATOM      6  C   UNL     1      11.963  -7.756  -6.945  0.00  0.00    +0.000 A 
ATOM      7  C   UNL     1      11.347  -5.738  -8.333  0.00  0.00    +0.000 A 
ATOM      8  C   UNL     1      12.536  -6.078  -9.080  0.00  0.00    +0.000 A 
ATOM      9  C   UNL     1      13.252  -7.000  -8.834  0.00  0.00    +0.000 A 
ENDROOT
BRANCH   4  10
ATOM     10  O   UNL     1      10.017  -6.439  -6.489  0.00  0.00    +0.000 OA
BRANCH  10  13
ATOM     11  O   UNL     1       9.048  -4.933  -5.128  0.00  0.00    +0.000 OA
ATOM     12  O   UNL     1      11.253  -5.296  -5.049  0.00  0.00    +0.000 OA
ATOM     13  N   UNL     1      10.110  -5.464  -5.465  0.00  0.00    +0.000 N 
ENDBRANCH  10  13
ENDBRANCH   4  10
TORSDOF 2
ENDMDL
MODEL 6
REMARK VINA RESULT:      -3.7      1.926      2.446
REMARK  Name = 146026348_FluorouracilMononitrate.pdbqt.pdb
REMARK  2 active torsions:
REMARK  status: ('A' for Active; 'I' for Inactive)
REMARK    1  A    between atoms: N_4  and  O_10
REMARK    2  A    between atoms: O_10  and  N_13
REMARK                            x       y       z     vdW  Elec       q    Type
REMARK                         _______ _______ _______ _____ _____    ______ ____
ROOT
ATOM      1  F   UNL     1       5.942   3.566   3.000  0.00  0.00    +0.000 F 
ATOM      2  O   UNL     1       7.526   5.646   2.012  0.00  0.00    +0.000 OA
ATOM      3  O   UNL     1       5.721   4.735  -2.206  0.00  0.00    +0.000 OA
ATOM      4  N   UNL     1       6.772   5.122  -0.141  0.00  0.00    +0.000 N 
ATOM      5  N   UNL     1       6.056   3.834   1.690  0.00  0.00    +0.000 N 
ATOM      6  C   UNL     1       6.861   4.932   1.266  0.00  0.00    +0.000 A 
ATOM      7  C   UNL     1       5.916   4.471  -1.031  0.00  0.00    +0.000 A 
ATOM      8  C   UNL     1       5.198   3.414  -0.357  0.00  0.00    +0.000 A 
ATOM      9  C   UNL     1       5.283   3.171   0.808  0.00  0.00    +0.000 A 
ENDROOT
BRANCH   4  10
ATOM     10  O   UNL     1       7.459   6.241  -0.647  0.00  0.00    +0.000 OA
BRANCH  10  13
ATOM     11  O   UNL     1       8.537   6.247  -2.621  0.00  0.00    +0.000 OA
ATOM     12  O   UNL     1       9.489   5.365  -0.800  0.00  0.00    +0.000 OA
ATOM     13  N   UNL     1       8.595   5.921  -1.432  0.00  0.00    +0.000 N 
ENDBRANCH  10  13
ENDBRANCH   4  10
TORSDOF 2
ENDMDL
MODEL 7
REMARK VINA RESULT:      -3.7     12.952     13.566
REMARK  Name = 146026348_FluorouracilMononitrate.pdbqt.pdb
REMARK  2 active torsions:
REMARK  status: ('A' for Active; 'I' for Inactive)
REMARK    1  A    between atoms: N_4  and  O_10
REMARK    2  A    between atoms: O_10  and  N_13
REMARK                            x       y       z     vdW  Elec       q    Type
REMARK                         _______ _______ _______ _____ _____    ______ ____
ROOT
ATOM      1  F   UNL     1      15.097  -6.596  -7.547  0.00  0.00    +0.000 F 
ATOM      2  O   UNL     1      13.802  -4.787  -5.855  0.00  0.00    +0.000 OA
ATOM      3  O   UNL     1      10.226  -4.852  -8.869  0.00  0.00    +0.000 OA
ATOM      4  N   UNL     1      12.059  -4.664  -7.412  0.00  0.00    +0.000 N 
ATOM      5  N   UNL     1      13.939  -6.000  -7.869  0.00  0.00    +0.000 N 
ATOM      6  C   UNL     1      13.325  -5.111  -6.939  0.00  0.00    +0.000 A 
ATOM      7  C   UNL     1      11.373  -5.111  -8.542  0.00  0.00    +0.000 A 
ATOM      8  C   UNL     1      12.199  -6.015  -9.309  0.00  0.00    +0.000 A 
ATOM      9  C   UNL     1      13.291  -6.372  -8.990  0.00  0.00    +0.000 A 
ENDROOT
BRANCH   4  10
ATOM     10  O   UNL     1      11.330  -3.854  -6.523  0.00  0.00    +0.000 OA
BRANCH  10  13
ATOM     11  O   UNL     1      10.637  -5.569  -5.245  0.00  0.00    +0.000 OA
ATOM     12  O   UNL     1       9.209  -3.975  -5.894  0.00  0.00    +0.000 OA
ATOM     13  N   UNL     1      10.302  -4.533  -5.825  0.00  0.00    +0.000 N 
ENDBRANCH  10  13
ENDBRANCH   4  10
TORSDOF 2
ENDMDL
MODEL 8
REMARK VINA RESULT:      -3.7     17.685     18.840
REMARK  Name = 146026348_FluorouracilMononitrate.pdbqt.pdb
REMARK  2 active torsions:
REMARK  status: ('A' for Active; 'I' for Inactive)
REMARK    1  A    between atoms: N_4  and  O_10
REMARK    2  A    between atoms: O_10  and  N_13
REMARK                            x       y       z     vdW  Elec       q    Type
REMARK                         _______ _______ _______ _____ _____    ______ ____
ROOT
ATOM      1  F   UNL     1      11.373  -1.631 -21.156  0.00  0.00    +0.000 F 
ATOM      2  O   UNL     1       9.838  -1.571 -18.822  0.00  0.00    +0.000 OA
ATOM      3  O   UNL     1      11.394   2.791 -18.163  0.00  0.00    +0.000 OA
ATOM      4  N   UNL     1      10.715   0.551 -18.367  0.00  0.00    +0.000 N 
ATOM      5  N   UNL     1      11.429  -0.620 -20.275  0.00  0.00    +0.000 N 
ATOM      6  C   UNL     1      10.592  -0.649 -19.121  0.00  0.00    +0.000 A 
ATOM      7  C   UNL     1      11.411   1.707 -18.724  0.00  0.00    +0.000 A 
ATOM      8  C   UNL     1      12.166   1.487 -19.936  0.00  0.00    +0.000 A 
ATOM      9  C   UNL     1      12.149   0.478 -20.573  0.00  0.00    +0.000 A 
ENDROOT
BRANCH   4  10
ATOM     10  O   UNL     1       9.858   0.661 -17.256  0.00  0.00    +0.000 OA
BRANCH  10  13
ATOM     11  O   UNL     1      11.074  -0.581 -15.829  0.00  0.00    +0.000 OA
ATOM     12  O   UNL     1      10.403   1.478 -15.270  0.00  0.00    +0.000 OA
ATOM     13  N   UNL     1      10.503   0.498 -16.005  0.00  0.00    +0.000 N 
ENDBRANCH  10  13
ENDBRANCH   4  10
TORSDOF 2
ENDMDL
MODEL 9
REMARK VINA RESULT:      -3.6     13.817     14.397
REMARK  Name = 146026348_FluorouracilMononitrate.pdbqt.pdb
REMARK  2 active torsions:
REMARK  status: ('A' for Active; 'I' for Inactive)
REMARK    1  A    between atoms: N_4  and  O_10
REMARK    2  A    between atoms: O_10  and  N_13
REMARK                            x       y       z     vdW  Elec       q    Type
REMARK                         _______ _______ _______ _____ _____    ______ ____
ROOT
ATOM      1  F   UNL     1      14.671  -2.569  -7.971  0.00  0.00    +0.000 F 
ATOM      2  O   UNL     1      12.475  -3.706  -6.670  0.00  0.00    +0.000 OA
ATOM      3  O   UNL     1      12.521  -7.036  -9.953  0.00  0.00    +0.000 OA
ATOM      4  N   UNL     1      12.359  -5.301  -8.379  0.00  0.00    +0.000 N 
ATOM      5  N   UNL     1      13.984  -3.605  -8.476  0.00  0.00    +0.000 N 
ATOM      6  C   UNL     1      12.892  -4.148  -7.737  0.00  0.00    +0.000 A 
ATOM      7  C   UNL     1      12.877  -5.964  -9.493  0.00  0.00    +0.000 A 
ATOM      8  C   UNL     1      13.986  -5.224 -10.049  0.00  0.00    +0.000 A 
ATOM      9  C   UNL     1      14.432  -4.219  -9.587  0.00  0.00    +0.000 A 
ENDROOT
BRANCH   4  10
ATOM     10  O   UNL     1      11.336  -5.966  -7.681  0.00  0.00    +0.000 OA
BRANCH  10  13
ATOM     11  O   UNL     1      12.759  -6.935  -6.234  0.00  0.00    +0.000 OA
ATOM     12  O   UNL     1      11.079  -8.100  -7.140  0.00  0.00    +0.000 OA
ATOM     13  N   UNL     1      11.770  -7.102  -6.952  0.00  0.00    +0.000 N 
ENDBRANCH  10  13
ENDBRANCH   4  10
TORSDOF 2
ENDMDL
