MODEL 1
REMARK VINA RESULT:      -6.9      0.000      0.000
REMARK  Name = 179268_Nortopsentin.pdbqt.pdb
REMARK  2 active torsions:
REMARK  status: ('A' for Active; 'I' for Inactive)
REMARK    1  A    between atoms: C_3  and  C_9
REMARK    2  A    between atoms: C_4  and  C_20
REMARK                            x       y       z     vdW  Elec       q    Type
REMARK                         _______ _______ _______ _____ _____    ______ ____
ROOT
ATOM      1  N   UNL     1      -6.294  -1.135   0.957  0.00  0.00    +0.000 N 
ATOM      2  N   UNL     1      -7.557   0.109  -0.367  0.00  0.00    +0.000 NA
ATOM      3  C   UNL     1      -5.752   0.120   0.998  0.00  0.00    +0.000 A 
ATOM      4  C   UNL     1      -7.382  -1.101   0.122  0.00  0.00    +0.000 A 
ATOM      5  C   UNL     1      -6.551   0.876   0.170  0.00  0.00    +0.000 A 
ATOM      6  H   UNL     1      -5.963  -1.951   1.448  0.00  0.00    +0.000 HD
ENDROOT
BRANCH   3   9
ATOM      7 BR   UNL     1       1.333   1.685   0.936  0.00  0.00    +0.000 Br
ATOM      8  N   UNL     1      -3.341   1.217   3.493  0.00  0.00    +0.000 N 
ATOM      9  C   UNL     1      -4.569   0.556   1.766  0.00  0.00    +0.000 A 
ATOM     10  C   UNL     1      -3.234   0.751   1.310  0.00  0.00    +0.000 A 
ATOM     11  C   UNL     1      -2.485   1.166   2.416  0.00  0.00    +0.000 A 
ATOM     12  C   UNL     1      -4.600   0.851   3.109  0.00  0.00    +0.000 A 
ATOM     13  C   UNL     1      -2.579   0.619   0.069  0.00  0.00    +0.000 A 
ATOM     14  C   UNL     1      -1.118   1.455   2.346  0.00  0.00    +0.000 A 
ATOM     15  C   UNL     1      -1.216   0.902  -0.023  0.00  0.00    +0.000 A 
ATOM     16  C   UNL     1      -0.508   1.312   1.100  0.00  0.00    +0.000 A 
ATOM     17  H   UNL     1      -3.078   1.486   4.431  0.00  0.00    +0.000 HD
ENDBRANCH   3   9
BRANCH   4  20
ATOM     18 BR   UNL     1     -12.892  -5.285   2.275  0.00  0.00    +0.000 Br
ATOM     19  N   UNL     1      -9.077  -4.027  -1.254  0.00  0.00    +0.000 N 
ATOM     20  C   UNL     1      -8.242  -2.271  -0.184  0.00  0.00    +0.000 A 
ATOM     21  C   UNL     1      -9.312  -2.794   0.594  0.00  0.00    +0.000 A 
ATOM     22  C   UNL     1      -9.818  -3.896  -0.101  0.00  0.00    +0.000 A 
ATOM     23  C   UNL     1      -8.122  -3.049  -1.314  0.00  0.00    +0.000 A 
ATOM     24  C   UNL     1      -9.905  -2.442   1.822  0.00  0.00    +0.000 A 
ATOM     25  C   UNL     1     -10.886  -4.666   0.367  0.00  0.00    +0.000 A 
ATOM     26  C   UNL     1     -10.973  -3.199   2.309  0.00  0.00    +0.000 A 
ATOM     27  C   UNL     1     -11.447  -4.286   1.588  0.00  0.00    +0.000 A 
ATOM     28  H   UNL     1      -9.221  -4.743  -1.954  0.00  0.00    +0.000 HD
ENDBRANCH   4  20
TORSDOF 2
ENDMDL
MODEL 2
REMARK VINA RESULT:      -6.9      2.101      9.302
REMARK  Name = 179268_Nortopsentin.pdbqt.pdb
REMARK  2 active torsions:
REMARK  status: ('A' for Active; 'I' for Inactive)
REMARK    1  A    between atoms: C_3  and  C_9
REMARK    2  A    between atoms: C_4  and  C_20
REMARK                            x       y       z     vdW  Elec       q    Type
REMARK                         _______ _______ _______ _____ _____    ______ ____
ROOT
ATOM      1  N   UNL     1      -4.368  -0.068   2.198  0.00  0.00    +0.000 N 
ATOM      2  N   UNL     1      -3.700   1.174   0.495  0.00  0.00    +0.000 NA
ATOM      3  C   UNL     1      -5.399  -0.084   1.300  0.00  0.00    +0.000 A 
ATOM      4  C   UNL     1      -3.360   0.703   1.676  0.00  0.00    +0.000 A 
ATOM      5  C   UNL     1      -4.963   0.693   0.250  0.00  0.00    +0.000 A 
ATOM      6  H   UNL     1      -4.340  -0.535   3.092  0.00  0.00    +0.000 HD
ENDROOT
BRANCH   3   9
ATOM      7 BR   UNL     1     -10.508  -4.150  -1.865  0.00  0.00    +0.000 Br
ATOM      8  N   UNL     1      -8.557  -1.539   2.374  0.00  0.00    +0.000 N 
ATOM      9  C   UNL     1      -6.691  -0.785   1.437  0.00  0.00    +0.000 A 
ATOM     10  C   UNL     1      -7.403  -1.539   0.460  0.00  0.00    +0.000 A 
ATOM     11  C   UNL     1      -8.570  -1.999   1.078  0.00  0.00    +0.000 A 
ATOM     12  C   UNL     1      -7.426  -0.805   2.599  0.00  0.00    +0.000 A 
ATOM     13  C   UNL     1      -7.179  -1.880  -0.888  0.00  0.00    +0.000 A 
ATOM     14  C   UNL     1      -9.524  -2.782   0.417  0.00  0.00    +0.000 A 
ATOM     15  C   UNL     1      -8.116  -2.660  -1.566  0.00  0.00    +0.000 A 
ATOM     16  C   UNL     1      -9.263  -3.098  -0.917  0.00  0.00    +0.000 A 
ATOM     17  H   UNL     1      -9.277  -1.716   3.061  0.00  0.00    +0.000 HD
ENDBRANCH   3   9
BRANCH   4  20
ATOM     18 BR   UNL     1       3.526   2.837   0.948  0.00  0.00    +0.000 Br
ATOM     19  N   UNL     1      -0.548   1.134   3.964  0.00  0.00    +0.000 N 
ATOM     20  C   UNL     1      -2.066   0.965   2.354  0.00  0.00    +0.000 A 
ATOM     21  C   UNL     1      -0.851   1.419   1.769  0.00  0.00    +0.000 A 
ATOM     22  C   UNL     1       0.084   1.516   2.803  0.00  0.00    +0.000 A 
ATOM     23  C   UNL     1      -1.849   0.798   3.703  0.00  0.00    +0.000 A 
ATOM     24  C   UNL     1      -0.451   1.759   0.462  0.00  0.00    +0.000 A 
ATOM     25  C   UNL     1       1.402   1.936   2.599  0.00  0.00    +0.000 A 
ATOM     26  C   UNL     1       0.861   2.180   0.236  0.00  0.00    +0.000 A 
ATOM     27  C   UNL     1       1.761   2.263   1.291  0.00  0.00    +0.000 A 
ATOM     28  H   UNL     1      -0.112   1.106   4.876  0.00  0.00    +0.000 HD
ENDBRANCH   4  20
TORSDOF 2
ENDMDL
MODEL 3
REMARK VINA RESULT:      -6.9     19.631     22.546
REMARK  Name = 179268_Nortopsentin.pdbqt.pdb
REMARK  2 active torsions:
REMARK  status: ('A' for Active; 'I' for Inactive)
REMARK    1  A    between atoms: C_3  and  C_9
REMARK    2  A    between atoms: C_4  and  C_20
REMARK                            x       y       z     vdW  Elec       q    Type
REMARK                         _______ _______ _______ _____ _____    ______ ____
ROOT
ATOM      1  N   UNL     1      -6.113  -1.662 -18.945  0.00  0.00    +0.000 N 
ATOM      2  N   UNL     1      -4.878  -3.492 -18.806  0.00  0.00    +0.000 NA
ATOM      3  C   UNL     1      -6.976  -2.708 -19.128  0.00  0.00    +0.000 A 
ATOM      4  C   UNL     1      -4.856  -2.177 -18.753  0.00  0.00    +0.000 A 
ATOM      5  C   UNL     1      -6.189  -3.833 -19.039  0.00  0.00    +0.000 A 
ATOM      6  H   UNL     1      -6.346  -0.681 -18.947  0.00  0.00    +0.000 HD
ENDROOT
BRANCH   3   9
ATOM      7 BR   UNL     1     -12.516  -4.200 -23.569  0.00  0.00    +0.000 Br
ATOM      8  N   UNL     1     -10.573  -2.166 -19.022  0.00  0.00    +0.000 N 
ATOM      9  C   UNL     1      -8.431  -2.632 -19.370  0.00  0.00    +0.000 A 
ATOM     10  C   UNL     1      -9.172  -3.099 -20.492  0.00  0.00    +0.000 A 
ATOM     11  C   UNL     1     -10.514  -2.792 -20.246  0.00  0.00    +0.000 A 
ATOM     12  C   UNL     1      -9.319  -2.065 -18.487  0.00  0.00    +0.000 A 
ATOM     13  C   UNL     1      -8.844  -3.752 -21.696  0.00  0.00    +0.000 A 
ATOM     14  C   UNL     1     -11.544  -3.104 -21.140  0.00  0.00    +0.000 A 
ATOM     15  C   UNL     1      -9.855  -4.073 -22.603  0.00  0.00    +0.000 A 
ATOM     16  C   UNL     1     -11.177  -3.751 -22.321  0.00  0.00    +0.000 A 
ATOM     17  H   UNL     1     -11.418  -1.828 -18.582  0.00  0.00    +0.000 HD
ENDBRANCH   3   9
BRANCH   4  20
ATOM     18 BR   UNL     1       2.308  -1.584 -19.670  0.00  0.00    +0.000 Br
ATOM     19  N   UNL     1      -2.345   0.310 -17.836  0.00  0.00    +0.000 N 
ATOM     20  C   UNL     1      -3.640  -1.358 -18.518  0.00  0.00    +0.000 A 
ATOM     21  C   UNL     1      -2.303  -1.650 -18.908  0.00  0.00    +0.000 A 
ATOM     22  C   UNL     1      -1.512  -0.586 -18.466  0.00  0.00    +0.000 A 
ATOM     23  C   UNL     1      -3.635  -0.148 -17.861  0.00  0.00    +0.000 A 
ATOM     24  C   UNL     1      -1.684  -2.713 -19.593  0.00  0.00    +0.000 A 
ATOM     25  C   UNL     1      -0.131  -0.528 -18.674  0.00  0.00    +0.000 A 
ATOM     26  C   UNL     1      -0.305  -2.676 -19.811  0.00  0.00    +0.000 A 
ATOM     27  C   UNL     1       0.447  -1.600 -19.357  0.00  0.00    +0.000 A 
ATOM     28  H   UNL     1      -2.045   1.179 -17.416  0.00  0.00    +0.000 HD
ENDBRANCH   4  20
TORSDOF 2
ENDMDL
MODEL 4
REMARK VINA RESULT:      -6.9     19.369     22.632
REMARK  Name = 179268_Nortopsentin.pdbqt.pdb
REMARK  2 active torsions:
REMARK  status: ('A' for Active; 'I' for Inactive)
REMARK    1  A    between atoms: C_3  and  C_9
REMARK    2  A    between atoms: C_4  and  C_20
REMARK                            x       y       z     vdW  Elec       q    Type
REMARK                         _______ _______ _______ _____ _____    ______ ____
ROOT
ATOM      1  N   UNL     1      -6.805  -2.093 -18.863  0.00  0.00    +0.000 N 
ATOM      2  N   UNL     1      -5.133  -3.538 -18.974  0.00  0.00    +0.000 NA
ATOM      3  C   UNL     1      -7.370  -3.290 -19.208  0.00  0.00    +0.000 A 
ATOM      4  C   UNL     1      -5.452  -2.284 -18.731  0.00  0.00    +0.000 A 
ATOM      5  C   UNL     1      -6.315  -4.172 -19.272  0.00  0.00    +0.000 A 
ATOM      6  H   UNL     1      -7.284  -1.217 -18.726  0.00  0.00    +0.000 HD
ENDROOT
BRANCH   3   9
ATOM      7 BR   UNL     1     -13.100  -2.361 -23.561  0.00  0.00    +0.000 Br
ATOM      8  N   UNL     1     -10.849  -4.356 -19.141  0.00  0.00    +0.000 N 
ATOM      9  C   UNL     1      -8.800  -3.562 -19.456  0.00  0.00    +0.000 A 
ATOM     10  C   UNL     1      -9.609  -3.143 -20.550  0.00  0.00    +0.000 A 
ATOM     11  C   UNL     1     -10.891  -3.656 -20.325  0.00  0.00    +0.000 A 
ATOM     12  C   UNL     1      -9.590  -4.304 -18.610  0.00  0.00    +0.000 A 
ATOM     13  C   UNL     1      -9.389  -2.379 -21.712  0.00  0.00    +0.000 A 
ATOM     14  C   UNL     1     -11.962  -3.445 -21.201  0.00  0.00    +0.000 A 
ATOM     15  C   UNL     1     -10.442  -2.156 -22.600  0.00  0.00    +0.000 A 
ATOM     16  C   UNL     1     -11.701  -2.683 -22.340  0.00  0.00    +0.000 A 
ATOM     17  H   UNL     1     -11.632  -4.839 -18.723  0.00  0.00    +0.000 HD
ENDBRANCH   3   9
BRANCH   4  20
ATOM     18 BR   UNL     1      -1.242   3.132 -21.064  0.00  0.00    +0.000 Br
ATOM     19  N   UNL     1      -3.179   0.078 -17.125  0.00  0.00    +0.000 N 
ATOM     20  C   UNL     1      -4.486  -1.219 -18.363  0.00  0.00    +0.000 A 
ATOM     21  C   UNL     1      -3.841  -0.290 -19.226  0.00  0.00    +0.000 A 
ATOM     22  C   UNL     1      -3.026   0.511 -18.423  0.00  0.00    +0.000 A 
ATOM     23  C   UNL     1      -4.059  -0.969 -17.079  0.00  0.00    +0.000 A 
ATOM     24  C   UNL     1      -3.867  -0.048 -20.614  0.00  0.00    +0.000 A 
ATOM     25  C   UNL     1      -2.235   1.544 -18.933  0.00  0.00    +0.000 A 
ATOM     26  C   UNL     1      -3.083   0.978 -21.145  0.00  0.00    +0.000 A 
ATOM     27  C   UNL     1      -2.287   1.753 -20.312  0.00  0.00    +0.000 A 
ATOM     28  H   UNL     1      -2.707   0.477 -16.325  0.00  0.00    +0.000 HD
ENDBRANCH   4  20
TORSDOF 2
ENDMDL
MODEL 5
REMARK VINA RESULT:      -6.7     21.593     25.159
REMARK  Name = 179268_Nortopsentin.pdbqt.pdb
REMARK  2 active torsions:
REMARK  status: ('A' for Active; 'I' for Inactive)
REMARK    1  A    between atoms: C_3  and  C_9
REMARK    2  A    between atoms: C_4  and  C_20
REMARK                            x       y       z     vdW  Elec       q    Type
REMARK                         _______ _______ _______ _____ _____    ______ ____
ROOT
ATOM      1  N   UNL     1       6.579  -0.263 -18.909  0.00  0.00    +0.000 N 
ATOM      2  N   UNL     1       6.289   1.902 -19.258  0.00  0.00    +0.000 NA
ATOM      3  C   UNL     1       5.226  -0.067 -18.921  0.00  0.00    +0.000 A 
ATOM      4  C   UNL     1       7.187   0.950 -19.115  0.00  0.00    +0.000 A 
ATOM      5  C   UNL     1       5.068   1.284 -19.139  0.00  0.00    +0.000 A 
ATOM      6  H   UNL     1       7.060  -1.139 -18.774  0.00  0.00    +0.000 HD
ENDROOT
BRANCH   3   9
ATOM      7 BR   UNL     1       2.220  -6.228 -21.299  0.00  0.00    +0.000 Br
ATOM      8  N   UNL     1       2.429  -2.138 -17.860  0.00  0.00    +0.000 N 
ATOM      9  C   UNL     1       4.175  -1.088 -18.740  0.00  0.00    +0.000 A 
ATOM     10  C   UNL     1       3.922  -2.253 -19.518  0.00  0.00    +0.000 A 
ATOM     11  C   UNL     1       2.820  -2.893 -18.942  0.00  0.00    +0.000 A 
ATOM     12  C   UNL     1       3.241  -1.047 -17.731  0.00  0.00    +0.000 A 
ATOM     13  C   UNL     1       4.515  -2.835 -20.656  0.00  0.00    +0.000 A 
ATOM     14  C   UNL     1       2.280  -4.082 -19.444  0.00  0.00    +0.000 A 
ATOM     15  C   UNL     1       3.994  -4.021 -21.173  0.00  0.00    +0.000 A 
ATOM     16  C   UNL     1       2.897  -4.625 -20.571  0.00  0.00    +0.000 A 
ATOM     17  H   UNL     1       1.654  -2.357 -17.248  0.00  0.00    +0.000 HD
ENDBRANCH   3   9
BRANCH   4  20
ATOM     18 BR   UNL     1      13.346   1.619 -15.358  0.00  0.00    +0.000 Br
ATOM     19  N   UNL     1      10.691   1.472 -19.997  0.00  0.00    +0.000 N 
ATOM     20  C   UNL     1       8.656   1.155 -19.171  0.00  0.00    +0.000 A 
ATOM     21  C   UNL     1       9.568   1.229 -18.081  0.00  0.00    +0.000 A 
ATOM     22  C   UNL     1      10.837   1.429 -18.629  0.00  0.00    +0.000 A 
ATOM     23  C   UNL     1       9.375   1.308 -20.335  0.00  0.00    +0.000 A 
ATOM     24  C   UNL     1       9.443   1.145 -16.681  0.00  0.00    +0.000 A 
ATOM     25  C   UNL     1      11.992   1.550 -17.850  0.00  0.00    +0.000 A 
ATOM     26  C   UNL     1      10.583   1.265 -15.883  0.00  0.00    +0.000 A 
ATOM     27  C   UNL     1      11.827   1.463 -16.466  0.00  0.00    +0.000 A 
ATOM     28  H   UNL     1      11.447   1.606 -20.654  0.00  0.00    +0.000 HD
ENDBRANCH   4  20
TORSDOF 2
ENDMDL
MODEL 6
REMARK VINA RESULT:      -6.7     22.231     24.805
REMARK  Name = 179268_Nortopsentin.pdbqt.pdb
REMARK  2 active torsions:
REMARK  status: ('A' for Active; 'I' for Inactive)
REMARK    1  A    between atoms: C_3  and  C_9
REMARK    2  A    between atoms: C_4  and  C_20
REMARK                            x       y       z     vdW  Elec       q    Type
REMARK                         _______ _______ _______ _____ _____    ______ ____
ROOT
ATOM      1  N   UNL     1       7.347   0.951 -18.486  0.00  0.00    +0.000 N 
ATOM      2  N   UNL     1       5.974   2.667 -18.738  0.00  0.00    +0.000 NA
ATOM      3  C   UNL     1       8.144   2.028 -18.763  0.00  0.00    +0.000 A 
ATOM      4  C   UNL     1       6.043   1.378 -18.480  0.00  0.00    +0.000 A 
ATOM      5  C   UNL     1       7.271   3.082 -18.916  0.00  0.00    +0.000 A 
ATOM      6  H   UNL     1       7.651   0.005 -18.315  0.00  0.00    +0.000 HD
ENDROOT
BRANCH   3   9
ATOM      7 BR   UNL     1      13.945   2.017 -23.121  0.00  0.00    +0.000 Br
ATOM      8  N   UNL     1      11.746   2.080 -18.248  0.00  0.00    +0.000 N 
ATOM      9  C   UNL     1       9.616   2.043 -18.873  0.00  0.00    +0.000 A 
ATOM     10  C   UNL     1      10.422   2.031 -20.047  0.00  0.00    +0.000 A 
ATOM     11  C   UNL     1      11.754   2.055 -19.623  0.00  0.00    +0.000 A 
ATOM     12  C   UNL     1      10.459   2.073 -17.787  0.00  0.00    +0.000 A 
ATOM     13  C   UNL     1      10.159   2.003 -21.431  0.00  0.00    +0.000 A 
ATOM     14  C   UNL     1      12.837   2.051 -20.511  0.00  0.00    +0.000 A 
ATOM     15  C   UNL     1      11.223   2.000 -22.333  0.00  0.00    +0.000 A 
ATOM     16  C   UNL     1      12.533   2.023 -21.872  0.00  0.00    +0.000 A 
ATOM     17  H   UNL     1      12.569   2.100 -17.661  0.00  0.00    +0.000 HD
ENDBRANCH   3   9
BRANCH   4  20
ATOM     18 BR   UNL     1       2.484  -4.668 -20.293  0.00  0.00    +0.000 Br
ATOM     19  N   UNL     1       3.005  -0.267 -17.300  0.00  0.00    +0.000 N 
ATOM     20  C   UNL     1       4.874   0.502 -18.215  0.00  0.00    +0.000 A 
ATOM     21  C   UNL     1       4.526  -0.710 -18.875  0.00  0.00    +0.000 A 
ATOM     22  C   UNL     1       3.349  -1.171 -18.280  0.00  0.00    +0.000 A 
ATOM     23  C   UNL     1       3.921   0.748 -17.254  0.00  0.00    +0.000 A 
ATOM     24  C   UNL     1       5.095  -1.465 -19.919  0.00  0.00    +0.000 A 
ATOM     25  C   UNL     1       2.708  -2.349 -18.675  0.00  0.00    +0.000 A 
ATOM     26  C   UNL     1       4.470  -2.645 -20.330  0.00  0.00    +0.000 A 
ATOM     27  C   UNL     1       3.301  -3.069 -19.713  0.00  0.00    +0.000 A 
ATOM     28  H   UNL     1       2.192  -0.345 -16.704  0.00  0.00    +0.000 HD
ENDBRANCH   4  20
TORSDOF 2
ENDMDL
MODEL 7
REMARK VINA RESULT:      -6.5      5.823     12.879
REMARK  Name = 179268_Nortopsentin.pdbqt.pdb
REMARK  2 active torsions:
REMARK  status: ('A' for Active; 'I' for Inactive)
REMARK    1  A    between atoms: C_3  and  C_9
REMARK    2  A    between atoms: C_4  and  C_20
REMARK                            x       y       z     vdW  Elec       q    Type
REMARK                         _______ _______ _______ _____ _____    ______ ____
ROOT
ATOM      1  N   UNL     1       2.598   2.220   1.018  0.00  0.00    +0.000 N 
ATOM      2  N   UNL     1       2.968   3.507   2.779  0.00  0.00    +0.000 NA
ATOM      3  C   UNL     1       1.390   2.344   1.648  0.00  0.00    +0.000 A 
ATOM      4  C   UNL     1       3.525   2.936   1.732  0.00  0.00    +0.000 A 
ATOM      5  C   UNL     1       1.642   3.146   2.738  0.00  0.00    +0.000 A 
ATOM      6  H   UNL     1       2.788   1.697   0.177  0.00  0.00    +0.000 HD
ENDROOT
BRANCH   3   9
ATOM      7 BR   UNL     1      -5.027  -0.343   3.707  0.00  0.00    +0.000 Br
ATOM      8  N   UNL     1      -1.484   0.941  -0.087  0.00  0.00    +0.000 N 
ATOM      9  C   UNL     1       0.105   1.744   1.238  0.00  0.00    +0.000 A 
ATOM     10  C   UNL     1      -0.982   1.324   2.057  0.00  0.00    +0.000 A 
ATOM     11  C   UNL     1      -1.966   0.824   1.197  0.00  0.00    +0.000 A 
ATOM     12  C   UNL     1      -0.236   1.496  -0.071  0.00  0.00    +0.000 A 
ATOM     13  C   UNL     1      -1.236   1.316   3.442  0.00  0.00    +0.000 A 
ATOM     14  C   UNL     1      -3.188   0.316   1.651  0.00  0.00    +0.000 A 
ATOM     15  C   UNL     1      -2.449   0.815   3.916  0.00  0.00    +0.000 A 
ATOM     16  C   UNL     1      -3.400   0.327   3.029  0.00  0.00    +0.000 A 
ATOM     17  H   UNL     1      -1.980   0.659  -0.921  0.00  0.00    +0.000 HD
ENDBRANCH   3   9
BRANCH   4  20
ATOM     18 BR   UNL     1       8.382   5.518  -2.985  0.00  0.00    +0.000 Br
ATOM     19  N   UNL     1       7.164   2.813   1.464  0.00  0.00    +0.000 N 
ATOM     20  C   UNL     1       4.960   3.050   1.368  0.00  0.00    +0.000 A 
ATOM     21  C   UNL     1       5.525   3.713   0.243  0.00  0.00    +0.000 A 
ATOM     22  C   UNL     1       6.909   3.548   0.329  0.00  0.00    +0.000 A 
ATOM     23  C   UNL     1       5.992   2.506   2.100  0.00  0.00    +0.000 A 
ATOM     24  C   UNL     1       4.997   4.440  -0.842  0.00  0.00    +0.000 A 
ATOM     25  C   UNL     1       7.797   4.072  -0.615  0.00  0.00    +0.000 A 
ATOM     26  C   UNL     1       5.867   4.971  -1.797  0.00  0.00    +0.000 A 
ATOM     27  C   UNL     1       7.237   4.785  -1.676  0.00  0.00    +0.000 A 
ATOM     28  H   UNL     1       8.085   2.540   1.780  0.00  0.00    +0.000 HD
ENDBRANCH   4  20
TORSDOF 2
ENDMDL
MODEL 8
REMARK VINA RESULT:      -6.3     18.130     21.674
REMARK  Name = 179268_Nortopsentin.pdbqt.pdb
REMARK  2 active torsions:
REMARK  status: ('A' for Active; 'I' for Inactive)
REMARK    1  A    between atoms: C_3  and  C_9
REMARK    2  A    between atoms: C_4  and  C_20
REMARK                            x       y       z     vdW  Elec       q    Type
REMARK                         _______ _______ _______ _____ _____    ______ ____
ROOT
ATOM      1  N   UNL     1      12.974  -4.390  -7.460  0.00  0.00    +0.000 N 
ATOM      2  N   UNL     1      11.435  -5.318  -8.750  0.00  0.00    +0.000 NA
ATOM      3  C   UNL     1      13.478  -4.346  -8.731  0.00  0.00    +0.000 A 
ATOM      4  C   UNL     1      11.739  -4.985  -7.513  0.00  0.00    +0.000 A 
ATOM      5  C   UNL     1      12.507  -4.927  -9.515  0.00  0.00    +0.000 A 
ATOM      6  H   UNL     1      13.420  -4.049  -6.623  0.00  0.00    +0.000 HD
ENDROOT
BRANCH   3   9
ATOM      7 BR   UNL     1      18.979   0.150  -7.255  0.00  0.00    +0.000 Br
ATOM      8  N   UNL     1      16.588  -3.456 -10.398  0.00  0.00    +0.000 N 
ATOM      9  C   UNL     1      14.780  -3.793  -9.156  0.00  0.00    +0.000 A 
ATOM     10  C   UNL     1      15.597  -2.833  -8.494  0.00  0.00    +0.000 A 
ATOM     11  C   UNL     1      16.726  -2.641  -9.298  0.00  0.00    +0.000 A 
ATOM     12  C   UNL     1      15.416  -4.155 -10.320  0.00  0.00    +0.000 A 
ATOM     13  C   UNL     1      15.498  -2.103  -7.294  0.00  0.00    +0.000 A 
ATOM     14  C   UNL     1      17.759  -1.758  -8.963  0.00  0.00    +0.000 A 
ATOM     15  C   UNL     1      16.517  -1.218  -6.940  0.00  0.00    +0.000 A 
ATOM     16  C   UNL     1      17.622  -1.056  -7.766  0.00  0.00    +0.000 A 
ATOM     17  H   UNL     1      17.255  -3.529 -11.154  0.00  0.00    +0.000 HD
ENDBRANCH   3   9
BRANCH   4  20
ATOM     18 BR   UNL     1      10.581  -8.894  -1.523  0.00  0.00    +0.000 Br
ATOM     19  N   UNL     1       9.193  -4.984  -4.897  0.00  0.00    +0.000 N 
ATOM     20  C   UNL     1      10.867  -5.216  -6.334  0.00  0.00    +0.000 A 
ATOM     21  C   UNL     1      11.029  -6.188  -5.307  0.00  0.00    +0.000 A 
ATOM     22  C   UNL     1       9.964  -6.020  -4.419  0.00  0.00    +0.000 A 
ATOM     23  C   UNL     1       9.730  -4.492  -6.055  0.00  0.00    +0.000 A 
ATOM     24  C   UNL     1      11.977  -7.196  -5.042  0.00  0.00    +0.000 A 
ATOM     25  C   UNL     1       9.794  -6.807  -3.277  0.00  0.00    +0.000 A 
ATOM     26  C   UNL     1      11.826  -7.995  -3.906  0.00  0.00    +0.000 A 
ATOM     27  C   UNL     1      10.753  -7.796  -3.048  0.00  0.00    +0.000 A 
ATOM     28  H   UNL     1       8.351  -4.640  -4.454  0.00  0.00    +0.000 HD
ENDBRANCH   4  20
TORSDOF 2
ENDMDL
MODEL 9
REMARK VINA RESULT:      -6.1     18.711     22.308
REMARK  Name = 179268_Nortopsentin.pdbqt.pdb
REMARK  2 active torsions:
REMARK  status: ('A' for Active; 'I' for Inactive)
REMARK    1  A    between atoms: C_3  and  C_9
REMARK    2  A    between atoms: C_4  and  C_20
REMARK                            x       y       z     vdW  Elec       q    Type
REMARK                         _______ _______ _______ _____ _____    ______ ____
ROOT
ATOM      1  N   UNL     1      13.048  -4.376  -7.565  0.00  0.00    +0.000 N 
ATOM      2  N   UNL     1      11.546  -5.296  -8.903  0.00  0.00    +0.000 NA
ATOM      3  C   UNL     1      13.588  -4.326  -8.820  0.00  0.00    +0.000 A 
ATOM      4  C   UNL     1      11.814  -4.970  -7.656  0.00  0.00    +0.000 A 
ATOM      5  C   UNL     1      12.640  -4.902  -9.635  0.00  0.00    +0.000 A 
ATOM      6  H   UNL     1      13.470  -4.040  -6.713  0.00  0.00    +0.000 HD
ENDROOT
BRANCH   3   9
ATOM      7 BR   UNL     1      19.312  -4.703 -13.263  0.00  0.00    +0.000 Br
ATOM      8  N   UNL     1      16.692  -2.461  -9.176  0.00  0.00    +0.000 N 
ATOM      9  C   UNL     1      14.902  -3.772  -9.205  0.00  0.00    +0.000 A 
ATOM     10  C   UNL     1      15.776  -4.196 -10.246  0.00  0.00    +0.000 A 
ATOM     11  C   UNL     1      16.892  -3.354 -10.204  0.00  0.00    +0.000 A 
ATOM     12  C   UNL     1      15.493  -2.706  -8.568  0.00  0.00    +0.000 A 
ATOM     13  C   UNL     1      15.738  -5.209 -11.224  0.00  0.00    +0.000 A 
ATOM     14  C   UNL     1      17.971  -3.473 -11.088  0.00  0.00    +0.000 A 
ATOM     15  C   UNL     1      16.802  -5.345 -12.116  0.00  0.00    +0.000 A 
ATOM     16  C   UNL     1      17.893  -4.488 -12.041  0.00  0.00    +0.000 A 
ATOM     17  H   UNL     1      17.337  -1.729  -8.909  0.00  0.00    +0.000 HD
ENDBRANCH   3   9
BRANCH   4  20
ATOM     18 BR   UNL     1      10.580  -8.784  -1.620  0.00  0.00    +0.000 Br
ATOM     19  N   UNL     1       9.176  -5.005  -5.133  0.00  0.00    +0.000 N 
ATOM     20  C   UNL     1      10.909  -5.207  -6.504  0.00  0.00    +0.000 A 
ATOM     21  C   UNL     1      11.068  -6.148  -5.449  0.00  0.00    +0.000 A 
ATOM     22  C   UNL     1       9.966  -6.000  -4.604  0.00  0.00    +0.000 A 
ATOM     23  C   UNL     1       9.737  -4.519  -6.283  0.00  0.00    +0.000 A 
ATOM     24  C   UNL     1      12.041  -7.115  -5.126  0.00  0.00    +0.000 A 
ATOM     25  C   UNL     1       9.783  -6.767  -3.450  0.00  0.00    +0.000 A 
ATOM     26  C   UNL     1      11.877  -7.893  -3.979  0.00  0.00    +0.000 A 
ATOM     27  C   UNL     1      10.767  -7.715  -3.164  0.00  0.00    +0.000 A 
ATOM     28  H   UNL     1       8.307  -4.682  -4.729  0.00  0.00    +0.000 HD
ENDBRANCH   4  20
TORSDOF 2
ENDMDL
