MODEL 1
REMARK VINA RESULT:      -4.8      0.000      0.000
REMARK  Name = 21574552_Mertensene.pdbqt.pdb
REMARK  1 active torsions:
REMARK  status: ('A' for Active; 'I' for Inactive)
REMARK    1  A    between atoms: C_4  and  C_13
REMARK                            x       y       z     vdW  Elec       q    Type
REMARK                         _______ _______ _______ _____ _____    ______ ____
ROOT
ATOM      1 BR   UNL     1      13.574  11.505 -10.731  0.00  0.00    +0.000 Br
ATOM      2 CL   UNL     1      11.339   7.779 -14.791  0.00  0.00    +0.000 Cl
ATOM      3 CL   UNL     1      14.527   8.824 -15.382  0.00  0.00    +0.000 Cl
ATOM      4  C   UNL     1      11.256  10.878 -12.510  0.00  0.00    +0.000 C 
ATOM      5  C   UNL     1      11.097  10.166 -13.783  0.00  0.00    +0.000 C 
ATOM      6  C   UNL     1      11.805   9.496 -14.870  0.00  0.00    +0.000 C 
ATOM      7  C   UNL     1      12.791  10.954 -12.309  0.00  0.00    +0.000 C 
ATOM      8  C   UNL     1      13.296   9.677 -14.555  0.00  0.00    +0.000 C 
ATOM      9  C   UNL     1      13.581  10.356 -13.335  0.00  0.00    +0.000 C 
ATOM     10  C   UNL     1      10.685  12.309 -12.627  0.00  0.00    +0.000 C 
ATOM     11  C   UNL     1      11.436  10.045 -16.252  0.00  0.00    +0.000 C 
ENDROOT
BRANCH   4  13
ATOM     12 CL   UNL     1       9.376   8.608  -9.213  0.00  0.00    +0.000 Cl
ATOM     13  C   UNL     1      10.637  10.118 -11.413  0.00  0.00    +0.000 C 
ATOM     14  C   UNL     1      10.129   9.501 -10.518  0.00  0.00    +0.000 C 
ENDBRANCH   4  13
TORSDOF 1
ENDMDL
MODEL 2
REMARK VINA RESULT:      -4.4      9.951     11.306
REMARK  Name = 21574552_Mertensene.pdbqt.pdb
REMARK  1 active torsions:
REMARK  status: ('A' for Active; 'I' for Inactive)
REMARK    1  A    between atoms: C_4  and  C_13
REMARK                            x       y       z     vdW  Elec       q    Type
REMARK                         _______ _______ _______ _____ _____    ______ ____
ROOT
ATOM      1 BR   UNL     1      12.620   2.452 -19.879  0.00  0.00    +0.000 Br
ATOM      2 CL   UNL     1       7.222  -0.028 -19.613  0.00  0.00    +0.000 Cl
ATOM      3 CL   UNL     1       7.547   2.500 -21.872  0.00  0.00    +0.000 Cl
ATOM      4  C   UNL     1      10.388   1.558 -18.104  0.00  0.00    +0.000 C 
ATOM      5  C   UNL     1       8.940   1.395 -18.272  0.00  0.00    +0.000 C 
ATOM      6  C   UNL     1       7.816   1.595 -19.184  0.00  0.00    +0.000 C 
ATOM      7  C   UNL     1      10.846   2.248 -19.414  0.00  0.00    +0.000 C 
ATOM      8  C   UNL     1       8.408   2.306 -20.408  0.00  0.00    +0.000 C 
ATOM      9  C   UNL     1       9.817   2.520 -20.364  0.00  0.00    +0.000 C 
ATOM     10  C   UNL     1      10.682   2.489 -16.906  0.00  0.00    +0.000 C 
ATOM     11  C   UNL     1       6.669   2.390 -18.552  0.00  0.00    +0.000 C 
ENDROOT
BRANCH   4  13
ATOM     12 CL   UNL     1      12.334  -2.392 -17.685  0.00  0.00    +0.000 Cl
ATOM     13  C   UNL     1      11.042   0.247 -17.965  0.00  0.00    +0.000 C 
ATOM     14  C   UNL     1      11.572  -0.824 -17.851  0.00  0.00    +0.000 C 
ENDBRANCH   4  13
TORSDOF 1
ENDMDL
MODEL 3
REMARK VINA RESULT:      -4.4     25.912     27.027
REMARK  Name = 21574552_Mertensene.pdbqt.pdb
REMARK  1 active torsions:
REMARK  status: ('A' for Active; 'I' for Inactive)
REMARK    1  A    between atoms: C_4  and  C_13
REMARK                            x       y       z     vdW  Elec       q    Type
REMARK                         _______ _______ _______ _____ _____    ______ ____
ROOT
ATOM      1 BR   UNL     1      -9.720  -3.554 -23.872  0.00  0.00    +0.000 Br
ATOM      2 CL   UNL     1      -9.198  -2.133 -18.121  0.00  0.00    +0.000 Cl
ATOM      3 CL   UNL     1      -7.077  -4.564 -19.212  0.00  0.00    +0.000 Cl
ATOM      4  C   UNL     1     -11.158  -3.089 -21.293  0.00  0.00    +0.000 C 
ATOM      5  C   UNL     1     -10.795  -3.202 -19.876  0.00  0.00    +0.000 C 
ATOM      6  C   UNL     1      -9.750  -3.614 -18.943  0.00  0.00    +0.000 C 
ATOM      7  C   UNL     1      -9.940  -3.686 -22.044  0.00  0.00    +0.000 C 
ATOM      8  C   UNL     1      -8.636  -4.206 -19.817  0.00  0.00    +0.000 C 
ATOM      9  C   UNL     1      -8.872  -4.150 -21.222  0.00  0.00    +0.000 C 
ATOM     10  C   UNL     1     -12.410  -3.943 -21.591  0.00  0.00    +0.000 C 
ATOM     11  C   UNL     1     -10.247  -4.608 -17.889  0.00  0.00    +0.000 C 
ENDROOT
BRANCH   4  13
ATOM     12 CL   UNL     1     -11.714   1.158 -22.396  0.00  0.00    +0.000 Cl
ATOM     13  C   UNL     1     -11.343  -1.678 -21.667  0.00  0.00    +0.000 C 
ATOM     14  C   UNL     1     -11.494  -0.526 -21.968  0.00  0.00    +0.000 C 
ENDBRANCH   4  13
TORSDOF 1
ENDMDL
MODEL 4
REMARK VINA RESULT:      -4.3     26.513     27.671
REMARK  Name = 21574552_Mertensene.pdbqt.pdb
REMARK  1 active torsions:
REMARK  status: ('A' for Active; 'I' for Inactive)
REMARK    1  A    between atoms: C_4  and  C_13
REMARK                            x       y       z     vdW  Elec       q    Type
REMARK                         _______ _______ _______ _____ _____    ______ ____
ROOT
ATOM      1 BR   UNL     1       2.701 -18.001 -16.274  0.00  0.00    +0.000 Br
ATOM      2 CL   UNL     1       5.005 -15.455 -11.419  0.00  0.00    +0.000 Cl
ATOM      3 CL   UNL     1       2.290 -17.435 -10.867  0.00  0.00    +0.000 Cl
ATOM      4  C   UNL     1       3.679 -15.465 -15.032  0.00  0.00    +0.000 C 
ATOM      5  C   UNL     1       3.775 -14.960 -13.658  0.00  0.00    +0.000 C 
ATOM      6  C   UNL     1       3.452 -15.238 -12.261  0.00  0.00    +0.000 C 
ATOM      7  C   UNL     1       2.886 -16.789 -14.894  0.00  0.00    +0.000 C 
ATOM      8  C   UNL     1       2.650 -16.547 -12.283  0.00  0.00    +0.000 C 
ATOM      9  C   UNL     1       2.491 -17.140 -13.570  0.00  0.00    +0.000 C 
ATOM     10  C   UNL     1       2.875 -14.476 -15.906  0.00  0.00    +0.000 C 
ATOM     11  C   UNL     1       2.679 -14.099 -11.588  0.00  0.00    +0.000 C 
ENDROOT
BRANCH   4  13
ATOM     12 CL   UNL     1       7.714 -16.266 -16.656  0.00  0.00    +0.000 Cl
ATOM     13  C   UNL     1       5.019 -15.730 -15.579  0.00  0.00    +0.000 C 
ATOM     14  C   UNL     1       6.113 -15.947 -16.022  0.00  0.00    +0.000 C 
ENDBRANCH   4  13
TORSDOF 1
ENDMDL
MODEL 5
REMARK VINA RESULT:      -4.2      9.941     11.966
REMARK  Name = 21574552_Mertensene.pdbqt.pdb
REMARK  1 active torsions:
REMARK  status: ('A' for Active; 'I' for Inactive)
REMARK    1  A    between atoms: C_4  and  C_13
REMARK                            x       y       z     vdW  Elec       q    Type
REMARK                         _______ _______ _______ _____ _____    ______ ____
ROOT
ATOM      1 BR   UNL     1      11.418   1.839 -23.006  0.00  0.00    +0.000 Br
ATOM      2 CL   UNL     1       9.641   0.611 -17.466  0.00  0.00    +0.000 Cl
ATOM      3 CL   UNL     1       7.870   3.053 -19.049  0.00  0.00    +0.000 Cl
ATOM      4  C   UNL     1      12.258   1.423 -20.168  0.00  0.00    +0.000 C 
ATOM      5  C   UNL     1      11.605   1.589 -18.865  0.00  0.00    +0.000 C 
ATOM      6  C   UNL     1      10.396   2.053 -18.189  0.00  0.00    +0.000 C 
ATOM      7  C   UNL     1      11.246   2.023 -21.178  0.00  0.00    +0.000 C 
ATOM      8  C   UNL     1       9.512   2.641 -19.296  0.00  0.00    +0.000 C 
ATOM      9  C   UNL     1      10.040   2.536 -20.616  0.00  0.00    +0.000 C 
ATOM     10  C   UNL     1      13.569   2.240 -20.213  0.00  0.00    +0.000 C 
ATOM     11  C   UNL     1      10.685   3.069 -17.079  0.00  0.00    +0.000 C 
ENDROOT
BRANCH   4  13
ATOM     12 CL   UNL     1      12.907  -2.862 -21.051  0.00  0.00    +0.000 Cl
ATOM     13  C   UNL     1      12.479  -0.002 -20.457  0.00  0.00    +0.000 C 
ATOM     14  C   UNL     1      12.657  -1.165 -20.695  0.00  0.00    +0.000 C 
ENDBRANCH   4  13
TORSDOF 1
ENDMDL
MODEL 6
REMARK VINA RESULT:      -3.9     10.354     11.984
REMARK  Name = 21574552_Mertensene.pdbqt.pdb
REMARK  1 active torsions:
REMARK  status: ('A' for Active; 'I' for Inactive)
REMARK    1  A    between atoms: C_4  and  C_13
REMARK                            x       y       z     vdW  Elec       q    Type
REMARK                         _______ _______ _______ _____ _____    ______ ____
ROOT
ATOM      1 BR   UNL     1       6.264   1.875 -18.529  0.00  0.00    +0.000 Br
ATOM      2 CL   UNL     1      11.456  -0.821 -17.465  0.00  0.00    +0.000 Cl
ATOM      3 CL   UNL     1      10.816   1.906 -15.529  0.00  0.00    +0.000 Cl
ATOM      4  C   UNL     1       8.760   0.744 -19.722  0.00  0.00    +0.000 C 
ATOM      5  C   UNL     1      10.132   0.542 -19.243  0.00  0.00    +0.000 C 
ATOM      6  C   UNL     1      11.054   0.779 -18.135  0.00  0.00    +0.000 C 
ATOM      7  C   UNL     1       8.082   1.564 -18.595  0.00  0.00    +0.000 C 
ATOM      8  C   UNL     1      10.263   1.617 -17.121  0.00  0.00    +0.000 C 
ATOM      9  C   UNL     1       8.907   1.879 -17.475  0.00  0.00    +0.000 C 
ATOM     10  C   UNL     1       8.769   1.577 -21.024  0.00  0.00    +0.000 C 
ATOM     11  C   UNL     1      12.348   1.472 -18.573  0.00  0.00    +0.000 C 
ENDROOT
BRANCH   4  13
ATOM     12 CL   UNL     1       6.688  -3.131 -20.225  0.00  0.00    +0.000 Cl
ATOM     13  C   UNL     1       8.077  -0.548 -19.892  0.00  0.00    +0.000 C 
ATOM     14  C   UNL     1       7.516  -1.600 -20.029  0.00  0.00    +0.000 C 
ENDBRANCH   4  13
TORSDOF 1
ENDMDL
MODEL 7
REMARK VINA RESULT:      -3.9     11.058     12.079
REMARK  Name = 21574552_Mertensene.pdbqt.pdb
REMARK  1 active torsions:
REMARK  status: ('A' for Active; 'I' for Inactive)
REMARK    1  A    between atoms: C_4  and  C_13
REMARK                            x       y       z     vdW  Elec       q    Type
REMARK                         _______ _______ _______ _____ _____    ______ ____
ROOT
ATOM      1 BR   UNL     1       7.992   2.082 -21.946  0.00  0.00    +0.000 Br
ATOM      2 CL   UNL     1      10.034   0.857 -16.497  0.00  0.00    +0.000 Cl
ATOM      3 CL   UNL     1      12.362   2.034 -18.687  0.00  0.00    +0.000 Cl
ATOM      4  C   UNL     1       8.087   0.083 -19.725  0.00  0.00    +0.000 C 
ATOM      5  C   UNL     1       9.037  -0.216 -18.648  0.00  0.00    +0.000 C 
ATOM      6  C   UNL     1      10.344   0.115 -18.086  0.00  0.00    +0.000 C 
ATOM      7  C   UNL     1       8.821   1.135 -20.596  0.00  0.00    +0.000 C 
ATOM      8  C   UNL     1      10.958   1.131 -19.058  0.00  0.00    +0.000 C 
ATOM      9  C   UNL     1      10.125   1.506 -20.152  0.00  0.00    +0.000 C 
ATOM     10  C   UNL     1       7.824  -1.184 -20.569  0.00  0.00    +0.000 C 
ATOM     11  C   UNL     1      11.239  -1.114 -17.892  0.00  0.00    +0.000 C 
ENDROOT
BRANCH   4  13
ATOM     12 CL   UNL     1       4.348   1.786 -18.089  0.00  0.00    +0.000 Cl
ATOM     13  C   UNL     1       6.847   0.655 -19.177  0.00  0.00    +0.000 C 
ATOM     14  C   UNL     1       5.834   1.118 -18.731  0.00  0.00    +0.000 C 
ENDBRANCH   4  13
TORSDOF 1
ENDMDL
MODEL 8
REMARK VINA RESULT:      -3.9     22.301     24.440
REMARK  Name = 21574552_Mertensene.pdbqt.pdb
REMARK  1 active torsions:
REMARK  status: ('A' for Active; 'I' for Inactive)
REMARK    1  A    between atoms: C_4  and  C_13
REMARK                            x       y       z     vdW  Elec       q    Type
REMARK                         _______ _______ _______ _____ _____    ______ ____
ROOT
ATOM      1 BR   UNL     1      -1.782  -0.141   5.704  0.00  0.00    +0.000 Br
ATOM      2 CL   UNL     1      -3.137  -1.399   0.052  0.00  0.00    +0.000 Cl
ATOM      3 CL   UNL     1      -0.976   1.198   0.481  0.00  0.00    +0.000 Cl
ATOM      4  C   UNL     1      -3.969  -0.690   3.742  0.00  0.00    +0.000 C 
ATOM      5  C   UNL     1      -4.122  -0.517   2.294  0.00  0.00    +0.000 C 
ATOM      6  C   UNL     1      -3.494   0.008   1.084  0.00  0.00    +0.000 C 
ATOM      7  C   UNL     1      -2.622   0.004   4.066  0.00  0.00    +0.000 C 
ATOM      8  C   UNL     1      -2.201   0.684   1.558  0.00  0.00    +0.000 C 
ATOM      9  C   UNL     1      -1.938   0.581   2.956  0.00  0.00    +0.000 C 
ATOM     10  C   UNL     1      -5.110   0.038   4.487  0.00  0.00    +0.000 C 
ATOM     11  C   UNL     1      -4.400   0.971   0.310  0.00  0.00    +0.000 C 
ENDROOT
BRANCH   4  13
ATOM     12 CL   UNL     1      -3.785  -4.984   4.786  0.00  0.00    +0.000 Cl
ATOM     13  C   UNL     1      -3.901  -2.119   4.087  0.00  0.00    +0.000 C 
ATOM     14  C   UNL     1      -3.849  -3.284   4.369  0.00  0.00    +0.000 C 
ENDBRANCH   4  13
TORSDOF 1
ENDMDL
MODEL 9
REMARK VINA RESULT:      -3.8     10.252     11.876
REMARK  Name = 21574552_Mertensene.pdbqt.pdb
REMARK  1 active torsions:
REMARK  status: ('A' for Active; 'I' for Inactive)
REMARK    1  A    between atoms: C_4  and  C_13
REMARK                            x       y       z     vdW  Elec       q    Type
REMARK                         _______ _______ _______ _____ _____    ______ ____
ROOT
ATOM      1 BR   UNL     1      12.692   2.446 -21.475  0.00  0.00    +0.000 Br
ATOM      2 CL   UNL     1       9.402   0.932 -16.758  0.00  0.00    +0.000 Cl
ATOM      3 CL   UNL     1      12.608   1.844 -16.057  0.00  0.00    +0.000 Cl
ATOM      4  C   UNL     1      10.826   0.429 -20.298  0.00  0.00    +0.000 C 
ATOM      5  C   UNL     1      10.491   0.008 -18.933  0.00  0.00    +0.000 C 
ATOM      6  C   UNL     1      10.821   0.174 -17.520  0.00  0.00    +0.000 C 
ATOM      7  C   UNL     1      12.025   1.393 -20.113  0.00  0.00    +0.000 C 
ATOM      8  C   UNL     1      12.031   1.119 -17.494  0.00  0.00    +0.000 C 
ATOM      9  C   UNL     1      12.452   1.601 -18.768  0.00  0.00    +0.000 C 
ATOM     10  C   UNL     1      11.276  -0.790 -21.135  0.00  0.00    +0.000 C 
ATOM     11  C   UNL     1      11.111  -1.155 -16.814  0.00  0.00    +0.000 C 
ENDROOT
BRANCH   4  13
ATOM     12 CL   UNL     1       7.425   2.581 -22.132  0.00  0.00    +0.000 Cl
ATOM     13  C   UNL     1       9.693   1.138 -20.912  0.00  0.00    +0.000 C 
ATOM     14  C   UNL     1       8.770   1.721 -21.411  0.00  0.00    +0.000 C 
ENDBRANCH   4  13
TORSDOF 1
ENDMDL
