MODEL 1
REMARK VINA RESULT:      -6.7      0.000      0.000
REMARK  Name = 222284_BetaSitosterol.pdbqt.pdb
REMARK  5 active torsions:
REMARK  status: ('A' for Active; 'I' for Inactive)
REMARK    1  A    between atoms: C_5  and  C_22
REMARK    2  A    between atoms: C_19  and  O_20
REMARK    3  A    between atoms: C_22  and  C_24
REMARK    4  A    between atoms: C_25  and  C_26
REMARK    5  A    between atoms: C_26  and  C_30
REMARK                            x       y       z     vdW  Elec       q    Type
REMARK                         _______ _______ _______ _____ _____    ______ ____
ROOT
ATOM      1  C   UNL     1       9.990   1.758 -20.641  0.00  0.00    +0.000 C 
ATOM      2  C   UNL     1       8.953   2.306 -19.535  0.00  0.00    +0.000 C 
ATOM      3  C   UNL     1       7.582   1.770 -19.411  0.00  0.00    +0.000 C 
ATOM      4  C   UNL     1       7.065   0.505 -20.052  0.00  0.00    +0.000 C 
ATOM      5  C   UNL     1      11.301   1.643 -19.879  0.00  0.00    +0.000 C 
ATOM      6  C   UNL     1       9.442   0.470 -21.071  0.00  0.00    +0.000 C 
ATOM      7  C   UNL     1       5.591   0.029 -19.952  0.00  0.00    +0.000 C 
ATOM      8  C   UNL     1       9.711   2.600 -18.358  0.00  0.00    +0.000 C 
ATOM      9  C   UNL     1       8.076  -0.124 -20.829  0.00  0.00    +0.000 C 
ATOM     10  C   UNL     1      11.134   2.155 -18.560  0.00  0.00    +0.000 C 
ATOM     11  C   UNL     1       6.640   2.363 -18.535  0.00  0.00    +0.000 C 
ATOM     12  C   UNL     1      10.084   2.808 -21.778  0.00  0.00    +0.000 C 
ATOM     13  C   UNL     1       4.731   0.754 -18.741  0.00  0.00    +0.000 C 
ATOM     14  C   UNL     1       5.539  -1.423 -19.609  0.00  0.00    +0.000 C 
ATOM     15  C   UNL     1       5.271   1.826 -18.246  0.00  0.00    +0.000 C 
ATOM     16  C   UNL     1       4.861   0.351 -21.288  0.00  0.00    +0.000 C 
ATOM     17  C   UNL     1       4.070  -0.148 -17.826  0.00  0.00    +0.000 C 
ATOM     18  C   UNL     1       4.818  -2.246 -18.528  0.00  0.00    +0.000 C 
ATOM     19  C   UNL     1       4.004  -1.556 -17.581  0.00  0.00    +0.000 C 
ENDROOT
BRANCH  19  20
ATOM     20  O   UNL     1       2.905  -2.145 -17.028  0.00  0.00    +0.000 OA
ATOM     21  H   UNL     1       2.092  -1.660 -17.248  0.00  0.00    +0.000 HD
ENDBRANCH  19  20
BRANCH   5  22
ATOM     22  C   UNL     1      12.497   1.053 -20.396  0.00  0.00    +0.000 C 
ATOM     23  C   UNL     1      13.584   1.870 -21.047  0.00  0.00    +0.000 C 
BRANCH  22  24
ATOM     24  C   UNL     1      12.750  -0.343 -20.313  0.00  0.00    +0.000 C 
ATOM     25  C   UNL     1      12.999  -1.855 -20.210  0.00  0.00    +0.000 C 
BRANCH  25  26
ATOM     26  C   UNL     1      13.223  -3.260 -20.096  0.00  0.00    +0.000 C 
ATOM     27  C   UNL     1      12.331  -4.203 -20.735  0.00  0.00    +0.000 C 
ATOM     28  C   UNL     1      11.140  -3.761 -21.564  0.00  0.00    +0.000 C 
ATOM     29  C   UNL     1      12.478  -5.704 -20.620  0.00  0.00    +0.000 C 
BRANCH  26  30
ATOM     30  C   UNL     1      14.335  -3.742 -19.356  0.00  0.00    +0.000 C 
ATOM     31  C   UNL     1      15.557  -4.213 -18.558  0.00  0.00    +0.000 C 
ENDBRANCH  26  30
ENDBRANCH  25  26
ENDBRANCH  22  24
ENDBRANCH   5  22
TORSDOF 5
ENDMDL
MODEL 2
REMARK VINA RESULT:      -6.6     13.083     19.187
REMARK  Name = 222284_BetaSitosterol.pdbqt.pdb
REMARK  5 active torsions:
REMARK  status: ('A' for Active; 'I' for Inactive)
REMARK    1  A    between atoms: C_5  and  C_22
REMARK    2  A    between atoms: C_19  and  O_20
REMARK    3  A    between atoms: C_22  and  C_24
REMARK    4  A    between atoms: C_25  and  C_26
REMARK    5  A    between atoms: C_26  and  C_30
REMARK                            x       y       z     vdW  Elec       q    Type
REMARK                         _______ _______ _______ _____ _____    ______ ____
ROOT
ATOM      1  C   UNL     1      -8.809  -2.683 -20.494  0.00  0.00    +0.000 C 
ATOM      2  C   UNL     1      -7.921  -2.638 -19.149  0.00  0.00    +0.000 C 
ATOM      3  C   UNL     1      -6.506  -2.215 -19.159  0.00  0.00    +0.000 C 
ATOM      4  C   UNL     1      -5.798  -1.517 -20.293  0.00  0.00    +0.000 C 
ATOM      5  C   UNL     1     -10.143  -2.093 -20.064  0.00  0.00    +0.000 C 
ATOM      6  C   UNL     1      -8.082  -1.856 -21.459  0.00  0.00    +0.000 C 
ATOM      7  C   UNL     1      -4.286  -1.164 -20.278  0.00  0.00    +0.000 C 
ATOM      8  C   UNL     1      -8.784  -2.216 -18.089  0.00  0.00    +0.000 C 
ATOM      9  C   UNL     1      -6.672  -1.321 -21.397  0.00  0.00    +0.000 C 
ATOM     10  C   UNL     1     -10.126  -1.845 -18.661  0.00  0.00    +0.000 C 
ATOM     11  C   UNL     1      -5.702  -2.323 -17.997  0.00  0.00    +0.000 C 
ATOM     12  C   UNL     1      -8.957  -4.165 -20.927  0.00  0.00    +0.000 C 
ATOM     13  C   UNL     1      -3.602  -1.201 -18.775  0.00  0.00    +0.000 C 
ATOM     14  C   UNL     1      -4.080   0.243 -20.732  0.00  0.00    +0.000 C 
ATOM     15  C   UNL     1      -4.299  -1.812 -17.866  0.00  0.00    +0.000 C 
ATOM     16  C   UNL     1      -3.517  -2.191 -21.159  0.00  0.00    +0.000 C 
ATOM     17  C   UNL     1      -2.896  -0.002 -18.386  0.00  0.00    +0.000 C 
ATOM     18  C   UNL     1      -3.335   1.459 -20.154  0.00  0.00    +0.000 C 
ATOM     19  C   UNL     1      -2.675   1.315 -18.898  0.00  0.00    +0.000 C 
ENDROOT
BRANCH  19  20
ATOM     20  O   UNL     1      -1.550   2.028 -18.602  0.00  0.00    +0.000 OA
ATOM     21  H   UNL     1      -1.387   2.055 -17.644  0.00  0.00    +0.000 HD
ENDBRANCH  19  20
BRANCH   5  22
ATOM     22  C   UNL     1     -11.222  -1.781 -20.949  0.00  0.00    +0.000 C 
ATOM     23  C   UNL     1     -12.031  -2.847 -21.644  0.00  0.00    +0.000 C 
BRANCH  22  24
ATOM     24  C   UNL     1     -11.619  -0.443 -21.218  0.00  0.00    +0.000 C 
ATOM     25  C   UNL     1     -12.075   0.994 -21.507  0.00  0.00    +0.000 C 
BRANCH  25  26
ATOM     26  C   UNL     1     -12.512   2.324 -21.789  0.00  0.00    +0.000 C 
ATOM     27  C   UNL     1     -11.600   3.293 -22.358  0.00  0.00    +0.000 C 
ATOM     28  C   UNL     1     -10.161   2.954 -22.699  0.00  0.00    +0.000 C 
ATOM     29  C   UNL     1     -11.977   4.731 -22.640  0.00  0.00    +0.000 C 
BRANCH  26  30
ATOM     30  C   UNL     1     -13.853   2.702 -21.518  0.00  0.00    +0.000 C 
ATOM     31  C   UNL     1     -15.313   3.058 -21.214  0.00  0.00    +0.000 C 
ENDBRANCH  26  30
ENDBRANCH  25  26
ENDBRANCH  22  24
ENDBRANCH   5  22
TORSDOF 5
ENDMDL
MODEL 3
REMARK VINA RESULT:      -6.5      2.187      3.932
REMARK  Name = 222284_BetaSitosterol.pdbqt.pdb
REMARK  5 active torsions:
REMARK  status: ('A' for Active; 'I' for Inactive)
REMARK    1  A    between atoms: C_5  and  C_22
REMARK    2  A    between atoms: C_19  and  O_20
REMARK    3  A    between atoms: C_22  and  C_24
REMARK    4  A    between atoms: C_25  and  C_26
REMARK    5  A    between atoms: C_26  and  C_30
REMARK                            x       y       z     vdW  Elec       q    Type
REMARK                         _______ _______ _______ _____ _____    ______ ____
ROOT
ATOM      1  C   UNL     1      11.078  -1.407 -19.264  0.00  0.00    +0.000 C 
ATOM      2  C   UNL     1      10.419  -0.190 -18.437  0.00  0.00    +0.000 C 
ATOM      3  C   UNL     1       9.050   0.293 -18.710  0.00  0.00    +0.000 C 
ATOM      4  C   UNL     1       8.010  -0.418 -19.539  0.00  0.00    +0.000 C 
ATOM      5  C   UNL     1      11.771  -2.235 -18.192  0.00  0.00    +0.000 C 
ATOM      6  C   UNL     1       9.950  -2.091 -19.899  0.00  0.00    +0.000 C 
ATOM      7  C   UNL     1       6.610   0.173 -19.859  0.00  0.00    +0.000 C 
ATOM      8  C   UNL     1      10.878  -0.301 -17.086  0.00  0.00    +0.000 C 
ATOM      9  C   UNL     1       8.518  -1.639 -20.060  0.00  0.00    +0.000 C 
ATOM     10  C   UNL     1      11.668  -1.573 -16.935  0.00  0.00    +0.000 C 
ATOM     11  C   UNL     1       8.544   1.455 -18.078  0.00  0.00    +0.000 C 
ATOM     12  C   UNL     1      12.097  -0.813 -20.270  0.00  0.00    +0.000 C 
ATOM     13  C   UNL     1       6.169   1.425 -18.874  0.00  0.00    +0.000 C 
ATOM     14  C   UNL     1       5.551  -0.853 -19.631  0.00  0.00    +0.000 C 
ATOM     15  C   UNL     1       7.136   1.958 -18.191  0.00  0.00    +0.000 C 
ATOM     16  C   UNL     1       6.609   0.715 -21.318  0.00  0.00    +0.000 C 
ATOM     17  C   UNL     1       4.889   1.277 -18.221  0.00  0.00    +0.000 C 
ATOM     18  C   UNL     1       4.239  -0.882 -18.828  0.00  0.00    +0.000 C 
ATOM     19  C   UNL     1       3.871   0.280 -18.089  0.00  0.00    +0.000 C 
ENDROOT
BRANCH  19  20
ATOM     20  O   UNL     1       2.562   0.604 -17.880  0.00  0.00    +0.000 OA
ATOM     21  H   UNL     1       2.164   1.007 -18.670  0.00  0.00    +0.000 HD
ENDBRANCH  19  20
BRANCH   5  22
ATOM     22  C   UNL     1      12.378  -3.511 -18.412  0.00  0.00    +0.000 C 
ATOM     23  C   UNL     1      11.658  -4.641 -19.104  0.00  0.00    +0.000 C 
BRANCH  22  24
ATOM     24  C   UNL     1      13.711  -3.795 -18.009  0.00  0.00    +0.000 C 
ATOM     25  C   UNL     1      15.142  -4.118 -17.553  0.00  0.00    +0.000 C 
BRANCH  25  26
ATOM     26  C   UNL     1      16.466  -4.416 -17.110  0.00  0.00    +0.000 C 
ATOM     27  C   UNL     1      16.693  -5.000 -15.806  0.00  0.00    +0.000 C 
ATOM     28  C   UNL     1      15.557  -5.342 -14.860  0.00  0.00    +0.000 C 
ATOM     29  C   UNL     1      18.068  -5.299 -15.251  0.00  0.00    +0.000 C 
BRANCH  26  30
ATOM     30  C   UNL     1      17.574  -4.145 -17.956  0.00  0.00    +0.000 C 
ATOM     31  C   UNL     1      18.773  -3.803 -18.849  0.00  0.00    +0.000 C 
ENDBRANCH  26  30
ENDBRANCH  25  26
ENDBRANCH  22  24
ENDBRANCH   5  22
TORSDOF 5
ENDMDL
MODEL 4
REMARK VINA RESULT:      -6.5     20.485     24.266
REMARK  Name = 222284_BetaSitosterol.pdbqt.pdb
REMARK  5 active torsions:
REMARK  status: ('A' for Active; 'I' for Inactive)
REMARK    1  A    between atoms: C_5  and  C_22
REMARK    2  A    between atoms: C_19  and  O_20
REMARK    3  A    between atoms: C_22  and  C_24
REMARK    4  A    between atoms: C_25  and  C_26
REMARK    5  A    between atoms: C_26  and  C_30
REMARK                            x       y       z     vdW  Elec       q    Type
REMARK                         _______ _______ _______ _____ _____    ______ ____
ROOT
ATOM      1  C   UNL     1       2.185   3.339   2.567  0.00  0.00    +0.000 C 
ATOM      2  C   UNL     1       2.958   3.468   1.158  0.00  0.00    +0.000 C 
ATOM      3  C   UNL     1       4.429   3.574   1.077  0.00  0.00    +0.000 C 
ATOM      4  C   UNL     1       5.399   3.292   2.197  0.00  0.00    +0.000 C 
ATOM      5  C   UNL     1       1.131   2.275   2.303  0.00  0.00    +0.000 C 
ATOM      6  C   UNL     1       3.211   2.927   3.527  0.00  0.00    +0.000 C 
ATOM      7  C   UNL     1       6.934   3.495   2.078  0.00  0.00    +0.000 C 
ATOM      8  C   UNL     1       2.249   2.660   0.214  0.00  0.00    +0.000 C 
ATOM      9  C   UNL     1       4.714   2.919   3.385  0.00  0.00    +0.000 C 
ATOM     10  C   UNL     1       1.162   1.903   0.928  0.00  0.00    +0.000 C 
ATOM     11  C   UNL     1       5.077   3.834  -0.155  0.00  0.00    +0.000 C 
ATOM     12  C   UNL     1       1.539   4.710   2.892  0.00  0.00    +0.000 C 
ATOM     13  C   UNL     1       7.478   3.612   0.523  0.00  0.00    +0.000 C 
ATOM     14  C   UNL     1       7.656   2.307   2.622  0.00  0.00    +0.000 C 
ATOM     15  C   UNL     1       6.561   3.839  -0.368  0.00  0.00    +0.000 C 
ATOM     16  C   UNL     1       7.330   4.814   2.804  0.00  0.00    +0.000 C 
ATOM     17  C   UNL     1       8.546   2.704   0.170  0.00  0.00    +0.000 C 
ATOM     18  C   UNL     1       8.755   1.377   2.080  0.00  0.00    +0.000 C 
ATOM     19  C   UNL     1       9.252   1.611   0.764  0.00  0.00    +0.000 C 
ENDROOT
BRANCH  19  20
ATOM     20  O   UNL     1      10.540   1.312   0.428  0.00  0.00    +0.000 OA
ATOM     21  H   UNL     1      10.586   0.531  -0.149  0.00  0.00    +0.000 HD
ENDBRANCH  19  20
BRANCH   5  22
ATOM     22  C   UNL     1       0.284   1.699   3.301  0.00  0.00    +0.000 C 
ATOM     23  C   UNL     1       0.724   1.526   4.732  0.00  0.00    +0.000 C 
BRANCH  22  24
ATOM     24  C   UNL     1      -1.039   1.267   3.013  0.00  0.00    +0.000 C 
ATOM     25  C   UNL     1      -2.467   0.814   2.678  0.00  0.00    +0.000 C 
BRANCH  25  26
ATOM     26  C   UNL     1      -3.800   0.411   2.360  0.00  0.00    +0.000 C 
ATOM     27  C   UNL     1      -4.061  -0.432   1.214  0.00  0.00    +0.000 C 
ATOM     28  C   UNL     1      -2.953  -0.943   0.312  0.00  0.00    +0.000 C 
ATOM     29  C   UNL     1      -5.448  -0.860   0.789  0.00  0.00    +0.000 C 
BRANCH  26  30
ATOM     30  C   UNL     1      -4.882   0.833   3.178  0.00  0.00    +0.000 C 
ATOM     31  C   UNL     1      -6.048   1.337   4.036  0.00  0.00    +0.000 C 
ENDBRANCH  26  30
ENDBRANCH  25  26
ENDBRANCH  22  24
ENDBRANCH   5  22
TORSDOF 5
ENDMDL
MODEL 5
REMARK VINA RESULT:      -6.5     16.933     20.241
REMARK  Name = 222284_BetaSitosterol.pdbqt.pdb
REMARK  5 active torsions:
REMARK  status: ('A' for Active; 'I' for Inactive)
REMARK    1  A    between atoms: C_5  and  C_22
REMARK    2  A    between atoms: C_19  and  O_20
REMARK    3  A    between atoms: C_22  and  C_24
REMARK    4  A    between atoms: C_25  and  C_26
REMARK    5  A    between atoms: C_26  and  C_30
REMARK                            x       y       z     vdW  Elec       q    Type
REMARK                         _______ _______ _______ _____ _____    ______ ____
ROOT
ATOM      1  C   UNL     1       3.051 -16.686 -14.641  0.00  0.00    +0.000 C 
ATOM      2  C   UNL     1       2.347 -15.879 -15.847  0.00  0.00    +0.000 C 
ATOM      3  C   UNL     1       1.198 -16.431 -16.593  0.00  0.00    +0.000 C 
ATOM      4  C   UNL     1       0.363 -17.618 -16.182  0.00  0.00    +0.000 C 
ATOM      5  C   UNL     1       3.280 -15.620 -13.580  0.00  0.00    +0.000 C 
ATOM      6  C   UNL     1       2.080 -17.709 -14.249  0.00  0.00    +0.000 C 
ATOM      7  C   UNL     1      -0.787 -18.203 -17.045  0.00  0.00    +0.000 C 
ATOM      8  C   UNL     1       2.368 -14.493 -15.494  0.00  0.00    +0.000 C 
ATOM      9  C   UNL     1       0.834 -18.176 -14.962  0.00  0.00    +0.000 C 
ATOM     10  C   UNL     1       2.900 -14.346 -14.093  0.00  0.00    +0.000 C 
ATOM     11  C   UNL     1       0.688 -15.776 -17.741  0.00  0.00    +0.000 C 
ATOM     12  C   UNL     1       4.392 -17.263 -15.163  0.00  0.00    +0.000 C 
ATOM     13  C   UNL     1      -1.327 -17.182 -18.226  0.00  0.00    +0.000 C 
ATOM     14  C   UNL     1      -1.994 -18.446 -16.202  0.00  0.00    +0.000 C 
ATOM     15  C   UNL     1      -0.542 -16.183 -18.494  0.00  0.00    +0.000 C 
ATOM     16  C   UNL     1      -0.285 -19.496 -17.750  0.00  0.00    +0.000 C 
ATOM     17  C   UNL     1      -2.750 -16.936 -18.229  0.00  0.00    +0.000 C 
ATOM     18  C   UNL     1      -3.476 -18.047 -16.308  0.00  0.00    +0.000 C 
ATOM     19  C   UNL     1      -3.886 -17.253 -17.419  0.00  0.00    +0.000 C 
ENDROOT
BRANCH  19  20
ATOM     20  O   UNL     1      -5.142 -17.357 -17.941  0.00  0.00    +0.000 OA
ATOM     21  H   UNL     1      -5.334 -18.266 -18.229  0.00  0.00    +0.000 HD
ENDBRANCH  19  20
BRANCH   5  22
ATOM     22  C   UNL     1       3.747 -15.874 -12.253  0.00  0.00    +0.000 C 
ATOM     23  C   UNL     1       4.931 -15.153 -11.661  0.00  0.00    +0.000 C 
BRANCH  22  24
ATOM     24  C   UNL     1       3.113 -16.813 -11.395  0.00  0.00    +0.000 C 
ATOM     25  C   UNL     1       2.411 -17.834 -10.488  0.00  0.00    +0.000 C 
BRANCH  25  26
ATOM     26  C   UNL     1       1.741 -18.778  -9.651  0.00  0.00    +0.000 C 
ATOM     27  C   UNL     1       0.765 -19.691 -10.206  0.00  0.00    +0.000 C 
ATOM     28  C   UNL     1       0.417 -19.710 -11.683  0.00  0.00    +0.000 C 
ATOM     29  C   UNL     1      -0.018 -20.684  -9.376  0.00  0.00    +0.000 C 
BRANCH  26  30
ATOM     30  C   UNL     1       2.037 -18.831  -8.264  0.00  0.00    +0.000 C 
ATOM     31  C   UNL     1       2.308 -18.865  -6.755  0.00  0.00    +0.000 C 
ENDBRANCH  26  30
ENDBRANCH  25  26
ENDBRANCH  22  24
ENDBRANCH   5  22
TORSDOF 5
ENDMDL
MODEL 6
REMARK VINA RESULT:      -6.4      3.723      9.316
REMARK  Name = 222284_BetaSitosterol.pdbqt.pdb
REMARK  5 active torsions:
REMARK  status: ('A' for Active; 'I' for Inactive)
REMARK    1  A    between atoms: C_5  and  C_22
REMARK    2  A    between atoms: C_19  and  O_20
REMARK    3  A    between atoms: C_22  and  C_24
REMARK    4  A    between atoms: C_25  and  C_26
REMARK    5  A    between atoms: C_26  and  C_30
REMARK                            x       y       z     vdW  Elec       q    Type
REMARK                         _______ _______ _______ _____ _____    ______ ____
ROOT
ATOM      1  C   UNL     1       5.671   0.715 -19.663  0.00  0.00    +0.000 C 
ATOM      2  C   UNL     1       6.850  -0.382 -19.592  0.00  0.00    +0.000 C 
ATOM      3  C   UNL     1       8.230  -0.026 -19.202  0.00  0.00    +0.000 C 
ATOM      4  C   UNL     1       8.661   1.268 -18.559  0.00  0.00    +0.000 C 
ATOM      5  C   UNL     1       4.483   0.007 -19.028  0.00  0.00    +0.000 C 
ATOM      6  C   UNL     1       6.163   1.854 -18.886  0.00  0.00    +0.000 C 
ATOM      7  C   UNL     1      10.139   1.622 -18.240  0.00  0.00    +0.000 C 
ATOM      8  C   UNL     1       6.266  -1.597 -19.114  0.00  0.00    +0.000 C 
ATOM      9  C   UNL     1       7.556   2.144 -18.381  0.00  0.00    +0.000 C 
ATOM     10  C   UNL     1       4.833  -1.342 -18.733  0.00  0.00    +0.000 C 
ATOM     11  C   UNL     1       9.282  -0.971 -19.288  0.00  0.00    +0.000 C 
ATOM     12  C   UNL     1       5.405   1.043 -21.155  0.00  0.00    +0.000 C 
ATOM     13  C   UNL     1      11.156   0.320 -18.241  0.00  0.00    +0.000 C 
ATOM     14  C   UNL     1      10.253   2.164 -16.854  0.00  0.00    +0.000 C 
ATOM     15  C   UNL     1      10.684  -0.750 -18.805  0.00  0.00    +0.000 C 
ATOM     16  C   UNL     1      10.666   2.617 -19.313  0.00  0.00    +0.000 C 
ATOM     17  C   UNL     1      11.950   0.153 -17.046  0.00  0.00    +0.000 C 
ATOM     18  C   UNL     1      11.129   1.824 -15.636  0.00  0.00    +0.000 C 
ATOM     19  C   UNL     1      12.064   0.753 -15.752  0.00  0.00    +0.000 C 
ENDROOT
BRANCH  19  20
ATOM     20  O   UNL     1      13.236   0.756 -15.055  0.00  0.00    +0.000 OA
ATOM     21  H   UNL     1      13.595   1.655 -14.963  0.00  0.00    +0.000 HD
ENDBRANCH  19  20
BRANCH   5  22
ATOM     22  C   UNL     1       3.231   0.627 -18.723  0.00  0.00    +0.000 C 
ATOM     23  C   UNL     1       3.133   2.044 -18.218  0.00  0.00    +0.000 C 
BRANCH  22  24
ATOM     24  C   UNL     1       1.992  -0.047 -18.894  0.00  0.00    +0.000 C 
ATOM     25  C   UNL     1       0.641  -0.758 -19.059  0.00  0.00    +0.000 C 
BRANCH  25  26
ATOM     26  C   UNL     1      -0.618  -1.420 -19.193  0.00  0.00    +0.000 C 
ATOM     27  C   UNL     1      -1.854  -0.672 -19.121  0.00  0.00    +0.000 C 
ATOM     28  C   UNL     1      -1.885   0.832 -18.923  0.00  0.00    +0.000 C 
ATOM     29  C   UNL     1      -3.223  -1.309 -19.207  0.00  0.00    +0.000 C 
BRANCH  26  30
ATOM     30  C   UNL     1      -0.661  -2.823 -19.406  0.00  0.00    +0.000 C 
ATOM     31  C   UNL     1      -0.680  -4.331 -19.682  0.00  0.00    +0.000 C 
ENDBRANCH  26  30
ENDBRANCH  25  26
ENDBRANCH  22  24
ENDBRANCH   5  22
TORSDOF 5
ENDMDL
MODEL 7
REMARK VINA RESULT:      -6.4      9.861     13.866
REMARK  Name = 222284_BetaSitosterol.pdbqt.pdb
REMARK  5 active torsions:
REMARK  status: ('A' for Active; 'I' for Inactive)
REMARK    1  A    between atoms: C_5  and  C_22
REMARK    2  A    between atoms: C_19  and  O_20
REMARK    3  A    between atoms: C_22  and  C_24
REMARK    4  A    between atoms: C_25  and  C_26
REMARK    5  A    between atoms: C_26  and  C_30
REMARK                            x       y       z     vdW  Elec       q    Type
REMARK                         _______ _______ _______ _____ _____    ______ ____
ROOT
ATOM      1  C   UNL     1      -4.243  -0.281 -19.660  0.00  0.00    +0.000 C 
ATOM      2  C   UNL     1      -5.193  -1.297 -18.845  0.00  0.00    +0.000 C 
ATOM      3  C   UNL     1      -6.563  -1.619 -19.293  0.00  0.00    +0.000 C 
ATOM      4  C   UNL     1      -7.146  -1.310 -20.649  0.00  0.00    +0.000 C 
ATOM      5  C   UNL     1      -2.886  -0.969 -19.649  0.00  0.00    +0.000 C 
ATOM      6  C   UNL     1      -4.843  -0.184 -20.992  0.00  0.00    +0.000 C 
ATOM      7  C   UNL     1      -8.621  -1.602 -21.040  0.00  0.00    +0.000 C 
ATOM      8  C   UNL     1      -4.352  -2.331 -18.323  0.00  0.00    +0.000 C 
ATOM      9  C   UNL     1      -6.202  -0.634 -21.470  0.00  0.00    +0.000 C 
ATOM     10  C   UNL     1      -2.955  -2.148 -18.852  0.00  0.00    +0.000 C 
ATOM     11  C   UNL     1      -7.432  -2.396 -18.488  0.00  0.00    +0.000 C 
ATOM     12  C   UNL     1      -4.202   1.065 -18.892  0.00  0.00    +0.000 C 
ATOM     13  C   UNL     1      -9.383  -2.670 -20.036  0.00  0.00    +0.000 C 
ATOM     14  C   UNL     1      -8.679  -2.263 -22.377  0.00  0.00    +0.000 C 
ATOM     15  C   UNL     1      -8.790  -2.879 -18.899  0.00  0.00    +0.000 C 
ATOM     16  C   UNL     1      -9.430  -0.274 -20.997  0.00  0.00    +0.000 C 
ATOM     17  C   UNL     1     -10.000  -3.801 -20.688  0.00  0.00    +0.000 C 
ATOM     18  C   UNL     1      -9.343  -3.542 -22.914  0.00  0.00    +0.000 C 
ATOM     19  C   UNL     1     -10.078  -4.358 -22.004  0.00  0.00    +0.000 C 
ENDROOT
BRANCH  19  20
ATOM     20  O   UNL     1     -11.150  -5.094 -22.417  0.00  0.00    +0.000 OA
ATOM     21  H   UNL     1     -11.944  -4.542 -22.518  0.00  0.00    +0.000 HD
ENDBRANCH  19  20
BRANCH   5  22
ATOM     22  C   UNL     1      -1.740  -0.527 -20.379  0.00  0.00    +0.000 C 
ATOM     23  C   UNL     1      -1.844   0.094 -21.750  0.00  0.00    +0.000 C 
BRANCH  22  24
ATOM     24  C   UNL     1      -0.423  -0.623 -19.853  0.00  0.00    +0.000 C 
ATOM     25  C   UNL     1       0.996  -0.703 -19.270  0.00  0.00    +0.000 C 
BRANCH  25  26
ATOM     26  C   UNL     1       2.317  -0.759 -18.731  0.00  0.00    +0.000 C 
ATOM     27  C   UNL     1       3.021  -2.019 -18.637  0.00  0.00    +0.000 C 
ATOM     28  C   UNL     1       2.416  -3.327 -19.113  0.00  0.00    +0.000 C 
ATOM     29  C   UNL     1       4.402  -2.163 -18.036  0.00  0.00    +0.000 C 
BRANCH  26  30
ATOM     30  C   UNL     1       2.953   0.431 -18.290  0.00  0.00    +0.000 C 
ATOM     31  C   UNL     1       3.681   1.686 -17.793  0.00  0.00    +0.000 C 
ENDBRANCH  26  30
ENDBRANCH  25  26
ENDBRANCH  22  24
ENDBRANCH   5  22
TORSDOF 5
ENDMDL
MODEL 8
REMARK VINA RESULT:      -6.4     17.640     20.268
REMARK  Name = 222284_BetaSitosterol.pdbqt.pdb
REMARK  5 active torsions:
REMARK  status: ('A' for Active; 'I' for Inactive)
REMARK    1  A    between atoms: C_5  and  C_22
REMARK    2  A    between atoms: C_19  and  O_20
REMARK    3  A    between atoms: C_22  and  C_24
REMARK    4  A    between atoms: C_25  and  C_26
REMARK    5  A    between atoms: C_26  and  C_30
REMARK                            x       y       z     vdW  Elec       q    Type
REMARK                         _______ _______ _______ _____ _____    ______ ____
ROOT
ATOM      1  C   UNL     1      12.139 -10.728  -2.174  0.00  0.00    +0.000 C 
ATOM      2  C   UNL     1      11.677 -12.225  -2.554  0.00  0.00    +0.000 C 
ATOM      3  C   UNL     1      10.474 -12.848  -1.965  0.00  0.00    +0.000 C 
ATOM      4  C   UNL     1       9.390 -12.131  -1.200  0.00  0.00    +0.000 C 
ATOM      5  C   UNL     1      12.536 -10.123  -3.512  0.00  0.00    +0.000 C 
ATOM      6  C   UNL     1      10.957 -10.107  -1.573  0.00  0.00    +0.000 C 
ATOM      7  C   UNL     1       8.185 -12.849  -0.535  0.00  0.00    +0.000 C 
ATOM      8  C   UNL     1      11.972 -12.416  -3.941  0.00  0.00    +0.000 C 
ATOM      9  C   UNL     1       9.676 -10.742  -1.090  0.00  0.00    +0.000 C 
ATOM     10  C   UNL     1      12.456 -11.118  -4.528  0.00  0.00    +0.000 C 
ATOM     11  C   UNL     1      10.168 -14.212  -2.198  0.00  0.00    +0.000 C 
ATOM     12  C   UNL     1      13.352 -10.825  -1.213  0.00  0.00    +0.000 C 
ATOM     13  C   UNL     1       7.928 -14.383  -1.090  0.00  0.00    +0.000 C 
ATOM     14  C   UNL     1       6.915 -12.133  -0.857  0.00  0.00    +0.000 C 
ATOM     15  C   UNL     1       8.916 -14.905  -1.751  0.00  0.00    +0.000 C 
ATOM     16  C   UNL     1       8.437 -12.951   0.997  0.00  0.00    +0.000 C 
ATOM     17  C   UNL     1       6.589 -14.655  -1.561  0.00  0.00    +0.000 C 
ATOM     18  C   UNL     1       5.557 -12.564  -1.436  0.00  0.00    +0.000 C 
ATOM     19  C   UNL     1       5.375 -13.933  -1.791  0.00  0.00    +0.000 C 
ENDROOT
BRANCH  19  20
ATOM     20  O   UNL     1       4.151 -14.530  -1.713  0.00  0.00    +0.000 OA
ATOM     21  H   UNL     1       3.699 -14.530  -2.573  0.00  0.00    +0.000 HD
ENDBRANCH  19  20
BRANCH   5  22
ATOM     22  C   UNL     1      12.876  -8.750  -3.718  0.00  0.00    +0.000 C 
ATOM     23  C   UNL     1      13.842  -8.014  -2.824  0.00  0.00    +0.000 C 
BRANCH  22  24
ATOM     24  C   UNL     1      12.342  -7.991  -4.795  0.00  0.00    +0.000 C 
ATOM     25  C   UNL     1      11.792  -7.165  -5.967  0.00  0.00    +0.000 C 
BRANCH  25  26
ATOM     26  C   UNL     1      11.293  -6.384  -7.053  0.00  0.00    +0.000 C 
ATOM     27  C   UNL     1      10.217  -5.440  -6.848  0.00  0.00    +0.000 C 
ATOM     28  C   UNL     1       9.581  -5.215  -5.489  0.00  0.00    +0.000 C 
ATOM     29  C   UNL     1       9.606  -4.613  -7.958  0.00  0.00    +0.000 C 
BRANCH  26  30
ATOM     30  C   UNL     1      11.861  -6.526  -8.347  0.00  0.00    +0.000 C 
ATOM     31  C   UNL     1      12.427  -6.660  -9.766  0.00  0.00    +0.000 C 
ENDBRANCH  26  30
ENDBRANCH  25  26
ENDBRANCH  22  24
ENDBRANCH   5  22
TORSDOF 5
ENDMDL
MODEL 9
REMARK VINA RESULT:      -6.3     17.670     21.461
REMARK  Name = 222284_BetaSitosterol.pdbqt.pdb
REMARK  5 active torsions:
REMARK  status: ('A' for Active; 'I' for Inactive)
REMARK    1  A    between atoms: C_5  and  C_22
REMARK    2  A    between atoms: C_19  and  O_20
REMARK    3  A    between atoms: C_22  and  C_24
REMARK    4  A    between atoms: C_25  and  C_26
REMARK    5  A    between atoms: C_26  and  C_30
REMARK                            x       y       z     vdW  Elec       q    Type
REMARK                         _______ _______ _______ _____ _____    ______ ____
ROOT
ATOM      1  C   UNL     1       3.473 -15.660 -12.008  0.00  0.00    +0.000 C 
ATOM      2  C   UNL     1       4.997 -15.969 -11.582  0.00  0.00    +0.000 C 
ATOM      3  C   UNL     1       5.330 -16.870 -10.460  0.00  0.00    +0.000 C 
ATOM      4  C   UNL     1       4.378 -17.818  -9.774  0.00  0.00    +0.000 C 
ATOM      5  C   UNL     1       3.507 -15.717 -13.528  0.00  0.00    +0.000 C 
ATOM      6  C   UNL     1       2.682 -16.728 -11.395  0.00  0.00    +0.000 C 
ATOM      7  C   UNL     1       4.762 -18.688  -8.546  0.00  0.00    +0.000 C 
ATOM      8  C   UNL     1       5.770 -16.014 -12.785  0.00  0.00    +0.000 C 
ATOM      9  C   UNL     1       3.075 -17.729 -10.336  0.00  0.00    +0.000 C 
ATOM     10  C   UNL     1       4.848 -15.902 -13.970  0.00  0.00    +0.000 C 
ATOM     11  C   UNL     1       6.664 -17.013 -10.007  0.00  0.00    +0.000 C 
ATOM     12  C   UNL     1       3.108 -14.241 -11.502  0.00  0.00    +0.000 C 
ATOM     13  C   UNL     1       6.391 -18.841  -8.316  0.00  0.00    +0.000 C 
ATOM     14  C   UNL     1       4.294 -20.091  -8.741  0.00  0.00    +0.000 C 
ATOM     15  C   UNL     1       7.124 -17.987  -8.964  0.00  0.00    +0.000 C 
ATOM     16  C   UNL     1       4.175 -18.038  -7.260  0.00  0.00    +0.000 C 
ATOM     17  C   UNL     1       6.877 -20.197  -8.210  0.00  0.00    +0.000 C 
ATOM     18  C   UNL     1       4.970 -21.470  -8.657  0.00  0.00    +0.000 C 
ATOM     19  C   UNL     1       6.361 -21.525  -8.344  0.00  0.00    +0.000 C 
ENDROOT
BRANCH  19  20
ATOM     20  O   UNL     1       6.895 -22.582  -7.666  0.00  0.00    +0.000 OA
ATOM     21  H   UNL     1       7.618 -22.301  -7.081  0.00  0.00    +0.000 HD
ENDBRANCH  19  20
BRANCH   5  22
ATOM     22  C   UNL     1       2.355 -15.655 -14.373  0.00  0.00    +0.000 C 
ATOM     23  C   UNL     1       2.246 -14.683 -15.520  0.00  0.00    +0.000 C 
BRANCH  22  24
ATOM     24  C   UNL     1       1.242 -16.521 -14.200  0.00  0.00    +0.000 C 
ATOM     25  C   UNL     1       0.055 -17.475 -14.000  0.00  0.00    +0.000 C 
BRANCH  25  26
ATOM     26  C   UNL     1      -1.037 -18.378 -13.818  0.00  0.00    +0.000 C 
ATOM     27  C   UNL     1      -0.974 -19.416 -12.812  0.00  0.00    +0.000 C 
ATOM     28  C   UNL     1       0.224 -19.591 -11.898  0.00  0.00    +0.000 C 
ATOM     29  C   UNL     1      -2.070 -20.436 -12.594  0.00  0.00    +0.000 C 
BRANCH  26  30
ATOM     30  C   UNL     1      -2.200 -18.254 -14.623  0.00  0.00    +0.000 C 
ATOM     31  C   UNL     1      -3.468 -18.173 -15.481  0.00  0.00    +0.000 C 
ENDBRANCH  26  30
ENDBRANCH  25  26
ENDBRANCH  22  24
ENDBRANCH   5  22
TORSDOF 5
ENDMDL
