MODEL 1
REMARK VINA RESULT:      -6.1      0.000      0.000
REMARK  Name = 25023738_BI-D-1870.pdbqt.pdb
REMARK  4 active torsions:
REMARK  status: ('A' for Active; 'I' for Inactive)
REMARK    1  A    between atoms: N_2  and  C_26
REMARK    2  A    between atoms: N_14  and  C_16
REMARK    3  A    between atoms: C_20  and  O_24
REMARK    4  A    between atoms: C_27  and  C_28
REMARK                            x       y       z     vdW  Elec       q    Type
REMARK                         _______ _______ _______ _____ _____    ______ ____
ROOT
ATOM      1  O   UNL     1       1.585  -3.227 -19.667  0.00  0.00    +0.000 OA
ATOM      2  N   UNL     1       4.942  -1.880 -19.693  0.00  0.00    +0.000 N 
ATOM      3  N   UNL     1       2.314  -1.109 -19.028  0.00  0.00    +0.000 N 
ATOM      4  N   UNL     1       5.738   0.276 -19.051  0.00  0.00    +0.000 NA
ATOM      5  N   UNL     1       4.296   1.941 -18.249  0.00  0.00    +0.000 NA
ATOM      6  C   UNL     1       3.926  -2.794 -19.864  0.00  0.00    +0.000 C 
ATOM      7  C   UNL     1       4.701  -0.581 -19.199  0.00  0.00    +0.000 A 
ATOM      8  C   UNL     1       2.506  -2.418 -19.519  0.00  0.00    +0.000 C 
ATOM      9  C   UNL     1       3.412  -0.218 -18.878  0.00  0.00    +0.000 A 
ATOM     10  C   UNL     1       4.236  -4.187 -20.403  0.00  0.00    +0.000 C 
ATOM     11  C   UNL     1       1.016  -0.566 -18.643  0.00  0.00    +0.000 C 
ATOM     12  C   UNL     1       3.282   1.069 -18.404  0.00  0.00    +0.000 A 
ATOM     13  C   UNL     1       5.512   1.512 -18.581  0.00  0.00    +0.000 A 
ATOM     14  N   UNL     1       6.549   2.420 -18.415  0.00  0.00    +0.000 N 
ATOM     15  H   UNL     1       6.204   3.301 -18.053  0.00  0.00    +0.000 HD
ENDROOT
BRANCH  14  16
ATOM     16  C   UNL     1       7.923   2.313 -18.655  0.00  0.00    +0.000 A 
ATOM     17  C   UNL     1       8.743   1.731 -17.679  0.00  0.00    +0.000 A 
ATOM     18  C   UNL     1      10.117   1.606 -17.884  0.00  0.00    +0.000 A 
ATOM     19  F   UNL     1      10.868   1.044 -16.926  0.00  0.00    +0.000 F 
ATOM     20  C   UNL     1      10.698   2.059 -19.060  0.00  0.00    +0.000 A 
ATOM     21  C   UNL     1       9.892   2.637 -20.031  0.00  0.00    +0.000 A 
ATOM     22  F   UNL     1      10.441   3.078 -21.172  0.00  0.00    +0.000 F 
ATOM     23  C   UNL     1       8.520   2.764 -19.835  0.00  0.00    +0.000 A 
BRANCH  20  24
ATOM     24  O   UNL     1      12.045   1.934 -19.253  0.00  0.00    +0.000 OA
ATOM     25  H   UNL     1      12.414   1.442 -18.495  0.00  0.00    +0.000 HD
ENDBRANCH  20  24
ENDBRANCH  14  16
BRANCH   2  26
ATOM     26  C   UNL     1       6.318  -2.239 -20.027  0.00  0.00    +0.000 C 
ATOM     27  C   UNL     1       7.762  -2.620 -20.377  0.00  0.00    +0.000 C 
BRANCH  27  28
ATOM     28  C   UNL     1       9.092  -2.967 -20.701  0.00  0.00    +0.000 C 
ATOM     29  C   UNL     1       9.829  -3.965 -19.860  0.00  0.00    +0.000 C 
ATOM     30  C   UNL     1       9.779  -2.298 -21.851  0.00  0.00    +0.000 C 
ENDBRANCH  27  28
ENDBRANCH   2  26
TORSDOF 4
ENDMDL
MODEL 2
REMARK VINA RESULT:      -6.0      2.946      5.568
REMARK  Name = 25023738_BI-D-1870.pdbqt.pdb
REMARK  4 active torsions:
REMARK  status: ('A' for Active; 'I' for Inactive)
REMARK    1  A    between atoms: N_2  and  C_26
REMARK    2  A    between atoms: N_14  and  C_16
REMARK    3  A    between atoms: C_20  and  O_24
REMARK    4  A    between atoms: C_27  and  C_28
REMARK                            x       y       z     vdW  Elec       q    Type
REMARK                         _______ _______ _______ _____ _____    ______ ____
ROOT
ATOM      1  O   UNL     1       6.000  -5.485 -22.435  0.00  0.00    +0.000 OA
ATOM      2  N   UNL     1       7.197  -2.660 -20.518  0.00  0.00    +0.000 N 
ATOM      3  N   UNL     1       8.160  -5.037 -21.685  0.00  0.00    +0.000 N 
ATOM      4  N   UNL     1       9.391  -2.157 -19.728  0.00  0.00    +0.000 NA
ATOM      5  N   UNL     1      11.212  -3.574 -20.142  0.00  0.00    +0.000 NA
ATOM      6  C   UNL     1       6.307  -3.469 -21.190  0.00  0.00    +0.000 C 
ATOM      7  C   UNL     1       8.563  -2.989 -20.400  0.00  0.00    +0.000 A 
ATOM      8  C   UNL     1       6.786  -4.750 -21.828  0.00  0.00    +0.000 C 
ATOM      9  C   UNL     1       9.020  -4.154 -20.976  0.00  0.00    +0.000 A 
ATOM     10  C   UNL     1       4.839  -3.071 -21.289  0.00  0.00    +0.000 C 
ATOM     11  C   UNL     1       8.805  -6.226 -22.233  0.00  0.00    +0.000 C 
ATOM     12  C   UNL     1      10.368  -4.385 -20.806  0.00  0.00    +0.000 A 
ATOM     13  C   UNL     1      10.691  -2.468 -19.615  0.00  0.00    +0.000 A 
ATOM     14  N   UNL     1      11.573  -1.640 -18.934  0.00  0.00    +0.000 N 
ATOM     15  H   UNL     1      12.511  -2.022 -18.944  0.00  0.00    +0.000 HD
ENDROOT
BRANCH  14  16
ATOM     16  C   UNL     1      11.378  -0.423 -18.271  0.00  0.00    +0.000 A 
ATOM     17  C   UNL     1      11.769   0.767 -18.900  0.00  0.00    +0.000 A 
ATOM     18  C   UNL     1      11.590   1.999 -18.272  0.00  0.00    +0.000 A 
ATOM     19  F   UNL     1      11.977   3.115 -18.907  0.00  0.00    +0.000 F 
ATOM     20  C   UNL     1      11.022   2.068 -17.007  0.00  0.00    +0.000 A 
ATOM     21  C   UNL     1      10.634   0.894 -16.377  0.00  0.00    +0.000 A 
ATOM     22  F   UNL     1      10.082   0.948 -15.156  0.00  0.00    +0.000 F 
ATOM     23  C   UNL     1      10.807  -0.339 -16.999  0.00  0.00    +0.000 A 
BRANCH  20  24
ATOM     24  O   UNL     1      10.850   3.278 -16.397  0.00  0.00    +0.000 OA
ATOM     25  H   UNL     1      10.034   3.681 -16.750  0.00  0.00    +0.000 HD
ENDBRANCH  20  24
ENDBRANCH  14  16
BRANCH   2  26
ATOM     26  C   UNL     1       6.738  -1.420 -19.896  0.00  0.00    +0.000 C 
ATOM     27  C   UNL     1       6.252  -0.118 -19.248  0.00  0.00    +0.000 C 
BRANCH  27  28
ATOM     28  C   UNL     1       5.808   1.081 -18.646  0.00  0.00    +0.000 C 
ATOM     29  C   UNL     1       4.415   1.171 -18.103  0.00  0.00    +0.000 C 
ATOM     30  C   UNL     1       6.713   2.273 -18.601  0.00  0.00    +0.000 C 
ENDBRANCH  27  28
ENDBRANCH   2  26
TORSDOF 4
ENDMDL
MODEL 3
REMARK VINA RESULT:      -5.7     17.936     20.657
REMARK  Name = 25023738_BI-D-1870.pdbqt.pdb
REMARK  4 active torsions:
REMARK  status: ('A' for Active; 'I' for Inactive)
REMARK    1  A    between atoms: N_2  and  C_26
REMARK    2  A    between atoms: N_14  and  C_16
REMARK    3  A    between atoms: C_20  and  O_24
REMARK    4  A    between atoms: C_27  and  C_28
REMARK                            x       y       z     vdW  Elec       q    Type
REMARK                         _______ _______ _______ _____ _____    ______ ____
ROOT
ATOM      1  O   UNL     1     -15.756  -2.219 -27.984  0.00  0.00    +0.000 OA
ATOM      2  N   UNL     1     -14.324  -0.929 -24.922  0.00  0.00    +0.000 N 
ATOM      3  N   UNL     1     -14.284  -3.258 -26.507  0.00  0.00    +0.000 N 
ATOM      4  N   UNL     1     -12.817  -1.951 -23.380  0.00  0.00    +0.000 NA
ATOM      5  N   UNL     1     -12.006  -4.127 -23.698  0.00  0.00    +0.000 NA
ATOM      6  C   UNL     1     -15.080  -0.953 -26.074  0.00  0.00    +0.000 C 
ATOM      7  C   UNL     1     -13.540  -2.030 -24.521  0.00  0.00    +0.000 A 
ATOM      8  C   UNL     1     -15.084  -2.183 -26.949  0.00  0.00    +0.000 C 
ATOM      9  C   UNL     1     -13.530  -3.162 -25.306  0.00  0.00    +0.000 A 
ATOM     10  C   UNL     1     -15.913   0.263 -26.465  0.00  0.00    +0.000 C 
ATOM     11  C   UNL     1     -14.161  -4.526 -27.219  0.00  0.00    +0.000 C 
ATOM     12  C   UNL     1     -12.734  -4.181 -24.829  0.00  0.00    +0.000 A 
ATOM     13  C   UNL     1     -12.070  -2.997 -22.997  0.00  0.00    +0.000 A 
ATOM     14  N   UNL     1     -11.315  -2.954 -21.833  0.00  0.00    +0.000 N 
ATOM     15  H   UNL     1     -10.814  -3.823 -21.694  0.00  0.00    +0.000 HD
ENDROOT
BRANCH  14  16
ATOM     16  C   UNL     1     -11.145  -1.950 -20.874  0.00  0.00    +0.000 A 
ATOM     17  C   UNL     1     -11.374  -0.615 -21.235  0.00  0.00    +0.000 A 
ATOM     18  C   UNL     1     -11.216   0.413 -20.306  0.00  0.00    +0.000 A 
ATOM     19  F   UNL     1     -11.444   1.677 -20.691  0.00  0.00    +0.000 F 
ATOM     20  C   UNL     1     -10.826   0.131 -19.004  0.00  0.00    +0.000 A 
ATOM     21  C   UNL     1     -10.597  -1.188 -18.639  0.00  0.00    +0.000 A 
ATOM     22  F   UNL     1     -10.221  -1.473 -17.383  0.00  0.00    +0.000 F 
ATOM     23  C   UNL     1     -10.754  -2.220 -19.560  0.00  0.00    +0.000 A 
BRANCH  20  24
ATOM     24  O   UNL     1     -10.672   1.144 -18.099  0.00  0.00    +0.000 OA
ATOM     25  H   UNL     1     -10.737   1.991 -18.580  0.00  0.00    +0.000 HD
ENDBRANCH  20  24
ENDBRANCH  14  16
BRANCH   2  26
ATOM     26  C   UNL     1     -14.318   0.259 -24.071  0.00  0.00    +0.000 C 
ATOM     27  C   UNL     1     -14.308   1.505 -23.178  0.00  0.00    +0.000 C 
BRANCH  27  28
ATOM     28  C   UNL     1     -14.303   2.654 -22.356  0.00  0.00    +0.000 C 
ATOM     29  C   UNL     1     -15.333   2.804 -21.278  0.00  0.00    +0.000 C 
ATOM     30  C   UNL     1     -13.302   3.741 -22.598  0.00  0.00    +0.000 C 
ENDBRANCH  27  28
ENDBRANCH   2  26
TORSDOF 4
ENDMDL
MODEL 4
REMARK VINA RESULT:      -5.6     16.492     18.642
REMARK  Name = 25023738_BI-D-1870.pdbqt.pdb
REMARK  4 active torsions:
REMARK  status: ('A' for Active; 'I' for Inactive)
REMARK    1  A    between atoms: N_2  and  C_26
REMARK    2  A    between atoms: N_14  and  C_16
REMARK    3  A    between atoms: C_20  and  O_24
REMARK    4  A    between atoms: C_27  and  C_28
REMARK                            x       y       z     vdW  Elec       q    Type
REMARK                         _______ _______ _______ _____ _____    ______ ____
ROOT
ATOM      1  O   UNL     1      -3.557 -17.276 -21.327  0.00  0.00    +0.000 OA
ATOM      2  N   UNL     1      -1.938 -17.179 -18.094  0.00  0.00    +0.000 N 
ATOM      3  N   UNL     1      -1.462 -16.427 -20.768  0.00  0.00    +0.000 N 
ATOM      4  N   UNL     1       0.200 -16.323 -17.471  0.00  0.00    +0.000 NA
ATOM      5  N   UNL     1       1.648 -15.348 -19.035  0.00  0.00    +0.000 NA
ATOM      6  C   UNL     1      -2.912 -17.438 -19.033  0.00  0.00    +0.000 C 
ATOM      7  C   UNL     1      -0.721 -16.554 -18.435  0.00  0.00    +0.000 A 
ATOM      8  C   UNL     1      -2.693 -17.050 -20.475  0.00  0.00    +0.000 C 
ATOM      9  C   UNL     1      -0.502 -16.192 -19.746  0.00  0.00    +0.000 A 
ATOM     10  C   UNL     1      -4.212 -18.118 -18.616  0.00  0.00    +0.000 C 
ATOM     11  C   UNL     1      -1.071 -15.982 -22.101  0.00  0.00    +0.000 C 
ATOM     12  C   UNL     1       0.715 -15.588 -19.976  0.00  0.00    +0.000 A 
ATOM     13  C   UNL     1       1.359 -15.729 -17.793  0.00  0.00    +0.000 A 
ATOM     14  N   UNL     1       2.329 -15.475 -16.832  0.00  0.00    +0.000 N 
ATOM     15  H   UNL     1       3.136 -15.023 -17.243  0.00  0.00    +0.000 HD
ENDROOT
BRANCH  14  16
ATOM     16  C   UNL     1       2.362 -15.731 -15.457  0.00  0.00    +0.000 A 
ATOM     17  C   UNL     1       2.743 -14.707 -14.580  0.00  0.00    +0.000 A 
ATOM     18  C   UNL     1       2.787 -14.925 -13.204  0.00  0.00    +0.000 A 
ATOM     19  F   UNL     1       3.158 -13.919 -12.398  0.00  0.00    +0.000 F 
ATOM     20  C   UNL     1       2.454 -16.165 -12.677  0.00  0.00    +0.000 A 
ATOM     21  C   UNL     1       2.076 -17.185 -13.539  0.00  0.00    +0.000 A 
ATOM     22  F   UNL     1       1.751 -18.387 -13.041  0.00  0.00    +0.000 F 
ATOM     23  C   UNL     1       2.028 -16.975 -14.913  0.00  0.00    +0.000 A 
BRANCH  20  24
ATOM     24  O   UNL     1       2.500 -16.372 -11.327  0.00  0.00    +0.000 OA
ATOM     25  H   UNL     1       1.772 -16.977 -11.089  0.00  0.00    +0.000 HD
ENDBRANCH  20  24
ENDBRANCH  14  16
BRANCH   2  26
ATOM     26  C   UNL     1      -2.145 -17.555 -16.697  0.00  0.00    +0.000 C 
ATOM     27  C   UNL     1      -2.358 -17.953 -15.232  0.00  0.00    +0.000 C 
BRANCH  27  28
ATOM     28  C   UNL     1      -2.558 -18.316 -13.881  0.00  0.00    +0.000 C 
ATOM     29  C   UNL     1      -3.752 -17.799 -13.139  0.00  0.00    +0.000 C 
ATOM     30  C   UNL     1      -1.549 -19.172 -13.182  0.00  0.00    +0.000 C 
ENDBRANCH  27  28
ENDBRANCH   2  26
TORSDOF 4
ENDMDL
MODEL 5
REMARK VINA RESULT:      -5.4     17.066     19.576
REMARK  Name = 25023738_BI-D-1870.pdbqt.pdb
REMARK  4 active torsions:
REMARK  status: ('A' for Active; 'I' for Inactive)
REMARK    1  A    between atoms: N_2  and  C_26
REMARK    2  A    between atoms: N_14  and  C_16
REMARK    3  A    between atoms: C_20  and  O_24
REMARK    4  A    between atoms: C_27  and  C_28
REMARK                            x       y       z     vdW  Elec       q    Type
REMARK                         _______ _______ _______ _____ _____    ______ ____
ROOT
ATOM      1  O   UNL     1       3.604  17.675 -21.756  0.00  0.00    +0.000 OA
ATOM      2  N   UNL     1       0.971  17.216 -19.318  0.00  0.00    +0.000 N 
ATOM      3  N   UNL     1       1.853  16.139 -21.768  0.00  0.00    +0.000 N 
ATOM      4  N   UNL     1      -0.839  15.662 -19.285  0.00  0.00    +0.000 NA
ATOM      5  N   UNL     1      -1.158  14.095 -20.999  0.00  0.00    +0.000 NA
ATOM      6  C   UNL     1       2.095  17.754 -19.905  0.00  0.00    +0.000 C 
ATOM      7  C   UNL     1       0.258  16.152 -19.907  0.00  0.00    +0.000 A 
ATOM      8  C   UNL     1       2.598  17.203 -21.218  0.00  0.00    +0.000 C 
ATOM      9  C   UNL     1       0.701  15.635 -21.105  0.00  0.00    +0.000 A 
ATOM     10  C   UNL     1       2.832  18.906 -19.230  0.00  0.00    +0.000 C 
ATOM     11  C   UNL     1       2.184  15.479 -23.027  0.00  0.00    +0.000 C 
ATOM     12  C   UNL     1      -0.063  14.599 -21.597  0.00  0.00    +0.000 A 
ATOM     13  C   UNL     1      -1.519  14.650 -19.843  0.00  0.00    +0.000 A 
ATOM     14  N   UNL     1      -2.650  14.121 -19.236  0.00  0.00    +0.000 N 
ATOM     15  H   UNL     1      -3.039  13.366 -19.789  0.00  0.00    +0.000 HD
ENDROOT
BRANCH  14  16
ATOM     16  C   UNL     1      -3.301  14.449 -18.042  0.00  0.00    +0.000 A 
ATOM     17  C   UNL     1      -4.515  15.147 -18.095  0.00  0.00    +0.000 A 
ATOM     18  C   UNL     1      -5.192  15.491 -16.926  0.00  0.00    +0.000 A 
ATOM     19  F   UNL     1      -6.351  16.160 -17.019  0.00  0.00    +0.000 F 
ATOM     20  C   UNL     1      -4.674  15.147 -15.685  0.00  0.00    +0.000 A 
ATOM     21  C   UNL     1      -3.472  14.457 -15.624  0.00  0.00    +0.000 A 
ATOM     22  F   UNL     1      -2.961  14.118 -14.431  0.00  0.00    +0.000 F 
ATOM     23  C   UNL     1      -2.790  14.109 -16.787  0.00  0.00    +0.000 A 
BRANCH  20  24
ATOM     24  O   UNL     1      -5.343  15.488 -14.543  0.00  0.00    +0.000 OA
ATOM     25  H   UNL     1      -6.296  15.525 -14.752  0.00  0.00    +0.000 HD
ENDBRANCH  20  24
ENDBRANCH  14  16
BRANCH   2  26
ATOM     26  C   UNL     1       0.480  17.747 -18.048  0.00  0.00    +0.000 C 
ATOM     27  C   UNL     1      -0.041  18.305 -16.718  0.00  0.00    +0.000 C 
BRANCH  27  28
ATOM     28  C   UNL     1      -0.516  18.818 -15.491  0.00  0.00    +0.000 C 
ATOM     29  C   UNL     1      -1.601  18.097 -14.751  0.00  0.00    +0.000 C 
ATOM     30  C   UNL     1       0.031  20.107 -14.959  0.00  0.00    +0.000 C 
ENDBRANCH  27  28
ENDBRANCH   2  26
TORSDOF 4
ENDMDL
MODEL 6
REMARK VINA RESULT:      -5.2     17.090     18.692
REMARK  Name = 25023738_BI-D-1870.pdbqt.pdb
REMARK  4 active torsions:
REMARK  status: ('A' for Active; 'I' for Inactive)
REMARK    1  A    between atoms: N_2  and  C_26
REMARK    2  A    between atoms: N_14  and  C_16
REMARK    3  A    between atoms: C_20  and  O_24
REMARK    4  A    between atoms: C_27  and  C_28
REMARK                            x       y       z     vdW  Elec       q    Type
REMARK                         _______ _______ _______ _____ _____    ______ ____
ROOT
ATOM      1  O   UNL     1      15.464  -6.801   1.379  0.00  0.00    +0.000 OA
ATOM      2  N   UNL     1      14.068  -6.230  -1.909  0.00  0.00    +0.000 N 
ATOM      3  N   UNL     1      13.237  -6.488   0.771  0.00  0.00    +0.000 N 
ATOM      4  N   UNL     1      11.802  -5.905  -2.582  0.00  0.00    +0.000 NA
ATOM      5  N   UNL     1      10.038  -5.920  -1.039  0.00  0.00    +0.000 NA
ATOM      6  C   UNL     1      15.025  -6.455  -0.943  0.00  0.00    +0.000 C 
ATOM      7  C   UNL     1      12.698  -6.128  -1.592  0.00  0.00    +0.000 A 
ATOM      8  C   UNL     1      14.618  -6.599   0.503  0.00  0.00    +0.000 C 
ATOM      9  C   UNL     1      12.306  -6.256  -0.278  0.00  0.00    +0.000 A 
ATOM     10  C   UNL     1      16.494  -6.560  -1.335  0.00  0.00    +0.000 C 
ATOM     11  C   UNL     1      12.655  -6.599   2.105  0.00  0.00    +0.000 C 
ATOM     12  C   UNL     1      10.948  -6.140  -0.073  0.00  0.00    +0.000 A 
ATOM     13  C   UNL     1      10.498  -5.807  -2.283  0.00  0.00    +0.000 A 
ATOM     14  N   UNL     1       9.548  -5.580  -3.270  0.00  0.00    +0.000 N 
ATOM     15  H   UNL     1       8.618  -5.533  -2.874  0.00  0.00    +0.000 HD
ENDROOT
BRANCH  14  16
ATOM     16  C   UNL     1       9.671  -5.412  -4.654  0.00  0.00    +0.000 A 
ATOM     17  C   UNL     1       9.094  -4.287  -5.259  0.00  0.00    +0.000 A 
ATOM     18  C   UNL     1       9.196  -4.085  -6.634  0.00  0.00    +0.000 A 
ATOM     19  F   UNL     1       8.631  -2.996  -7.175  0.00  0.00    +0.000 F 
ATOM     20  C   UNL     1       9.872  -4.999  -7.432  0.00  0.00    +0.000 A 
ATOM     21  C   UNL     1      10.444  -6.116  -6.840  0.00  0.00    +0.000 A 
ATOM     22  F   UNL     1      11.100  -7.006  -7.600  0.00  0.00    +0.000 F 
ATOM     23  C   UNL     1      10.348  -6.324  -5.467  0.00  0.00    +0.000 A 
BRANCH  20  24
ATOM     24  O   UNL     1       9.967  -4.796  -8.780  0.00  0.00    +0.000 OA
ATOM     25  H   UNL     1      10.531  -4.013  -8.927  0.00  0.00    +0.000 HD
ENDBRANCH  20  24
ENDBRANCH  14  16
BRANCH   2  26
ATOM     26  C   UNL     1      14.457  -6.093  -3.311  0.00  0.00    +0.000 C 
ATOM     27  C   UNL     1      14.863  -5.943  -4.782  0.00  0.00    +0.000 C 
BRANCH  27  28
ATOM     28  C   UNL     1      15.240  -5.810  -6.137  0.00  0.00    +0.000 C 
ATOM     29  C   UNL     1      16.690  -5.749  -6.505  0.00  0.00    +0.000 C 
ATOM     30  C   UNL     1      14.187  -5.679  -7.194  0.00  0.00    +0.000 C 
ENDBRANCH  27  28
ENDBRANCH   2  26
TORSDOF 4
ENDMDL
MODEL 7
REMARK VINA RESULT:      -5.2     21.108     23.024
REMARK  Name = 25023738_BI-D-1870.pdbqt.pdb
REMARK  4 active torsions:
REMARK  status: ('A' for Active; 'I' for Inactive)
REMARK    1  A    between atoms: N_2  and  C_26
REMARK    2  A    between atoms: N_14  and  C_16
REMARK    3  A    between atoms: C_20  and  O_24
REMARK    4  A    between atoms: C_27  and  C_28
REMARK                            x       y       z     vdW  Elec       q    Type
REMARK                         _______ _______ _______ _____ _____    ______ ____
ROOT
ATOM      1  O   UNL     1       5.672   4.831   8.313  0.00  0.00    +0.000 OA
ATOM      2  N   UNL     1       5.620   4.415   4.719  0.00  0.00    +0.000 N 
ATOM      3  N   UNL     1       7.158   5.664   6.724  0.00  0.00    +0.000 N 
ATOM      4  N   UNL     1       7.115   5.246   3.055  0.00  0.00    +0.000 NA
ATOM      5  N   UNL     1       8.976   6.559   3.605  0.00  0.00    +0.000 NA
ATOM      6  C   UNL     1       5.220   4.285   6.031  0.00  0.00    +0.000 C 
ATOM      7  C   UNL     1       6.768   5.151   4.359  0.00  0.00    +0.000 A 
ATOM      8  C   UNL     1       6.018   4.940   7.133  0.00  0.00    +0.000 C 
ATOM      9  C   UNL     1       7.510   5.756   5.350  0.00  0.00    +0.000 A 
ATOM     10  C   UNL     1       3.970   3.480   6.371  0.00  0.00    +0.000 C 
ATOM     11  C   UNL     1       8.051   6.363   7.643  0.00  0.00    +0.000 C 
ATOM     12  C   UNL     1       8.611   6.450   4.896  0.00  0.00    +0.000 A 
ATOM     13  C   UNL     1       8.206   5.945   2.710  0.00  0.00    +0.000 A 
ATOM     14  N   UNL     1       8.594   6.065   1.382  0.00  0.00    +0.000 N 
ATOM     15  H   UNL     1       9.435   6.623   1.299  0.00  0.00    +0.000 HD
ENDROOT
BRANCH  14  16
ATOM     16  C   UNL     1       8.035   5.560   0.203  0.00  0.00    +0.000 A 
ATOM     17  C   UNL     1       8.546   5.983  -1.031  0.00  0.00    +0.000 A 
ATOM     18  C   UNL     1       8.015   5.501  -2.227  0.00  0.00    +0.000 A 
ATOM     19  F   UNL     1       8.531   5.930  -3.387  0.00  0.00    +0.000 F 
ATOM     20  C   UNL     1       6.965   4.592  -2.215  0.00  0.00    +0.000 A 
ATOM     21  C   UNL     1       6.453   4.169  -0.997  0.00  0.00    +0.000 A 
ATOM     22  F   UNL     1       5.440   3.290  -0.973  0.00  0.00    +0.000 F 
ATOM     23  C   UNL     1       6.979   4.644   0.201  0.00  0.00    +0.000 A 
BRANCH  20  24
ATOM     24  O   UNL     1       6.449   4.124  -3.391  0.00  0.00    +0.000 OA
ATOM     25  H   UNL     1       5.485   4.016  -3.275  0.00  0.00    +0.000 HD
ENDBRANCH  20  24
ENDBRANCH  14  16
BRANCH   2  26
ATOM     26  C   UNL     1       4.850   3.786   3.650  0.00  0.00    +0.000 C 
ATOM     27  C   UNL     1       4.043   3.128   2.524  0.00  0.00    +0.000 C 
BRANCH  27  28
ATOM     28  C   UNL     1       3.298   2.518   1.490  0.00  0.00    +0.000 C 
ATOM     29  C   UNL     1       2.272   3.312   0.742  0.00  0.00    +0.000 C 
ATOM     30  C   UNL     1       3.500   1.067   1.181  0.00  0.00    +0.000 C 
ENDBRANCH  27  28
ENDBRANCH   2  26
TORSDOF 4
ENDMDL
MODEL 8
REMARK VINA RESULT:      -5.0     16.110     17.825
REMARK  Name = 25023738_BI-D-1870.pdbqt.pdb
REMARK  4 active torsions:
REMARK  status: ('A' for Active; 'I' for Inactive)
REMARK    1  A    between atoms: N_2  and  C_26
REMARK    2  A    between atoms: N_14  and  C_16
REMARK    3  A    between atoms: C_20  and  O_24
REMARK    4  A    between atoms: C_27  and  C_28
REMARK                            x       y       z     vdW  Elec       q    Type
REMARK                         _______ _______ _______ _____ _____    ______ ____
ROOT
ATOM      1  O   UNL     1      -7.872  -2.852 -27.877  0.00  0.00    +0.000 OA
ATOM      2  N   UNL     1      -9.250  -1.698 -24.737  0.00  0.00    +0.000 N 
ATOM      3  N   UNL     1      -7.610  -3.755 -25.746  0.00  0.00    +0.000 N 
ATOM      4  N   UNL     1      -9.012  -2.586 -22.535  0.00  0.00    +0.000 NA
ATOM      5  N   UNL     1      -7.730  -4.500 -22.103  0.00  0.00    +0.000 NA
ATOM      6  C   UNL     1      -8.989  -1.727 -26.090  0.00  0.00    +0.000 C 
ATOM      7  C   UNL     1      -8.722  -2.663 -23.855  0.00  0.00    +0.000 A 
ATOM      8  C   UNL     1      -8.115  -2.813 -26.667  0.00  0.00    +0.000 C 
ATOM      9  C   UNL     1      -7.922  -3.663 -24.362  0.00  0.00    +0.000 A 
ATOM     10  C   UNL     1      -9.584  -0.661 -27.004  0.00  0.00    +0.000 C 
ATOM     11  C   UNL     1      -6.749  -4.874 -26.115  0.00  0.00    +0.000 C 
ATOM     12  C   UNL     1      -7.456  -4.555 -23.420  0.00  0.00    +0.000 A 
ATOM     13  C   UNL     1      -8.511  -3.502 -21.694  0.00  0.00    +0.000 A 
ATOM     14  N   UNL     1      -8.785  -3.457 -20.334  0.00  0.00    +0.000 N 
ATOM     15  H   UNL     1      -8.330  -4.219 -19.847  0.00  0.00    +0.000 HD
ENDROOT
BRANCH  14  16
ATOM     16  C   UNL     1      -9.549  -2.567 -19.571  0.00  0.00    +0.000 A 
ATOM     17  C   UNL     1      -9.576  -2.711 -18.177  0.00  0.00    +0.000 A 
ATOM     18  C   UNL     1     -10.325  -1.843 -17.384  0.00  0.00    +0.000 A 
ATOM     19  F   UNL     1     -10.325  -2.014 -16.054  0.00  0.00    +0.000 F 
ATOM     20  C   UNL     1     -11.062  -0.818 -17.964  0.00  0.00    +0.000 A 
ATOM     21  C   UNL     1     -11.041  -0.670 -19.343  0.00  0.00    +0.000 A 
ATOM     22  F   UNL     1     -11.748   0.316 -19.915  0.00  0.00    +0.000 F 
ATOM     23  C   UNL     1     -10.294  -1.532 -20.141  0.00  0.00    +0.000 A 
BRANCH  20  24
ATOM     24  O   UNL     1     -11.795   0.028 -17.181  0.00  0.00    +0.000 OA
ATOM     25  H   UNL     1     -12.418  -0.510 -16.656  0.00  0.00    +0.000 HD
ENDBRANCH  20  24
ENDBRANCH  14  16
BRANCH   2  26
ATOM     26  C   UNL     1     -10.097  -0.649 -24.174  0.00  0.00    +0.000 C 
ATOM     27  C   UNL     1     -10.987   0.453 -23.588  0.00  0.00    +0.000 C 
BRANCH  27  28
ATOM     28  C   UNL     1     -11.807   1.467 -23.044  0.00  0.00    +0.000 C 
ATOM     29  C   UNL     1     -13.270   1.214 -22.840  0.00  0.00    +0.000 C 
ATOM     30  C   UNL     1     -11.222   2.807 -22.722  0.00  0.00    +0.000 C 
ENDBRANCH  27  28
ENDBRANCH   2  26
TORSDOF 4
ENDMDL
MODEL 9
REMARK VINA RESULT:      -4.9     13.226     16.218
REMARK  Name = 25023738_BI-D-1870.pdbqt.pdb
REMARK  4 active torsions:
REMARK  status: ('A' for Active; 'I' for Inactive)
REMARK    1  A    between atoms: N_2  and  C_26
REMARK    2  A    between atoms: N_14  and  C_16
REMARK    3  A    between atoms: C_20  and  O_24
REMARK    4  A    between atoms: C_27  and  C_28
REMARK                            x       y       z     vdW  Elec       q    Type
REMARK                         _______ _______ _______ _____ _____    ______ ____
ROOT
ATOM      1  O   UNL     1      13.897  15.178 -20.267  0.00  0.00    +0.000 OA
ATOM      2  N   UNL     1      12.738  14.236 -16.972  0.00  0.00    +0.000 N 
ATOM      3  N   UNL     1      13.738  13.053 -19.326  0.00  0.00    +0.000 N 
ATOM      4  N   UNL     1      12.557  12.081 -15.964  0.00  0.00    +0.000 NA
ATOM      5  N   UNL     1      13.169  10.126 -17.103  0.00  0.00    +0.000 NA
ATOM      6  C   UNL     1      13.063  15.054 -18.032  0.00  0.00    +0.000 C 
ATOM      7  C   UNL     1      12.892  12.836 -17.036  0.00  0.00    +0.000 A 
ATOM      8  C   UNL     1      13.601  14.457 -19.309  0.00  0.00    +0.000 C 
ATOM      9  C   UNL     1      13.382  12.271 -18.193  0.00  0.00    +0.000 A 
ATOM     10  C   UNL     1      12.878  16.563 -17.915  0.00  0.00    +0.000 C 
ATOM     11  C   UNL     1      14.241  12.298 -20.469  0.00  0.00    +0.000 C 
ATOM     12  C   UNL     1      13.495  10.898 -18.155  0.00  0.00    +0.000 A 
ATOM     13  C   UNL     1      12.703  10.749 -16.023  0.00  0.00    +0.000 A 
ATOM     14  N   UNL     1      12.370   9.940 -14.944  0.00  0.00    +0.000 N 
ATOM     15  H   UNL     1      12.541   8.965 -15.156  0.00  0.00    +0.000 HD
ENDROOT
BRANCH  14  16
ATOM     16  C   UNL     1      11.865  10.247 -13.676  0.00  0.00    +0.000 A 
ATOM     17  C   UNL     1      12.395  11.339 -12.975  0.00  0.00    +0.000 A 
ATOM     18  C   UNL     1      11.917  11.676 -11.710  0.00  0.00    +0.000 A 
ATOM     19  F   UNL     1      12.450  12.728 -11.072  0.00  0.00    +0.000 F 
ATOM     20  C   UNL     1      10.905  10.932 -11.119  0.00  0.00    +0.000 A 
ATOM     21  C   UNL     1      10.376   9.848 -11.806  0.00  0.00    +0.000 A 
ATOM     22  F   UNL     1       9.397   9.122 -11.246  0.00  0.00    +0.000 F 
ATOM     23  C   UNL     1      10.847   9.507 -13.070  0.00  0.00    +0.000 A 
BRANCH  20  24
ATOM     24  O   UNL     1      10.441  11.267  -9.878  0.00  0.00    +0.000 OA
ATOM     25  H   UNL     1      11.094  11.862  -9.463  0.00  0.00    +0.000 HD
ENDBRANCH  20  24
ENDBRANCH  14  16
BRANCH   2  26
ATOM     26  C   UNL     1      12.215  14.809 -15.734  0.00  0.00    +0.000 C 
ATOM     27  C   UNL     1      11.666  15.416 -14.437  0.00  0.00    +0.000 C 
BRANCH  27  28
ATOM     28  C   UNL     1      11.159  15.970 -13.240  0.00  0.00    +0.000 C 
ATOM     29  C   UNL     1      10.437  15.096 -12.261  0.00  0.00    +0.000 C 
ATOM     30  C   UNL     1      11.300  17.438 -12.980  0.00  0.00    +0.000 C 
ENDBRANCH  27  28
ENDBRANCH   2  26
TORSDOF 4
ENDMDL
