MODEL 1
REMARK VINA RESULT:      -4.8      0.000      0.000
REMARK  Name = 26879_Levamisole.pdbqt.pdb
REMARK  1 active torsions:
REMARK  status: ('A' for Active; 'I' for Inactive)
REMARK    1  A    between atoms: C_5  and  C_9
REMARK                            x       y       z     vdW  Elec       q    Type
REMARK                         _______ _______ _______ _____ _____    ______ ____
ROOT
ATOM      1  S   UNL     1       8.193   5.498   1.699  0.00  0.00    +0.000 S 
ATOM      2  N   UNL     1       7.205   4.436  -0.714  0.00  0.00    +0.000 NA
ATOM      3  N   UNL     1       6.307   3.599   1.392  0.00  0.00    +0.000 NA
ATOM      4  C   UNL     1       5.852   3.977  -0.763  0.00  0.00    +0.000 C 
ATOM      5  C   UNL     1       5.381   3.389   0.422  0.00  0.00    +0.000 C 
ATOM      6  C   UNL     1       7.402   5.861  -0.784  0.00  0.00    +0.000 C 
ATOM      7  C   UNL     1       7.340   4.242   0.770  0.00  0.00    +0.000 C 
ATOM      8  C   UNL     1       7.991   6.558   0.403  0.00  0.00    +0.000 C 
ENDROOT
BRANCH   5   9
ATOM      9  C   UNL     1       4.108   2.722   0.650  0.00  0.00    +0.000 A 
ATOM     10  C   UNL     1       2.898   3.421   0.602  0.00  0.00    +0.000 A 
ATOM     11  C   UNL     1       4.075   1.353   0.929  0.00  0.00    +0.000 A 
ATOM     12  C   UNL     1       1.686   2.771   0.825  0.00  0.00    +0.000 A 
ATOM     13  C   UNL     1       2.866   0.697   1.152  0.00  0.00    +0.000 A 
ATOM     14  C   UNL     1       1.671   1.407   1.100  0.00  0.00    +0.000 A 
ENDBRANCH   5   9
TORSDOF 1
ENDMDL
MODEL 2
REMARK VINA RESULT:      -4.6     19.669     21.534
REMARK  Name = 26879_Levamisole.pdbqt.pdb
REMARK  1 active torsions:
REMARK  status: ('A' for Active; 'I' for Inactive)
REMARK    1  A    between atoms: C_5  and  C_9
REMARK                            x       y       z     vdW  Elec       q    Type
REMARK                         _______ _______ _______ _____ _____    ______ ____
ROOT
ATOM      1  S   UNL     1     -15.182   7.172 -12.650  0.00  0.00    +0.000 S 
ATOM      2  N   UNL     1     -12.701   5.908 -12.232  0.00  0.00    +0.000 NA
ATOM      3  N   UNL     1     -13.266   7.859 -10.884  0.00  0.00    +0.000 NA
ATOM      4  C   UNL     1     -12.121   5.940 -10.925  0.00  0.00    +0.000 C 
ATOM      5  C   UNL     1     -12.356   7.120 -10.200  0.00  0.00    +0.000 C 
ATOM      6  C   UNL     1     -13.769   4.963 -12.437  0.00  0.00    +0.000 C 
ATOM      7  C   UNL     1     -13.514   7.156 -12.030  0.00  0.00    +0.000 C 
ATOM      8  C   UNL     1     -15.137   5.490 -12.743  0.00  0.00    +0.000 C 
ENDROOT
BRANCH   5   9
ATOM      9  C   UNL     1     -11.806   7.506  -8.910  0.00  0.00    +0.000 A 
ATOM     10  C   UNL     1     -10.523   7.111  -8.515  0.00  0.00    +0.000 A 
ATOM     11  C   UNL     1     -12.563   8.284  -8.030  0.00  0.00    +0.000 A 
ATOM     12  C   UNL     1     -10.009   7.485  -7.275  0.00  0.00    +0.000 A 
ATOM     13  C   UNL     1     -12.054   8.661  -6.788  0.00  0.00    +0.000 A 
ATOM     14  C   UNL     1     -10.776   8.261  -6.411  0.00  0.00    +0.000 A 
ENDBRANCH   5   9
TORSDOF 1
ENDMDL
MODEL 3
REMARK VINA RESULT:      -4.5     22.401     23.378
REMARK  Name = 26879_Levamisole.pdbqt.pdb
REMARK  1 active torsions:
REMARK  status: ('A' for Active; 'I' for Inactive)
REMARK    1  A    between atoms: C_5  and  C_9
REMARK                            x       y       z     vdW  Elec       q    Type
REMARK                         _______ _______ _______ _____ _____    ______ ____
ROOT
ATOM      1  S   UNL     1      -7.035  18.768 -14.599  0.00  0.00    +0.000 S 
ATOM      2  N   UNL     1      -6.774  16.031 -13.993  0.00  0.00    +0.000 NA
ATOM      3  N   UNL     1      -6.029  16.827 -16.174  0.00  0.00    +0.000 NA
ATOM      4  C   UNL     1      -5.700  15.293 -14.582  0.00  0.00    +0.000 C 
ATOM      5  C   UNL     1      -5.356  15.684 -15.887  0.00  0.00    +0.000 C 
ATOM      6  C   UNL     1      -6.436  16.874 -12.875  0.00  0.00    +0.000 C 
ATOM      7  C   UNL     1      -6.812  17.069 -15.080  0.00  0.00    +0.000 C 
ATOM      8  C   UNL     1      -6.595  18.355 -13.025  0.00  0.00    +0.000 C 
ENDROOT
BRANCH   5   9
ATOM      9  C   UNL     1      -4.403  15.057 -16.790  0.00  0.00    +0.000 A 
ATOM     10  C   UNL     1      -4.631  15.003 -18.169  0.00  0.00    +0.000 A 
ATOM     11  C   UNL     1      -3.231  14.487 -16.287  0.00  0.00    +0.000 A 
ATOM     12  C   UNL     1      -3.712  14.396 -19.023  0.00  0.00    +0.000 A 
ATOM     13  C   UNL     1      -2.308  13.880 -17.136  0.00  0.00    +0.000 A 
ATOM     14  C   UNL     1      -2.549  13.835 -18.505  0.00  0.00    +0.000 A 
ENDBRANCH   5   9
TORSDOF 1
ENDMDL
MODEL 4
REMARK VINA RESULT:      -4.4     22.734     23.982
REMARK  Name = 26879_Levamisole.pdbqt.pdb
REMARK  1 active torsions:
REMARK  status: ('A' for Active; 'I' for Inactive)
REMARK    1  A    between atoms: C_5  and  C_9
REMARK                            x       y       z     vdW  Elec       q    Type
REMARK                         _______ _______ _______ _____ _____    ______ ____
ROOT
ATOM      1  S   UNL     1       7.132 -18.605 -10.789  0.00  0.00    +0.000 S 
ATOM      2  N   UNL     1       6.521 -15.866 -10.574  0.00  0.00    +0.000 NA
ATOM      3  N   UNL     1       6.158 -16.985 -12.709  0.00  0.00    +0.000 NA
ATOM      4  C   UNL     1       5.467 -15.328 -11.378  0.00  0.00    +0.000 C 
ATOM      5  C   UNL     1       5.342 -15.902 -12.654  0.00  0.00    +0.000 C 
ATOM      6  C   UNL     1       6.121 -16.609  -9.406  0.00  0.00    +0.000 C 
ATOM      7  C   UNL     1       6.807 -17.009 -11.506  0.00  0.00    +0.000 C 
ATOM      8  C   UNL     1       6.446 -18.069  -9.346  0.00  0.00    +0.000 C 
ENDROOT
BRANCH   5   9
ATOM      9  C   UNL     1       4.461 -15.496 -13.739  0.00  0.00    +0.000 A 
ATOM     10  C   UNL     1       4.809 -15.701 -15.078  0.00  0.00    +0.000 A 
ATOM     11  C   UNL     1       3.239 -14.881 -13.455  0.00  0.00    +0.000 A 
ATOM     12  C   UNL     1       3.958 -15.304 -16.107  0.00  0.00    +0.000 A 
ATOM     13  C   UNL     1       2.383 -14.483 -14.481  0.00  0.00    +0.000 A 
ATOM     14  C   UNL     1       2.744 -14.695 -15.807  0.00  0.00    +0.000 A 
ENDBRANCH   5   9
TORSDOF 1
ENDMDL
MODEL 5
REMARK VINA RESULT:      -4.3     27.016     28.372
REMARK  Name = 26879_Levamisole.pdbqt.pdb
REMARK  1 active torsions:
REMARK  status: ('A' for Active; 'I' for Inactive)
REMARK    1  A    between atoms: C_5  and  C_9
REMARK                            x       y       z     vdW  Elec       q    Type
REMARK                         _______ _______ _______ _____ _____    ______ ____
ROOT
ATOM      1  S   UNL     1     -10.319  -3.331 -24.956  0.00  0.00    +0.000 S 
ATOM      2  N   UNL     1     -12.012  -4.473 -23.018  0.00  0.00    +0.000 NA
ATOM      3  N   UNL     1     -10.085  -3.177 -22.276  0.00  0.00    +0.000 NA
ATOM      4  C   UNL     1     -12.165  -3.812 -21.759  0.00  0.00    +0.000 C 
ATOM      5  C   UNL     1     -11.012  -3.165 -21.284  0.00  0.00    +0.000 C 
ATOM      6  C   UNL     1     -12.745  -3.918 -24.127  0.00  0.00    +0.000 C 
ATOM      7  C   UNL     1     -10.659  -3.880 -23.297  0.00  0.00    +0.000 C 
ATOM      8  C   UNL     1     -11.974  -3.338 -25.272  0.00  0.00    +0.000 C 
ENDROOT
BRANCH   5   9
ATOM      9  C   UNL     1     -10.811  -2.518 -19.996  0.00  0.00    +0.000 A 
ATOM     10  C   UNL     1     -10.161  -3.172 -18.944  0.00  0.00    +0.000 A 
ATOM     11  C   UNL     1     -11.275  -1.217 -19.786  0.00  0.00    +0.000 A 
ATOM     12  C   UNL     1      -9.978  -2.542 -17.715  0.00  0.00    +0.000 A 
ATOM     13  C   UNL     1     -11.094  -0.582 -18.559  0.00  0.00    +0.000 A 
ATOM     14  C   UNL     1     -10.445  -1.245 -17.523  0.00  0.00    +0.000 A 
ENDBRANCH   5   9
TORSDOF 1
ENDMDL
MODEL 6
REMARK VINA RESULT:      -4.2     22.019     22.508
REMARK  Name = 26879_Levamisole.pdbqt.pdb
REMARK  1 active torsions:
REMARK  status: ('A' for Active; 'I' for Inactive)
REMARK    1  A    between atoms: C_5  and  C_9
REMARK                            x       y       z     vdW  Elec       q    Type
REMARK                         _______ _______ _______ _____ _____    ______ ____
ROOT
ATOM      1  S   UNL     1      -1.171  16.020 -18.775  0.00  0.00    +0.000 S 
ATOM      2  N   UNL     1      -2.160  13.947 -17.146  0.00  0.00    +0.000 NA
ATOM      3  N   UNL     1      -2.420  16.253 -16.399  0.00  0.00    +0.000 NA
ATOM      4  C   UNL     1      -3.302  14.200 -16.324  0.00  0.00    +0.000 C 
ATOM      5  C   UNL     1      -3.380  15.502 -15.802  0.00  0.00    +0.000 C 
ATOM      6  C   UNL     1      -2.416  13.713 -18.545  0.00  0.00    +0.000 C 
ATOM      7  C   UNL     1      -1.741  15.389 -17.211  0.00  0.00    +0.000 C 
ATOM      8  C   UNL     1      -1.885  14.698 -19.540  0.00  0.00    +0.000 C 
ENDROOT
BRANCH   5   9
ATOM      9  C   UNL     1      -4.340  16.029 -14.844  0.00  0.00    +0.000 A 
ATOM     10  C   UNL     1      -5.560  15.388 -14.604  0.00  0.00    +0.000 A 
ATOM     11  C   UNL     1      -4.056  17.203 -14.141  0.00  0.00    +0.000 A 
ATOM     12  C   UNL     1      -6.472  15.905 -13.686  0.00  0.00    +0.000 A 
ATOM     13  C   UNL     1      -4.964  17.725 -13.221  0.00  0.00    +0.000 A 
ATOM     14  C   UNL     1      -6.172  17.075 -12.994  0.00  0.00    +0.000 A 
ENDBRANCH   5   9
TORSDOF 1
ENDMDL
MODEL 7
REMARK VINA RESULT:      -4.2     25.426     26.646
REMARK  Name = 26879_Levamisole.pdbqt.pdb
REMARK  1 active torsions:
REMARK  status: ('A' for Active; 'I' for Inactive)
REMARK    1  A    between atoms: C_5  and  C_9
REMARK                            x       y       z     vdW  Elec       q    Type
REMARK                         _______ _______ _______ _____ _____    ______ ____
ROOT
ATOM      1  S   UNL     1     -13.013   3.303 -20.988  0.00  0.00    +0.000 S 
ATOM      2  N   UNL     1     -10.624   2.027 -21.757  0.00  0.00    +0.000 NA
ATOM      3  N   UNL     1     -11.600   1.483 -19.590  0.00  0.00    +0.000 NA
ATOM      4  C   UNL     1     -10.364   0.704 -21.281  0.00  0.00    +0.000 C 
ATOM      5  C   UNL     1     -10.830   0.437 -19.983  0.00  0.00    +0.000 C 
ATOM      6  C   UNL     1     -11.557   2.145 -22.848  0.00  0.00    +0.000 C 
ATOM      7  C   UNL     1     -11.535   2.384 -20.616  0.00  0.00    +0.000 C 
ATOM      8  C   UNL     1     -12.847   2.866 -22.607  0.00  0.00    +0.000 C 
ENDROOT
BRANCH   5   9
ATOM      9  C   UNL     1     -10.615  -0.757 -19.180  0.00  0.00    +0.000 A 
ATOM     10  C   UNL     1     -10.722  -0.729 -17.786  0.00  0.00    +0.000 A 
ATOM     11  C   UNL     1     -10.289  -1.968 -19.798  0.00  0.00    +0.000 A 
ATOM     12  C   UNL     1     -10.512  -1.879 -17.028  0.00  0.00    +0.000 A 
ATOM     13  C   UNL     1     -10.078  -3.121 -19.045  0.00  0.00    +0.000 A 
ATOM     14  C   UNL     1     -10.189  -3.076 -17.660  0.00  0.00    +0.000 A 
ENDBRANCH   5   9
TORSDOF 1
ENDMDL
MODEL 8
REMARK VINA RESULT:      -4.1     24.292     25.224
REMARK  Name = 26879_Levamisole.pdbqt.pdb
REMARK  1 active torsions:
REMARK  status: ('A' for Active; 'I' for Inactive)
REMARK    1  A    between atoms: C_5  and  C_9
REMARK                            x       y       z     vdW  Elec       q    Type
REMARK                         _______ _______ _______ _____ _____    ______ ____
ROOT
ATOM      1  S   UNL     1      -6.308  17.805 -21.310  0.00  0.00    +0.000 S 
ATOM      2  N   UNL     1      -6.345  15.051 -20.730  0.00  0.00    +0.000 NA
ATOM      3  N   UNL     1      -4.817  16.490 -19.491  0.00  0.00    +0.000 NA
ATOM      4  C   UNL     1      -6.038  14.620 -19.401  0.00  0.00    +0.000 C 
ATOM      5  C   UNL     1      -5.068  15.390 -18.737  0.00  0.00    +0.000 C 
ATOM      6  C   UNL     1      -7.667  15.583 -20.943  0.00  0.00    +0.000 C 
ATOM      7  C   UNL     1      -5.578  16.338 -20.616  0.00  0.00    +0.000 C 
ATOM      8  C   UNL     1      -7.801  17.023 -21.330  0.00  0.00    +0.000 C 
ENDROOT
BRANCH   5   9
ATOM      9  C   UNL     1      -4.456  15.140 -17.441  0.00  0.00    +0.000 A 
ATOM     10  C   UNL     1      -3.189  14.558 -17.331  0.00  0.00    +0.000 A 
ATOM     11  C   UNL     1      -5.138  15.478 -16.268  0.00  0.00    +0.000 A 
ATOM     12  C   UNL     1      -2.616  14.321 -16.083  0.00  0.00    +0.000 A 
ATOM     13  C   UNL     1      -4.569  15.243 -15.018  0.00  0.00    +0.000 A 
ATOM     14  C   UNL     1      -3.308  14.665 -14.926  0.00  0.00    +0.000 A 
ENDBRANCH   5   9
TORSDOF 1
ENDMDL
MODEL 9
REMARK VINA RESULT:      -4.1     23.013     24.076
REMARK  Name = 26879_Levamisole.pdbqt.pdb
REMARK  1 active torsions:
REMARK  status: ('A' for Active; 'I' for Inactive)
REMARK    1  A    between atoms: C_5  and  C_9
REMARK                            x       y       z     vdW  Elec       q    Type
REMARK                         _______ _______ _______ _____ _____    ______ ____
ROOT
ATOM      1  S   UNL     1       7.936 -19.675 -11.015  0.00  0.00    +0.000 S 
ATOM      2  N   UNL     1       7.398 -17.145  -9.902  0.00  0.00    +0.000 NA
ATOM      3  N   UNL     1       6.710 -17.587 -12.199  0.00  0.00    +0.000 NA
ATOM      4  C   UNL     1       6.245 -16.427 -10.347  0.00  0.00    +0.000 C 
ATOM      5  C   UNL     1       5.925 -16.597 -11.704  0.00  0.00    +0.000 C 
ATOM      6  C   UNL     1       7.166 -18.216  -8.966  0.00  0.00    +0.000 C 
ATOM      7  C   UNL     1       7.529 -17.949 -11.166  0.00  0.00    +0.000 C 
ATOM      8  C   UNL     1       7.477 -19.616  -9.394  0.00  0.00    +0.000 C 
ENDROOT
BRANCH   5   9
ATOM      9  C   UNL     1       4.899 -15.914 -12.478  0.00  0.00    +0.000 A 
ATOM     10  C   UNL     1       3.881 -15.183 -11.857  0.00  0.00    +0.000 A 
ATOM     11  C   UNL     1       4.914 -15.983 -13.874  0.00  0.00    +0.000 A 
ATOM     12  C   UNL     1       2.903 -14.536 -12.610  0.00  0.00    +0.000 A 
ATOM     13  C   UNL     1       3.938 -15.338 -14.632  0.00  0.00    +0.000 A 
ATOM     14  C   UNL     1       2.933 -14.614 -13.999  0.00  0.00    +0.000 A 
ENDBRANCH   5   9
TORSDOF 1
ENDMDL
