MODEL 1
REMARK VINA RESULT:      -4.8      0.000      0.000
REMARK  Name = 27924_Phorbol.pdbqt.pdb
REMARK  26 active torsions:
REMARK  status: ('A' for Active; 'I' for Inactive)
REMARK    1  A    between atoms: O_1  and  C_10
REMARK    2  A    between atoms: O_1  and  C_26
REMARK    3  A    between atoms: O_2  and  C_13
REMARK    4  A    between atoms: O_2  and  C_28
REMARK    5  A    between atoms: O_3  and  C_14
REMARK    6  A    between atoms: O_4  and  C_20
REMARK    7  A    between atoms: O_7  and  C_29
REMARK    8  A    between atoms: C_11  and  C_16
REMARK    9  A    between atoms: C_11  and  C_17
REMARK   10  A    between atoms: C_15  and  C_21
REMARK   11  A    between atoms: C_22  and  C_29
REMARK   12  A    between atoms: C_26  and  C_30
REMARK   13  A    between atoms: C_27  and  C_31
REMARK   14  A    between atoms: C_28  and  C_32
REMARK   15  A    between atoms: C_32  and  C_33
REMARK   16  A    between atoms: C_33  and  C_34
REMARK   17  A    between atoms: C_34  and  C_35
REMARK   18  A    between atoms: C_35  and  C_36
REMARK   19  A    between atoms: C_36  and  C_37
REMARK   20  A    between atoms: C_37  and  C_38
REMARK   21  A    between atoms: C_38  and  C_39
REMARK   22  A    between atoms: C_39  and  C_40
REMARK   23  A    between atoms: C_40  and  C_41
REMARK   24  A    between atoms: C_41  and  C_42
REMARK   25  A    between atoms: C_42  and  C_43
REMARK   26  A    between atoms: C_43  and  C_44
REMARK                            x       y       z     vdW  Elec       q    Type
REMARK                         _______ _______ _______ _____ _____    ______ ____
ROOT
ATOM      1  O   UNL     1      14.082   2.250 -20.030  0.00  0.00    +0.000 OA
ATOM      2  C   UNL     1       7.405   0.085 -18.983  0.00  0.00    +0.000 C 
ATOM      3  C   UNL     1       6.401   0.157 -20.118  0.00  0.00    +0.000 C 
ATOM      4  C   UNL     1       6.321   1.143 -18.918  0.00  0.00    +0.000 C 
ATOM      5  C   UNL     1       8.876   0.201 -19.249  0.00  0.00    +0.000 C 
ATOM      6  C   UNL     1       6.942   0.534 -21.510  0.00  0.00    +0.000 C 
ATOM      7  C   UNL     1       9.343   0.792 -20.657  0.00  0.00    +0.000 C 
ATOM      8  C   UNL     1       8.421   0.049 -21.703  0.00  0.00    +0.000 C 
ATOM      9  C   UNL     1       5.293   0.916 -17.823  0.00  0.00    +0.000 C 
ATOM     10  C   UNL     1       6.654   2.608 -19.061  0.00  0.00    +0.000 C 
ATOM     11  C   UNL     1      10.943   0.629 -20.781  0.00  0.00    +0.000 C 
ATOM     12  C   UNL     1       9.660   0.759 -18.075  0.00  0.00    +0.000 C 
ATOM     13  C   UNL     1      11.789   1.490 -19.741  0.00  0.00    +0.000 C 
ATOM     14  C   UNL     1       8.835   0.180 -23.170  0.00  0.00    +0.000 C 
ATOM     15  C   UNL     1      10.841   0.160 -17.808  0.00  0.00    +0.000 C 
ATOM     16  C   UNL     1      12.080   0.830 -18.375  0.00  0.00    +0.000 C 
ATOM     17  C   UNL     1      11.644   1.018 -22.076  0.00  0.00    +0.000 C 
ATOM     18  C   UNL     1      13.059   1.784 -20.510  0.00  0.00    +0.000 C 
ATOM     19  C   UNL     1      12.847   1.592 -21.949  0.00  0.00    +0.000 C 
ATOM     20  C   UNL     1      13.829   2.010 -22.972  0.00  0.00    +0.000 C 
ENDROOT
BRANCH   7  21
ATOM     21  O   UNL     1       9.044   2.189 -20.784  0.00  0.00    +0.000 OA
ATOM     22  H   UNL     1       9.716   2.589 -21.379  0.00  0.00    +0.000 HD
ENDBRANCH   7  21
BRANCH  13  23
ATOM     23  O   UNL     1      11.207   2.801 -19.540  0.00  0.00    +0.000 OA
ATOM     24  H   UNL     1      11.143   2.923 -18.570  0.00  0.00    +0.000 HD
ENDBRANCH  13  23
BRANCH   3  25
ATOM     25  O   UNL     1       5.563  -1.028 -20.104  0.00  0.00    +0.000 OA
BRANCH  25  27
ATOM     26  O   UNL     1       5.603  -2.711 -18.618  0.00  0.00    +0.000 OA
ATOM     27  C   UNL     1       5.967  -2.260 -19.702  0.00  0.00    +0.000 C 
ATOM     28  C   UNL     1       6.793  -3.090 -20.638  0.00  0.00    +0.000 C 
ENDBRANCH  25  27
ENDBRANCH   3  25
BRANCH  15  29
ATOM     29  C   UNL     1      10.981  -1.313 -17.532  0.00  0.00    +0.000 C 
BRANCH  29  30
ATOM     30  O   UNL     1      11.625  -1.471 -16.279  0.00  0.00    +0.000 OA
ATOM     31  H   UNL     1      12.209  -2.246 -16.360  0.00  0.00    +0.000 HD
ENDBRANCH  29  30
ENDBRANCH  15  29
BRANCH   6  32
ATOM     32  O   UNL     1       6.083  -0.085 -22.506  0.00  0.00    +0.000 OA
BRANCH  32  34
ATOM     33  O   UNL     1       5.364   0.746 -24.454  0.00  0.00    +0.000 OA
ATOM     34  C   UNL     1       5.160   0.558 -23.257  0.00  0.00    +0.000 C 
BRANCH  34  35
ATOM     35  C   UNL     1       3.884   1.038 -22.612  0.00  0.00    +0.000 C 
BRANCH  35  36
ATOM     36  C   UNL     1       3.000  -0.125 -22.177  0.00  0.00    +0.000 C 
BRANCH  36  37
ATOM     37  C   UNL     1       1.809   0.283 -21.302  0.00  0.00    +0.000 C 
BRANCH  37  38
ATOM     38  C   UNL     1       2.191   0.760 -19.894  0.00  0.00    +0.000 C 
BRANCH  38  39
ATOM     39  C   UNL     1       1.598  -0.127 -18.795  0.00  0.00    +0.000 C 
BRANCH  39  40
ATOM     40  C   UNL     1       2.504  -1.294 -18.395  0.00  0.00    +0.000 C 
BRANCH  40  41
ATOM     41  C   UNL     1       1.864  -2.663 -18.641  0.00  0.00    +0.000 C 
BRANCH  41  42
ATOM     42  C   UNL     1       2.349  -3.336 -19.928  0.00  0.00    +0.000 C 
BRANCH  42  43
ATOM     43  C   UNL     1       1.718  -4.693 -20.250  0.00  0.00    +0.000 C 
BRANCH  43  44
ATOM     44  C   UNL     1       2.697  -5.799 -20.655  0.00  0.00    +0.000 C 
BRANCH  44  45
ATOM     45  C   UNL     1       4.010  -5.322 -21.285  0.00  0.00    +0.000 C 
BRANCH  45  46
ATOM     46  C   UNL     1       3.970  -5.067 -22.793  0.00  0.00    +0.000 C 
ATOM     47  C   UNL     1       4.091  -3.597 -23.162  0.00  0.00    +0.000 C 
ENDBRANCH  45  46
ENDBRANCH  44  45
ENDBRANCH  43  44
ENDBRANCH  42  43
ENDBRANCH  41  42
ENDBRANCH  40  41
ENDBRANCH  39  40
ENDBRANCH  38  39
ENDBRANCH  37  38
ENDBRANCH  36  37
ENDBRANCH  35  36
ENDBRANCH  34  35
ENDBRANCH  32  34
ENDBRANCH   6  32
TORSDOF 20
ENDMDL
MODEL 2
REMARK VINA RESULT:      -4.7      2.687      4.788
REMARK  Name = 27924_Phorbol.pdbqt.pdb
REMARK  26 active torsions:
REMARK  status: ('A' for Active; 'I' for Inactive)
REMARK    1  A    between atoms: O_1  and  C_10
REMARK    2  A    between atoms: O_1  and  C_26
REMARK    3  A    between atoms: O_2  and  C_13
REMARK    4  A    between atoms: O_2  and  C_28
REMARK    5  A    between atoms: O_3  and  C_14
REMARK    6  A    between atoms: O_4  and  C_20
REMARK    7  A    between atoms: O_7  and  C_29
REMARK    8  A    between atoms: C_11  and  C_16
REMARK    9  A    between atoms: C_11  and  C_17
REMARK   10  A    between atoms: C_15  and  C_21
REMARK   11  A    between atoms: C_22  and  C_29
REMARK   12  A    between atoms: C_26  and  C_30
REMARK   13  A    between atoms: C_27  and  C_31
REMARK   14  A    between atoms: C_28  and  C_32
REMARK   15  A    between atoms: C_32  and  C_33
REMARK   16  A    between atoms: C_33  and  C_34
REMARK   17  A    between atoms: C_34  and  C_35
REMARK   18  A    between atoms: C_35  and  C_36
REMARK   19  A    between atoms: C_36  and  C_37
REMARK   20  A    between atoms: C_37  and  C_38
REMARK   21  A    between atoms: C_38  and  C_39
REMARK   22  A    between atoms: C_39  and  C_40
REMARK   23  A    between atoms: C_40  and  C_41
REMARK   24  A    between atoms: C_41  and  C_42
REMARK   25  A    between atoms: C_42  and  C_43
REMARK   26  A    between atoms: C_43  and  C_44
REMARK                            x       y       z     vdW  Elec       q    Type
REMARK                         _______ _______ _______ _____ _____    ______ ____
ROOT
ATOM      1  O   UNL     1      14.170  -0.404 -26.173  0.00  0.00    +0.000 OA
ATOM      2  C   UNL     1       9.581   0.483 -20.833  0.00  0.00    +0.000 C 
ATOM      3  C   UNL     1       8.824  -0.711 -20.282  0.00  0.00    +0.000 C 
ATOM      4  C   UNL     1       8.103   0.364 -21.145  0.00  0.00    +0.000 C 
ATOM      5  C   UNL     1      10.787   0.293 -21.704  0.00  0.00    +0.000 C 
ATOM      6  C   UNL     1       9.233  -2.101 -20.802  0.00  0.00    +0.000 C 
ATOM      7  C   UNL     1      11.023  -1.143 -22.363  0.00  0.00    +0.000 C 
ATOM      8  C   UNL     1      10.756  -2.151 -21.176  0.00  0.00    +0.000 C 
ATOM      9  C   UNL     1       7.237   1.415 -20.471  0.00  0.00    +0.000 C 
ATOM     10  C   UNL     1       7.624   0.077 -22.547  0.00  0.00    +0.000 C 
ATOM     11  C   UNL     1      12.469  -1.152 -23.077  0.00  0.00    +0.000 C 
ATOM     12  C   UNL     1      11.022   1.441 -22.669  0.00  0.00    +0.000 C 
ATOM     13  C   UNL     1      12.611  -0.168 -24.321  0.00  0.00    +0.000 C 
ATOM     14  C   UNL     1      11.196  -3.596 -21.415  0.00  0.00    +0.000 C 
ATOM     15  C   UNL     1      12.303   1.843 -22.816  0.00  0.00    +0.000 C 
ATOM     16  C   UNL     1      13.054   1.279 -24.009  0.00  0.00    +0.000 C 
ATOM     17  C   UNL     1      12.996  -2.439 -23.698  0.00  0.00    +0.000 C 
ATOM     18  C   UNL     1      13.609  -0.888 -25.202  0.00  0.00    +0.000 C 
ATOM     19  C   UNL     1      13.691  -2.306 -24.835  0.00  0.00    +0.000 C 
ATOM     20  C   UNL     1      14.409  -3.310 -25.649  0.00  0.00    +0.000 C 
ENDROOT
BRANCH   7  21
ATOM     21  O   UNL     1      10.047  -1.443 -23.369  0.00  0.00    +0.000 OA
ATOM     22  H   UNL     1       9.455  -2.144 -23.015  0.00  0.00    +0.000 HD
ENDBRANCH   7  21
BRANCH  13  23
ATOM     23  O   UNL     1      11.406  -0.151 -25.124  0.00  0.00    +0.000 OA
ATOM     24  H   UNL     1      10.737   0.338 -24.600  0.00  0.00    +0.000 HD
ENDBRANCH  13  23
BRANCH   3  25
ATOM     25  O   UNL     1       8.745  -0.613 -18.836  0.00  0.00    +0.000 OA
BRANCH  25  27
ATOM     26  O   UNL     1      10.797  -0.715 -17.931  0.00  0.00    +0.000 OA
ATOM     27  C   UNL     1       9.725  -0.123 -18.036  0.00  0.00    +0.000 C 
ATOM     28  C   UNL     1       9.507   1.192 -17.350  0.00  0.00    +0.000 C 
ENDBRANCH  25  27
ENDBRANCH   3  25
BRANCH  15  29
ATOM     29  C   UNL     1      13.170   2.292 -21.669  0.00  0.00    +0.000 C 
BRANCH  29  30
ATOM     30  O   UNL     1      14.344   2.879 -22.204  0.00  0.00    +0.000 OA
ATOM     31  H   UNL     1      14.666   2.277 -22.899  0.00  0.00    +0.000 HD
ENDBRANCH  29  30
ENDBRANCH  15  29
BRANCH   6  32
ATOM     32  O   UNL     1       8.948  -3.071 -19.756  0.00  0.00    +0.000 OA
BRANCH  32  34
ATOM     33  O   UNL     1       7.957  -4.910 -18.958  0.00  0.00    +0.000 OA
ATOM     34  C   UNL     1       7.989  -4.023 -19.808  0.00  0.00    +0.000 C 
BRANCH  34  35
ATOM     35  C   UNL     1       6.965  -3.984 -20.915  0.00  0.00    +0.000 C 
BRANCH  35  36
ATOM     36  C   UNL     1       5.576  -3.647 -20.387  0.00  0.00    +0.000 C 
BRANCH  36  37
ATOM     37  C   UNL     1       5.225  -2.156 -20.449  0.00  0.00    +0.000 C 
BRANCH  37  38
ATOM     38  C   UNL     1       5.319  -1.426 -19.103  0.00  0.00    +0.000 C 
BRANCH  38  39
ATOM     39  C   UNL     1       4.511  -2.120 -18.001  0.00  0.00    +0.000 C 
BRANCH  39  40
ATOM     40  C   UNL     1       3.648  -1.159 -17.179  0.00  0.00    +0.000 C 
BRANCH  40  41
ATOM     41  C   UNL     1       2.917  -0.124 -18.037  0.00  0.00    +0.000 C 
BRANCH  41  42
ATOM     42  C   UNL     1       1.530  -0.585 -18.492  0.00  0.00    +0.000 C 
BRANCH  42  43
ATOM     43  C   UNL     1       1.391  -0.909 -19.982  0.00  0.00    +0.000 C 
BRANCH  43  44
ATOM     44  C   UNL     1       1.536  -2.388 -20.354  0.00  0.00    +0.000 C 
BRANCH  44  45
ATOM     45  C   UNL     1       1.472  -3.374 -19.183  0.00  0.00    +0.000 C 
BRANCH  45  46
ATOM     46  C   UNL     1       1.251  -4.840 -19.559  0.00  0.00    +0.000 C 
ATOM     47  C   UNL     1      -0.143  -5.347 -19.225  0.00  0.00    +0.000 C 
ENDBRANCH  45  46
ENDBRANCH  44  45
ENDBRANCH  43  44
ENDBRANCH  42  43
ENDBRANCH  41  42
ENDBRANCH  40  41
ENDBRANCH  39  40
ENDBRANCH  38  39
ENDBRANCH  37  38
ENDBRANCH  36  37
ENDBRANCH  35  36
ENDBRANCH  34  35
ENDBRANCH  32  34
ENDBRANCH   6  32
TORSDOF 20
ENDMDL
MODEL 3
REMARK VINA RESULT:      -4.7      3.426      7.799
REMARK  Name = 27924_Phorbol.pdbqt.pdb
REMARK  26 active torsions:
REMARK  status: ('A' for Active; 'I' for Inactive)
REMARK    1  A    between atoms: O_1  and  C_10
REMARK    2  A    between atoms: O_1  and  C_26
REMARK    3  A    between atoms: O_2  and  C_13
REMARK    4  A    between atoms: O_2  and  C_28
REMARK    5  A    between atoms: O_3  and  C_14
REMARK    6  A    between atoms: O_4  and  C_20
REMARK    7  A    between atoms: O_7  and  C_29
REMARK    8  A    between atoms: C_11  and  C_16
REMARK    9  A    between atoms: C_11  and  C_17
REMARK   10  A    between atoms: C_15  and  C_21
REMARK   11  A    between atoms: C_22  and  C_29
REMARK   12  A    between atoms: C_26  and  C_30
REMARK   13  A    between atoms: C_27  and  C_31
REMARK   14  A    between atoms: C_28  and  C_32
REMARK   15  A    between atoms: C_32  and  C_33
REMARK   16  A    between atoms: C_33  and  C_34
REMARK   17  A    between atoms: C_34  and  C_35
REMARK   18  A    between atoms: C_35  and  C_36
REMARK   19  A    between atoms: C_36  and  C_37
REMARK   20  A    between atoms: C_37  and  C_38
REMARK   21  A    between atoms: C_38  and  C_39
REMARK   22  A    between atoms: C_39  and  C_40
REMARK   23  A    between atoms: C_40  and  C_41
REMARK   24  A    between atoms: C_41  and  C_42
REMARK   25  A    between atoms: C_42  and  C_43
REMARK   26  A    between atoms: C_43  and  C_44
REMARK                            x       y       z     vdW  Elec       q    Type
REMARK                         _______ _______ _______ _____ _____    ______ ____
ROOT
ATOM      1  O   UNL     1      12.641   1.004 -26.285  0.00  0.00    +0.000 OA
ATOM      2  C   UNL     1       8.196   0.508 -20.775  0.00  0.00    +0.000 C 
ATOM      3  C   UNL     1       8.739   0.202 -19.392  0.00  0.00    +0.000 C 
ATOM      4  C   UNL     1       7.943  -0.868 -20.193  0.00  0.00    +0.000 C 
ATOM      5  C   UNL     1       9.108   0.956 -21.877  0.00  0.00    +0.000 C 
ATOM      6  C   UNL     1      10.270   0.192 -19.226  0.00  0.00    +0.000 C 
ATOM      7  C   UNL     1      10.678   0.724 -21.698  0.00  0.00    +0.000 C 
ATOM      8  C   UNL     1      10.963   1.193 -20.216  0.00  0.00    +0.000 C 
ATOM      9  C   UNL     1       6.489  -1.141 -19.847  0.00  0.00    +0.000 C 
ATOM     10  C   UNL     1       8.607  -2.092 -20.774  0.00  0.00    +0.000 C 
ATOM     11  C   UNL     1      11.451   1.461 -22.906  0.00  0.00    +0.000 C 
ATOM     12  C   UNL     1       8.604   0.596 -23.262  0.00  0.00    +0.000 C 
ATOM     13  C   UNL     1      11.170   0.857 -24.352  0.00  0.00    +0.000 C 
ATOM     14  C   UNL     1      12.434   1.374 -19.843  0.00  0.00    +0.000 C 
ATOM     15  C   UNL     1       8.740   1.546 -24.212  0.00  0.00    +0.000 C 
ATOM     16  C   UNL     1       9.955   1.429 -25.115  0.00  0.00    +0.000 C 
ATOM     17  C   UNL     1      12.974   1.489 -22.923  0.00  0.00    +0.000 C 
ATOM     18  C   UNL     1      12.471   1.120 -25.080  0.00  0.00    +0.000 C 
ATOM     19  C   UNL     1      13.555   1.375 -24.124  0.00  0.00    +0.000 C 
ATOM     20  C   UNL     1      14.978   1.446 -24.519  0.00  0.00    +0.000 C 
ENDROOT
BRANCH   7  21
ATOM     21  O   UNL     1      11.029  -0.665 -21.750  0.00  0.00    +0.000 OA
ATOM     22  H   UNL     1      11.814  -0.757 -22.335  0.00  0.00    +0.000 HD
ENDBRANCH   7  21
BRANCH  13  23
ATOM     23  O   UNL     1      11.093  -0.589 -24.317  0.00  0.00    +0.000 OA
ATOM     24  H   UNL     1      11.976  -0.915 -24.589  0.00  0.00    +0.000 HD
ENDBRANCH  13  23
BRANCH   3  25
ATOM     25  O   UNL     1       8.036   0.999 -18.404  0.00  0.00    +0.000 OA
BRANCH  25  27
ATOM     26  O   UNL     1       6.368   2.459 -18.765  0.00  0.00    +0.000 OA
ATOM     27  C   UNL     1       7.571   2.258 -18.609  0.00  0.00    +0.000 C 
ATOM     28  C   UNL     1       8.538   3.402 -18.560  0.00  0.00    +0.000 C 
ENDBRANCH  25  27
ENDBRANCH   3  25
BRANCH  15  29
ATOM     29  C   UNL     1       8.170   2.935 -24.086  0.00  0.00    +0.000 C 
BRANCH  29  30
ATOM     30  O   UNL     1       9.168   3.862 -24.479  0.00  0.00    +0.000 OA
ATOM     31  H   UNL     1       8.741   4.490 -25.089  0.00  0.00    +0.000 HD
ENDBRANCH  29  30
ENDBRANCH  15  29
BRANCH   6  32
ATOM     32  O   UNL     1      10.572   0.564 -17.853  0.00  0.00    +0.000 OA
BRANCH  32  34
ATOM     33  O   UNL     1      11.760   0.264 -15.982  0.00  0.00    +0.000 OA
ATOM     34  C   UNL     1      11.166  -0.233 -16.936  0.00  0.00    +0.000 C 
BRANCH  34  35
ATOM     35  C   UNL     1      11.092  -1.731 -17.097  0.00  0.00    +0.000 C 
BRANCH  35  36
ATOM     36  C   UNL     1      12.376  -2.298 -17.690  0.00  0.00    +0.000 C 
BRANCH  36  37
ATOM     37  C   UNL     1      12.224  -2.844 -19.114  0.00  0.00    +0.000 C 
BRANCH  37  38
ATOM     38  C   UNL     1      13.438  -2.600 -20.019  0.00  0.00    +0.000 C 
BRANCH  38  39
ATOM     39  C   UNL     1      13.305  -3.295 -21.379  0.00  0.00    +0.000 C 
BRANCH  39  40
ATOM     40  C   UNL     1      12.228  -4.383 -21.406  0.00  0.00    +0.000 C 
BRANCH  40  41
ATOM     41  C   UNL     1      12.798  -5.785 -21.642  0.00  0.00    +0.000 C 
BRANCH  41  42
ATOM     42  C   UNL     1      12.840  -6.642 -20.374  0.00  0.00    +0.000 C 
BRANCH  42  43
ATOM     43  C   UNL     1      14.067  -6.446 -19.478  0.00  0.00    +0.000 C 
BRANCH  43  44
ATOM     44  C   UNL     1      13.770  -6.052 -18.028  0.00  0.00    +0.000 C 
BRANCH  44  45
ATOM     45  C   UNL     1      14.984  -5.627 -17.196  0.00  0.00    +0.000 C 
BRANCH  45  46
ATOM     46  C   UNL     1      15.539  -4.233 -17.493  0.00  0.00    +0.000 C 
ATOM     47  C   UNL     1      16.871  -4.255 -18.226  0.00  0.00    +0.000 C 
ENDBRANCH  45  46
ENDBRANCH  44  45
ENDBRANCH  43  44
ENDBRANCH  42  43
ENDBRANCH  41  42
ENDBRANCH  40  41
ENDBRANCH  39  40
ENDBRANCH  38  39
ENDBRANCH  37  38
ENDBRANCH  36  37
ENDBRANCH  35  36
ENDBRANCH  34  35
ENDBRANCH  32  34
ENDBRANCH   6  32
TORSDOF 20
ENDMDL
MODEL 4
REMARK VINA RESULT:      -4.5     19.052     22.603
REMARK  Name = 27924_Phorbol.pdbqt.pdb
REMARK  26 active torsions:
REMARK  status: ('A' for Active; 'I' for Inactive)
REMARK    1  A    between atoms: O_1  and  C_10
REMARK    2  A    between atoms: O_1  and  C_26
REMARK    3  A    between atoms: O_2  and  C_13
REMARK    4  A    between atoms: O_2  and  C_28
REMARK    5  A    between atoms: O_3  and  C_14
REMARK    6  A    between atoms: O_4  and  C_20
REMARK    7  A    between atoms: O_7  and  C_29
REMARK    8  A    between atoms: C_11  and  C_16
REMARK    9  A    between atoms: C_11  and  C_17
REMARK   10  A    between atoms: C_15  and  C_21
REMARK   11  A    between atoms: C_22  and  C_29
REMARK   12  A    between atoms: C_26  and  C_30
REMARK   13  A    between atoms: C_27  and  C_31
REMARK   14  A    between atoms: C_28  and  C_32
REMARK   15  A    between atoms: C_32  and  C_33
REMARK   16  A    between atoms: C_33  and  C_34
REMARK   17  A    between atoms: C_34  and  C_35
REMARK   18  A    between atoms: C_35  and  C_36
REMARK   19  A    between atoms: C_36  and  C_37
REMARK   20  A    between atoms: C_37  and  C_38
REMARK   21  A    between atoms: C_38  and  C_39
REMARK   22  A    between atoms: C_39  and  C_40
REMARK   23  A    between atoms: C_40  and  C_41
REMARK   24  A    between atoms: C_41  and  C_42
REMARK   25  A    between atoms: C_42  and  C_43
REMARK   26  A    between atoms: C_43  and  C_44
REMARK                            x       y       z     vdW  Elec       q    Type
REMARK                         _______ _______ _______ _____ _____    ______ ____
ROOT
ATOM      1  O   UNL     1      -5.308  17.791 -22.739  0.00  0.00    +0.000 OA
ATOM      2  C   UNL     1      -4.906  15.559 -16.015  0.00  0.00    +0.000 C 
ATOM      3  C   UNL     1      -4.271  16.447 -14.962  0.00  0.00    +0.000 C 
ATOM      4  C   UNL     1      -3.541  15.174 -15.479  0.00  0.00    +0.000 C 
ATOM      5  C   UNL     1      -5.317  16.117 -17.345  0.00  0.00    +0.000 C 
ATOM      6  C   UNL     1      -3.903  17.882 -15.382  0.00  0.00    +0.000 C 
ATOM      7  C   UNL     1      -4.725  17.535 -17.783  0.00  0.00    +0.000 C 
ATOM      8  C   UNL     1      -4.876  18.425 -16.487  0.00  0.00    +0.000 C 
ATOM      9  C   UNL     1      -3.537  13.912 -14.634  0.00  0.00    +0.000 C 
ATOM     10  C   UNL     1      -2.312  15.253 -16.351  0.00  0.00    +0.000 C 
ATOM     11  C   UNL     1      -5.462  18.006 -19.138  0.00  0.00    +0.000 C 
ATOM     12  C   UNL     1      -5.302  15.090 -18.462  0.00  0.00    +0.000 C 
ATOM     13  C   UNL     1      -5.173  17.095 -20.412  0.00  0.00    +0.000 C 
ATOM     14  C   UNL     1      -4.673  19.928 -16.681  0.00  0.00    +0.000 C 
ATOM     15  C   UNL     1      -6.340  15.132 -19.324  0.00  0.00    +0.000 C 
ATOM     16  C   UNL     1      -6.110  15.885 -20.622  0.00  0.00    +0.000 C 
ATOM     17  C   UNL     1      -5.161  19.380 -19.722  0.00  0.00    +0.000 C 
ATOM     18  C   UNL     1      -5.262  18.085 -21.554  0.00  0.00    +0.000 C 
ATOM     19  C   UNL     1      -5.119  19.459 -21.059  0.00  0.00    +0.000 C 
ATOM     20  C   UNL     1      -4.944  20.624 -21.951  0.00  0.00    +0.000 C 
ENDROOT
BRANCH   7  21
ATOM     21  O   UNL     1      -3.320  17.471 -18.060  0.00  0.00    +0.000 OA
ATOM     22  H   UNL     1      -3.052  18.328 -18.462  0.00  0.00    +0.000 HD
ENDBRANCH   7  21
BRANCH  13  23
ATOM     23  O   UNL     1      -3.792  16.661 -20.452  0.00  0.00    +0.000 OA
ATOM     24  H   UNL     1      -3.728  15.903 -19.835  0.00  0.00    +0.000 HD
ENDBRANCH  13  23
BRANCH   3  25
ATOM     25  O   UNL     1      -5.032  16.362 -13.729  0.00  0.00    +0.000 OA
BRANCH  25  27
ATOM     26  O   UNL     1      -6.972  15.243 -13.570  0.00  0.00    +0.000 OA
ATOM     27  C   UNL     1      -6.386  16.321 -13.653  0.00  0.00    +0.000 C 
ATOM     28  C   UNL     1      -7.146  17.612 -13.591  0.00  0.00    +0.000 C 
ENDBRANCH  25  27
ENDBRANCH   3  25
BRANCH  15  29
ATOM     29  C   UNL     1      -7.780  15.023 -18.896  0.00  0.00    +0.000 C 
BRANCH  29  30
ATOM     30  O   UNL     1      -8.550  14.639 -20.022  0.00  0.00    +0.000 OA
ATOM     31  H   UNL     1      -8.188  13.789 -20.332  0.00  0.00    +0.000 HD
ENDBRANCH  29  30
ENDBRANCH  15  29
BRANCH   6  32
ATOM     32  O   UNL     1      -3.976  18.726 -14.200  0.00  0.00    +0.000 OA
BRANCH  32  34
ATOM     33  O   UNL     1      -3.199  19.303 -12.184  0.00  0.00    +0.000 OA
ATOM     34  C   UNL     1      -2.959  18.961 -13.339  0.00  0.00    +0.000 C 
BRANCH  34  35
ATOM     35  C   UNL     1      -1.536  18.797 -13.811  0.00  0.00    +0.000 C 
BRANCH  35  36
ATOM     36  C   UNL     1      -0.986  20.091 -14.401  0.00  0.00    +0.000 C 
BRANCH  36  37
ATOM     37  C   UNL     1      -0.326  21.018 -13.375  0.00  0.00    +0.000 C 
BRANCH  37  38
ATOM     38  C   UNL     1       1.084  21.487 -13.760  0.00  0.00    +0.000 C 
BRANCH  38  39
ATOM     39  C   UNL     1       1.727  20.596 -14.828  0.00  0.00    +0.000 C 
BRANCH  39  40
ATOM     40  C   UNL     1       3.238  20.805 -14.969  0.00  0.00    +0.000 C 
BRANCH  40  41
ATOM     41  C   UNL     1       3.807  20.212 -16.260  0.00  0.00    +0.000 C 
BRANCH  41  42
ATOM     42  C   UNL     1       4.563  18.898 -16.042  0.00  0.00    +0.000 C 
BRANCH  42  43
ATOM     43  C   UNL     1       3.696  17.675 -15.730  0.00  0.00    +0.000 C 
BRANCH  43  44
ATOM     44  C   UNL     1       2.673  17.297 -16.805  0.00  0.00    +0.000 C 
BRANCH  44  45
ATOM     45  C   UNL     1       1.204  17.389 -16.382  0.00  0.00    +0.000 C 
BRANCH  45  46
ATOM     46  C   UNL     1       0.218  17.787 -17.483  0.00  0.00    +0.000 C 
ATOM     47  C   UNL     1       0.335  19.244 -17.902  0.00  0.00    +0.000 C 
ENDBRANCH  45  46
ENDBRANCH  44  45
ENDBRANCH  43  44
ENDBRANCH  42  43
ENDBRANCH  41  42
ENDBRANCH  40  41
ENDBRANCH  39  40
ENDBRANCH  38  39
ENDBRANCH  37  38
ENDBRANCH  36  37
ENDBRANCH  35  36
ENDBRANCH  34  35
ENDBRANCH  32  34
ENDBRANCH   6  32
TORSDOF 20
ENDMDL
MODEL 5
REMARK VINA RESULT:      -4.3     17.346     21.049
REMARK  Name = 27924_Phorbol.pdbqt.pdb
REMARK  26 active torsions:
REMARK  status: ('A' for Active; 'I' for Inactive)
REMARK    1  A    between atoms: O_1  and  C_10
REMARK    2  A    between atoms: O_1  and  C_26
REMARK    3  A    between atoms: O_2  and  C_13
REMARK    4  A    between atoms: O_2  and  C_28
REMARK    5  A    between atoms: O_3  and  C_14
REMARK    6  A    between atoms: O_4  and  C_20
REMARK    7  A    between atoms: O_7  and  C_29
REMARK    8  A    between atoms: C_11  and  C_16
REMARK    9  A    between atoms: C_11  and  C_17
REMARK   10  A    between atoms: C_15  and  C_21
REMARK   11  A    between atoms: C_22  and  C_29
REMARK   12  A    between atoms: C_26  and  C_30
REMARK   13  A    between atoms: C_27  and  C_31
REMARK   14  A    between atoms: C_28  and  C_32
REMARK   15  A    between atoms: C_32  and  C_33
REMARK   16  A    between atoms: C_33  and  C_34
REMARK   17  A    between atoms: C_34  and  C_35
REMARK   18  A    between atoms: C_35  and  C_36
REMARK   19  A    between atoms: C_36  and  C_37
REMARK   20  A    between atoms: C_37  and  C_38
REMARK   21  A    between atoms: C_38  and  C_39
REMARK   22  A    between atoms: C_39  and  C_40
REMARK   23  A    between atoms: C_40  and  C_41
REMARK   24  A    between atoms: C_41  and  C_42
REMARK   25  A    between atoms: C_42  and  C_43
REMARK   26  A    between atoms: C_43  and  C_44
REMARK                            x       y       z     vdW  Elec       q    Type
REMARK                         _______ _______ _______ _____ _____    ______ ____
ROOT
ATOM      1  O   UNL     1      -7.089  16.845 -22.714  0.00  0.00    +0.000 OA
ATOM      2  C   UNL     1      -4.488  15.919 -16.177  0.00  0.00    +0.000 C 
ATOM      3  C   UNL     1      -3.117  16.466 -15.825  0.00  0.00    +0.000 C 
ATOM      4  C   UNL     1      -3.345  14.937 -16.003  0.00  0.00    +0.000 C 
ATOM      5  C   UNL     1      -5.207  16.381 -17.409  0.00  0.00    +0.000 C 
ATOM      6  C   UNL     1      -2.430  17.363 -16.872  0.00  0.00    +0.000 C 
ATOM      7  C   UNL     1      -4.363  17.136 -18.536  0.00  0.00    +0.000 C 
ATOM      8  C   UNL     1      -3.478  18.161 -17.723  0.00  0.00    +0.000 C 
ATOM      9  C   UNL     1      -3.470  14.046 -14.779  0.00  0.00    +0.000 C 
ATOM     10  C   UNL     1      -2.789  14.176 -17.181  0.00  0.00    +0.000 C 
ATOM     11  C   UNL     1      -5.382  17.704 -19.650  0.00  0.00    +0.000 C 
ATOM     12  C   UNL     1      -6.168  15.350 -17.969  0.00  0.00    +0.000 C 
ATOM     13  C   UNL     1      -6.160  16.589 -20.481  0.00  0.00    +0.000 C 
ATOM     14  C   UNL     1      -2.779  19.241 -18.548  0.00  0.00    +0.000 C 
ATOM     15  C   UNL     1      -7.363  15.816 -18.393  0.00  0.00    +0.000 C 
ATOM     16  C   UNL     1      -7.492  16.087 -19.882  0.00  0.00    +0.000 C 
ATOM     17  C   UNL     1      -4.850  18.560 -20.792  0.00  0.00    +0.000 C 
ATOM     18  C   UNL     1      -6.358  17.256 -21.825  0.00  0.00    +0.000 C 
ATOM     19  C   UNL     1      -5.428  18.379 -21.986  0.00  0.00    +0.000 C 
ATOM     20  C   UNL     1      -5.230  19.084 -23.271  0.00  0.00    +0.000 C 
ENDROOT
BRANCH   7  21
ATOM     21  O   UNL     1      -3.446  16.258 -19.202  0.00  0.00    +0.000 OA
ATOM     22  H   UNL     1      -3.258  15.505 -18.600  0.00  0.00    +0.000 HD
ENDBRANCH   7  21
BRANCH  13  23
ATOM     23  O   UNL     1      -5.303  15.463 -20.789  0.00  0.00    +0.000 OA
ATOM     24  H   UNL     1      -4.893  15.193 -19.940  0.00  0.00    +0.000 HD
ENDBRANCH  13  23
BRANCH   3  25
ATOM     25  O   UNL     1      -3.143  17.023 -14.485  0.00  0.00    +0.000 OA
BRANCH  25  27
ATOM     26  O   UNL     1      -4.056  19.059 -14.228  0.00  0.00    +0.000 OA
ATOM     27  C   UNL     1      -4.107  17.851 -14.007  0.00  0.00    +0.000 C 
ATOM     28  C   UNL     1      -5.273  17.254 -13.278  0.00  0.00    +0.000 C 
ENDBRANCH  25  27
ENDBRANCH   3  25
BRANCH  15  29
ATOM     29  C   UNL     1      -8.307  16.597 -17.517  0.00  0.00    +0.000 C 
BRANCH  29  30
ATOM     30  O   UNL     1      -9.623  16.127 -17.756  0.00  0.00    +0.000 OA
ATOM     31  H   UNL     1     -10.176  16.463 -17.028  0.00  0.00    +0.000 HD
ENDBRANCH  29  30
ENDBRANCH  15  29
BRANCH   6  32
ATOM     32  O   UNL     1      -1.558  18.287 -16.165  0.00  0.00    +0.000 OA
BRANCH  32  34
ATOM     33  O   UNL     1       0.433  19.127 -15.590  0.00  0.00    +0.000 OA
ATOM     34  C   UNL     1      -0.206  18.254 -16.172  0.00  0.00    +0.000 C 
BRANCH  34  35
ATOM     35  C   UNL     1       0.503  17.139 -16.900  0.00  0.00    +0.000 C 
BRANCH  35  36
ATOM     36  C   UNL     1       2.017  17.257 -16.773  0.00  0.00    +0.000 C 
BRANCH  36  37
ATOM     37  C   UNL     1       2.762  17.266 -18.112  0.00  0.00    +0.000 C 
BRANCH  37  38
ATOM     38  C   UNL     1       2.025  17.997 -19.243  0.00  0.00    +0.000 C 
BRANCH  38  39
ATOM     39  C   UNL     1       1.995  17.187 -20.543  0.00  0.00    +0.000 C 
BRANCH  39  40
ATOM     40  C   UNL     1       1.472  15.760 -20.363  0.00  0.00    +0.000 C 
BRANCH  40  41
ATOM     41  C   UNL     1      -0.052  15.690 -20.244  0.00  0.00    +0.000 C 
BRANCH  41  42
ATOM     42  C   UNL     1      -0.608  14.271 -20.396  0.00  0.00    +0.000 C 
BRANCH  42  43
ATOM     43  C   UNL     1      -0.433  13.631 -21.776  0.00  0.00    +0.000 C 
BRANCH  43  44
ATOM     44  C   UNL     1      -0.060  12.146 -21.774  0.00  0.00    +0.000 C 
BRANCH  44  45
ATOM     45  C   UNL     1       0.403  11.578 -23.119  0.00  0.00    +0.000 C 
BRANCH  45  46
ATOM     46  C   UNL     1      -0.435  11.981 -24.335  0.00  0.00    +0.000 C 
ATOM     47  C   UNL     1       0.012  11.312 -25.626  0.00  0.00    +0.000 C 
ENDBRANCH  45  46
ENDBRANCH  44  45
ENDBRANCH  43  44
ENDBRANCH  42  43
ENDBRANCH  41  42
ENDBRANCH  40  41
ENDBRANCH  39  40
ENDBRANCH  38  39
ENDBRANCH  37  38
ENDBRANCH  36  37
ENDBRANCH  35  36
ENDBRANCH  34  35
ENDBRANCH  32  34
ENDBRANCH   6  32
TORSDOF 20
ENDMDL
MODEL 6
REMARK VINA RESULT:      -4.2      2.620      5.165
REMARK  Name = 27924_Phorbol.pdbqt.pdb
REMARK  26 active torsions:
REMARK  status: ('A' for Active; 'I' for Inactive)
REMARK    1  A    between atoms: O_1  and  C_10
REMARK    2  A    between atoms: O_1  and  C_26
REMARK    3  A    between atoms: O_2  and  C_13
REMARK    4  A    between atoms: O_2  and  C_28
REMARK    5  A    between atoms: O_3  and  C_14
REMARK    6  A    between atoms: O_4  and  C_20
REMARK    7  A    between atoms: O_7  and  C_29
REMARK    8  A    between atoms: C_11  and  C_16
REMARK    9  A    between atoms: C_11  and  C_17
REMARK   10  A    between atoms: C_15  and  C_21
REMARK   11  A    between atoms: C_22  and  C_29
REMARK   12  A    between atoms: C_26  and  C_30
REMARK   13  A    between atoms: C_27  and  C_31
REMARK   14  A    between atoms: C_28  and  C_32
REMARK   15  A    between atoms: C_32  and  C_33
REMARK   16  A    between atoms: C_33  and  C_34
REMARK   17  A    between atoms: C_34  and  C_35
REMARK   18  A    between atoms: C_35  and  C_36
REMARK   19  A    between atoms: C_36  and  C_37
REMARK   20  A    between atoms: C_37  and  C_38
REMARK   21  A    between atoms: C_38  and  C_39
REMARK   22  A    between atoms: C_39  and  C_40
REMARK   23  A    between atoms: C_40  and  C_41
REMARK   24  A    between atoms: C_41  and  C_42
REMARK   25  A    between atoms: C_42  and  C_43
REMARK   26  A    between atoms: C_43  and  C_44
REMARK                            x       y       z     vdW  Elec       q    Type
REMARK                         _______ _______ _______ _____ _____    ______ ____
ROOT
ATOM      1  O   UNL     1      14.520   0.491 -25.785  0.00  0.00    +0.000 OA
ATOM      2  C   UNL     1      10.008   0.768 -20.315  0.00  0.00    +0.000 C 
ATOM      3  C   UNL     1       9.169  -0.447 -19.966  0.00  0.00    +0.000 C 
ATOM      4  C   UNL     1       8.524   0.807 -20.624  0.00  0.00    +0.000 C 
ATOM      5  C   UNL     1      11.196   0.647 -21.221  0.00  0.00    +0.000 C 
ATOM      6  C   UNL     1       9.478  -1.754 -20.720  0.00  0.00    +0.000 C 
ATOM      7  C   UNL     1      11.331  -0.669 -22.117  0.00  0.00    +0.000 C 
ATOM      8  C   UNL     1      10.994  -1.844 -21.117  0.00  0.00    +0.000 C 
ATOM      9  C   UNL     1       7.734   1.784 -19.770  0.00  0.00    +0.000 C 
ATOM     10  C   UNL     1       8.026   0.797 -22.048  0.00  0.00    +0.000 C 
ATOM     11  C   UNL     1      12.772  -0.656 -22.840  0.00  0.00    +0.000 C 
ATOM     12  C   UNL     1      11.511   1.923 -21.978  0.00  0.00    +0.000 C 
ATOM     13  C   UNL     1      12.982   0.514 -23.900  0.00  0.00    +0.000 C 
ATOM     14  C   UNL     1      11.331  -3.253 -21.604  0.00  0.00    +0.000 C 
ATOM     15  C   UNL     1      12.817   2.255 -22.071  0.00  0.00    +0.000 C 
ATOM     16  C   UNL     1      13.526   1.852 -23.352  0.00  0.00    +0.000 C 
ATOM     17  C   UNL     1      13.207  -1.851 -23.678  0.00  0.00    +0.000 C 
ATOM     18  C   UNL     1      13.926  -0.113 -24.904  0.00  0.00    +0.000 C 
ATOM     19  C   UNL     1      13.909  -1.575 -24.785  0.00  0.00    +0.000 C 
ATOM     20  C   UNL     1      14.554  -2.472 -25.767  0.00  0.00    +0.000 C 
ENDROOT
BRANCH   7  21
ATOM     21  O   UNL     1      10.335  -0.724 -23.147  0.00  0.00    +0.000 OA
ATOM     22  H   UNL     1       9.536  -1.155 -22.771  0.00  0.00    +0.000 HD
ENDBRANCH   7  21
BRANCH  13  23
ATOM     23  O   UNL     1      11.781   0.752 -24.674  0.00  0.00    +0.000 OA
ATOM     24  H   UNL     1      11.832   1.683 -24.975  0.00  0.00    +0.000 HD
ENDBRANCH  13  23
BRANCH   3  25
ATOM     25  O   UNL     1       9.097  -0.592 -18.524  0.00  0.00    +0.000 OA
BRANCH  25  27
ATOM     26  O   UNL     1      10.023   0.780 -17.007  0.00  0.00    +0.000 OA
ATOM     27  C   UNL     1      10.089  -0.260 -17.659  0.00  0.00    +0.000 C 
ATOM     28  C   UNL     1      11.220  -1.222 -17.455  0.00  0.00    +0.000 C 
ENDBRANCH  25  27
ENDBRANCH   3  25
BRANCH  15  29
ATOM     29  C   UNL     1      13.714   2.440 -20.876  0.00  0.00    +0.000 C 
BRANCH  29  30
ATOM     30  O   UNL     1      14.729   1.452 -20.926  0.00  0.00    +0.000 OA
ATOM     31  H   UNL     1      14.285   0.590 -20.835  0.00  0.00    +0.000 HD
ENDBRANCH  29  30
ENDBRANCH  15  29
BRANCH   6  32
ATOM     32  O   UNL     1       9.126  -2.865 -19.851  0.00  0.00    +0.000 OA
BRANCH  32  34
ATOM     33  O   UNL     1       7.977  -4.736 -19.424  0.00  0.00    +0.000 OA
ATOM     34  C   UNL     1       8.021  -3.635 -19.969  0.00  0.00    +0.000 C 
BRANCH  34  35
ATOM     35  C   UNL     1       6.849  -3.130 -20.773  0.00  0.00    +0.000 C 
BRANCH  35  36
ATOM     36  C   UNL     1       5.525  -3.659 -20.233  0.00  0.00    +0.000 C 
BRANCH  36  37
ATOM     37  C   UNL     1       4.448  -2.584 -20.048  0.00  0.00    +0.000 C 
BRANCH  37  38
ATOM     38  C   UNL     1       4.797  -1.508 -19.010  0.00  0.00    +0.000 C 
BRANCH  38  39
ATOM     39  C   UNL     1       4.013  -1.677 -17.705  0.00  0.00    +0.000 C 
BRANCH  39  40
ATOM     40  C   UNL     1       3.360  -0.382 -17.213  0.00  0.00    +0.000 C 
BRANCH  40  41
ATOM     41  C   UNL     1       3.265   0.692 -18.299  0.00  0.00    +0.000 C 
BRANCH  41  42
ATOM     42  C   UNL     1       2.023   0.551 -19.184  0.00  0.00    +0.000 C 
BRANCH  42  43
ATOM     43  C   UNL     1       2.157   1.089 -20.612  0.00  0.00    +0.000 C 
BRANCH  43  44
ATOM     44  C   UNL     1       0.978   1.926 -21.116  0.00  0.00    +0.000 C 
BRANCH  44  45
ATOM     45  C   UNL     1       0.871   3.338 -20.533  0.00  0.00    +0.000 C 
BRANCH  45  46
ATOM     46  C   UNL     1      -0.463   3.685 -19.869  0.00  0.00    +0.000 C 
ATOM     47  C   UNL     1      -1.488   2.565 -19.947  0.00  0.00    +0.000 C 
ENDBRANCH  45  46
ENDBRANCH  44  45
ENDBRANCH  43  44
ENDBRANCH  42  43
ENDBRANCH  41  42
ENDBRANCH  40  41
ENDBRANCH  39  40
ENDBRANCH  38  39
ENDBRANCH  37  38
ENDBRANCH  36  37
ENDBRANCH  35  36
ENDBRANCH  34  35
ENDBRANCH  32  34
ENDBRANCH   6  32
TORSDOF 20
ENDMDL
MODEL 7
REMARK VINA RESULT:      -4.1      3.395      8.316
REMARK  Name = 27924_Phorbol.pdbqt.pdb
REMARK  26 active torsions:
REMARK  status: ('A' for Active; 'I' for Inactive)
REMARK    1  A    between atoms: O_1  and  C_10
REMARK    2  A    between atoms: O_1  and  C_26
REMARK    3  A    between atoms: O_2  and  C_13
REMARK    4  A    between atoms: O_2  and  C_28
REMARK    5  A    between atoms: O_3  and  C_14
REMARK    6  A    between atoms: O_4  and  C_20
REMARK    7  A    between atoms: O_7  and  C_29
REMARK    8  A    between atoms: C_11  and  C_16
REMARK    9  A    between atoms: C_11  and  C_17
REMARK   10  A    between atoms: C_15  and  C_21
REMARK   11  A    between atoms: C_22  and  C_29
REMARK   12  A    between atoms: C_26  and  C_30
REMARK   13  A    between atoms: C_27  and  C_31
REMARK   14  A    between atoms: C_28  and  C_32
REMARK   15  A    between atoms: C_32  and  C_33
REMARK   16  A    between atoms: C_33  and  C_34
REMARK   17  A    between atoms: C_34  and  C_35
REMARK   18  A    between atoms: C_35  and  C_36
REMARK   19  A    between atoms: C_36  and  C_37
REMARK   20  A    between atoms: C_37  and  C_38
REMARK   21  A    between atoms: C_38  and  C_39
REMARK   22  A    between atoms: C_39  and  C_40
REMARK   23  A    between atoms: C_40  and  C_41
REMARK   24  A    between atoms: C_41  and  C_42
REMARK   25  A    between atoms: C_42  and  C_43
REMARK   26  A    between atoms: C_43  and  C_44
REMARK                            x       y       z     vdW  Elec       q    Type
REMARK                         _______ _______ _______ _____ _____    ______ ____
ROOT
ATOM      1  O   UNL     1      11.932  -0.035 -26.428  0.00  0.00    +0.000 OA
ATOM      2  C   UNL     1       7.818   0.349 -20.658  0.00  0.00    +0.000 C 
ATOM      3  C   UNL     1       8.420   0.114 -19.285  0.00  0.00    +0.000 C 
ATOM      4  C   UNL     1       7.486  -0.944 -19.939  0.00  0.00    +0.000 C 
ATOM      5  C   UNL     1       8.694   0.616 -21.845  0.00  0.00    +0.000 C 
ATOM      6  C   UNL     1       9.952  -0.020 -19.203  0.00  0.00    +0.000 C 
ATOM      7  C   UNL     1      10.247   0.258 -21.732  0.00  0.00    +0.000 C 
ATOM      8  C   UNL     1      10.664   0.825 -20.317  0.00  0.00    +0.000 C 
ATOM      9  C   UNL     1       6.039  -1.053 -19.490  0.00  0.00    +0.000 C 
ATOM     10  C   UNL     1       8.005  -2.268 -20.442  0.00  0.00    +0.000 C 
ATOM     11  C   UNL     1      11.002   0.816 -23.043  0.00  0.00    +0.000 C 
ATOM     12  C   UNL     1       8.075   0.186 -23.161  0.00  0.00    +0.000 C 
ATOM     13  C   UNL     1      10.580   0.118 -24.411  0.00  0.00    +0.000 C 
ATOM     14  C   UNL     1      12.166   0.903 -20.045  0.00  0.00    +0.000 C 
ATOM     15  C   UNL     1       8.231   1.035 -24.200  0.00  0.00    +0.000 C 
ATOM     16  C   UNL     1       9.372   0.731 -25.154  0.00  0.00    +0.000 C 
ATOM     17  C   UNL     1      12.518   0.703 -23.147  0.00  0.00    +0.000 C 
ATOM     18  C   UNL     1      11.849   0.199 -25.231  0.00  0.00    +0.000 C 
ATOM     19  C   UNL     1      13.009   0.435 -24.364  0.00  0.00    +0.000 C 
ATOM     20  C   UNL     1      14.405   0.343 -24.841  0.00  0.00    +0.000 C 
ENDROOT
BRANCH   7  21
ATOM     21  O   UNL     1      10.473  -1.156 -21.677  0.00  0.00    +0.000 OA
ATOM     22  H   UNL     1      11.024  -1.404 -22.453  0.00  0.00    +0.000 HD
ENDBRANCH   7  21
BRANCH  13  23
ATOM     23  O   UNL     1      10.381  -1.306 -24.240  0.00  0.00    +0.000 OA
ATOM     24  H   UNL     1      10.342  -1.685 -25.143  0.00  0.00    +0.000 HD
ENDBRANCH  13  23
BRANCH   3  25
ATOM     25  O   UNL     1       7.851   1.054 -18.336  0.00  0.00    +0.000 OA
BRANCH  25  27
ATOM     26  O   UNL     1       6.346   2.635 -18.861  0.00  0.00    +0.000 OA
ATOM     27  C   UNL     1       7.514   2.337 -18.621  0.00  0.00    +0.000 C 
ATOM     28  C   UNL     1       8.575   3.394 -18.555  0.00  0.00    +0.000 C 
ENDBRANCH  25  27
ENDBRANCH   3  25
BRANCH  15  29
ATOM     29  C   UNL     1       7.791   2.475 -24.169  0.00  0.00    +0.000 C 
BRANCH  29  30
ATOM     30  O   UNL     1       6.429   2.514 -23.775  0.00  0.00    +0.000 OA
ATOM     31  H   UNL     1       6.343   3.249 -23.141  0.00  0.00    +0.000 HD
ENDBRANCH  29  30
ENDBRANCH  15  29
BRANCH   6  32
ATOM     32  O   UNL     1      10.371   0.439 -17.889  0.00  0.00    +0.000 OA
BRANCH  32  34
ATOM     33  O   UNL     1      10.927   0.120 -15.746  0.00  0.00    +0.000 OA
ATOM     34  C   UNL     1      10.765  -0.356 -16.868  0.00  0.00    +0.000 C 
BRANCH  34  35
ATOM     35  C   UNL     1      11.001  -1.824 -17.121  0.00  0.00    +0.000 C 
BRANCH  35  36
ATOM     36  C   UNL     1      12.435  -2.097 -17.559  0.00  0.00    +0.000 C 
BRANCH  36  37
ATOM     37  C   UNL     1      12.575  -3.241 -18.570  0.00  0.00    +0.000 C 
BRANCH  37  38
ATOM     38  C   UNL     1      14.008  -3.474 -19.067  0.00  0.00    +0.000 C 
BRANCH  38  39
ATOM     39  C   UNL     1      14.170  -4.823 -19.777  0.00  0.00    +0.000 C 
BRANCH  39  40
ATOM     40  C   UNL     1      15.625  -5.175 -20.096  0.00  0.00    +0.000 C 
BRANCH  40  41
ATOM     41  C   UNL     1      16.632  -4.373 -19.269  0.00  0.00    +0.000 C 
BRANCH  41  42
ATOM     42  C   UNL     1      17.687  -3.662 -20.121  0.00  0.00    +0.000 C 
BRANCH  42  43
ATOM     43  C   UNL     1      17.333  -3.475 -21.600  0.00  0.00    +0.000 C 
BRANCH  43  44
ATOM     44  C   UNL     1      16.848  -2.076 -21.992  0.00  0.00    +0.000 C 
BRANCH  44  45
ATOM     45  C   UNL     1      15.332  -1.919 -22.137  0.00  0.00    +0.000 C 
BRANCH  45  46
ATOM     46  C   UNL     1      14.638  -2.947 -23.034  0.00  0.00    +0.000 C 
ATOM     47  C   UNL     1      13.134  -3.015 -22.826  0.00  0.00    +0.000 C 
ENDBRANCH  45  46
ENDBRANCH  44  45
ENDBRANCH  43  44
ENDBRANCH  42  43
ENDBRANCH  41  42
ENDBRANCH  40  41
ENDBRANCH  39  40
ENDBRANCH  38  39
ENDBRANCH  37  38
ENDBRANCH  36  37
ENDBRANCH  35  36
ENDBRANCH  34  35
ENDBRANCH  32  34
ENDBRANCH   6  32
TORSDOF 20
ENDMDL
MODEL 8
REMARK VINA RESULT:      -4.1     17.027     20.930
REMARK  Name = 27924_Phorbol.pdbqt.pdb
REMARK  26 active torsions:
REMARK  status: ('A' for Active; 'I' for Inactive)
REMARK    1  A    between atoms: O_1  and  C_10
REMARK    2  A    between atoms: O_1  and  C_26
REMARK    3  A    between atoms: O_2  and  C_13
REMARK    4  A    between atoms: O_2  and  C_28
REMARK    5  A    between atoms: O_3  and  C_14
REMARK    6  A    between atoms: O_4  and  C_20
REMARK    7  A    between atoms: O_7  and  C_29
REMARK    8  A    between atoms: C_11  and  C_16
REMARK    9  A    between atoms: C_11  and  C_17
REMARK   10  A    between atoms: C_15  and  C_21
REMARK   11  A    between atoms: C_22  and  C_29
REMARK   12  A    between atoms: C_26  and  C_30
REMARK   13  A    between atoms: C_27  and  C_31
REMARK   14  A    between atoms: C_28  and  C_32
REMARK   15  A    between atoms: C_32  and  C_33
REMARK   16  A    between atoms: C_33  and  C_34
REMARK   17  A    between atoms: C_34  and  C_35
REMARK   18  A    between atoms: C_35  and  C_36
REMARK   19  A    between atoms: C_36  and  C_37
REMARK   20  A    between atoms: C_37  and  C_38
REMARK   21  A    between atoms: C_38  and  C_39
REMARK   22  A    between atoms: C_39  and  C_40
REMARK   23  A    between atoms: C_40  and  C_41
REMARK   24  A    between atoms: C_41  and  C_42
REMARK   25  A    between atoms: C_42  and  C_43
REMARK   26  A    between atoms: C_43  and  C_44
REMARK                            x       y       z     vdW  Elec       q    Type
REMARK                         _______ _______ _______ _____ _____    ______ ____
ROOT
ATOM      1  O   UNL     1      -8.889  16.231 -22.668  0.00  0.00    +0.000 OA
ATOM      2  C   UNL     1      -4.378  16.000 -17.194  0.00  0.00    +0.000 C 
ATOM      3  C   UNL     1      -2.937  16.435 -17.384  0.00  0.00    +0.000 C 
ATOM      4  C   UNL     1      -3.302  14.933 -17.210  0.00  0.00    +0.000 C 
ATOM      5  C   UNL     1      -5.427  16.352 -18.206  0.00  0.00    +0.000 C 
ATOM      6  C   UNL     1      -2.572  17.083 -18.732  0.00  0.00    +0.000 C 
ATOM      7  C   UNL     1      -4.949  16.831 -19.653  0.00  0.00    +0.000 C 
ATOM      8  C   UNL     1      -3.790  17.859 -19.346  0.00  0.00    +0.000 C 
ATOM      9  C   UNL     1      -3.077  14.253 -15.870  0.00  0.00    +0.000 C 
ATOM     10  C   UNL     1      -3.201  13.947 -18.348  0.00  0.00    +0.000 C 
ATOM     11  C   UNL     1      -6.236  17.338 -20.480  0.00  0.00    +0.000 C 
ATOM     12  C   UNL     1      -6.578  15.364 -18.252  0.00  0.00    +0.000 C 
ATOM     13  C   UNL     1      -7.306  16.208 -20.821  0.00  0.00    +0.000 C 
ATOM     14  C   UNL     1      -3.331  18.719 -20.524  0.00  0.00    +0.000 C 
ATOM     15  C   UNL     1      -7.815  15.894 -18.362  0.00  0.00    +0.000 C 
ATOM     16  C   UNL     1      -8.401  15.953 -19.762  0.00  0.00    +0.000 C 
ATOM     17  C   UNL     1      -6.052  17.950 -21.863  0.00  0.00    +0.000 C 
ATOM     18  C   UNL     1      -7.887  16.685 -22.134  0.00  0.00    +0.000 C 
ATOM     19  C   UNL     1      -6.994  17.660 -22.770  0.00  0.00    +0.000 C 
ATOM     20  C   UNL     1      -7.179  18.139 -24.156  0.00  0.00    +0.000 C 
ENDROOT
BRANCH   7  21
ATOM     21  O   UNL     1      -4.349  15.767 -20.403  0.00  0.00    +0.000 OA
ATOM     22  H   UNL     1      -4.206  16.088 -21.321  0.00  0.00    +0.000 HD
ENDBRANCH   7  21
BRANCH  13  23
ATOM     23  O   UNL     1      -6.663  14.959 -21.174  0.00  0.00    +0.000 OA
ATOM     24  H   UNL     1      -6.742  14.878 -22.147  0.00  0.00    +0.000 HD
ENDBRANCH  13  23
BRANCH   3  25
ATOM     25  O   UNL     1      -2.497  17.185 -16.222  0.00  0.00    +0.000 OA
BRANCH  25  27
ATOM     26  O   UNL     1      -3.721  19.053 -15.988  0.00  0.00    +0.000 OA
ATOM     27  C   UNL     1      -3.281  18.018 -15.492  0.00  0.00    +0.000 C 
ATOM     28  C   UNL     1      -3.667  17.611 -14.101  0.00  0.00    +0.000 C 
ENDBRANCH  25  27
ENDBRANCH   3  25
BRANCH  15  29
ATOM     29  C   UNL     1      -8.378  16.897 -17.391  0.00  0.00    +0.000 C 
BRANCH  29  30
ATOM     30  O   UNL     1      -9.701  16.504 -17.064  0.00  0.00    +0.000 OA
ATOM     31  H   UNL     1     -10.281  17.248 -17.307  0.00  0.00    +0.000 HD
ENDBRANCH  29  30
ENDBRANCH  15  29
BRANCH   6  32
ATOM     32  O   UNL     1      -1.466  17.998 -18.503  0.00  0.00    +0.000 OA
BRANCH  32  34
ATOM     33  O   UNL     1       0.478  18.838 -19.224  0.00  0.00    +0.000 OA
ATOM     34  C   UNL     1      -0.210  17.849 -18.983  0.00  0.00    +0.000 C 
BRANCH  34  35
ATOM     35  C   UNL     1       0.333  16.461 -19.217  0.00  0.00    +0.000 C 
BRANCH  35  36
ATOM     36  C   UNL     1       0.281  16.077 -20.691  0.00  0.00    +0.000 C 
BRANCH  36  37
ATOM     37  C   UNL     1       0.693  14.629 -20.977  0.00  0.00    +0.000 C 
BRANCH  37  38
ATOM     38  C   UNL     1      -0.479  13.641 -21.063  0.00  0.00    +0.000 C 
BRANCH  38  39
ATOM     39  C   UNL     1      -0.040  12.250 -21.532  0.00  0.00    +0.000 C 
BRANCH  39  40
ATOM     40  C   UNL     1      -0.060  12.084 -23.054  0.00  0.00    +0.000 C 
BRANCH  40  41
ATOM     41  C   UNL     1       1.275  11.594 -23.622  0.00  0.00    +0.000 C 
BRANCH  41  42
ATOM     42  C   UNL     1       2.336  12.694 -23.712  0.00  0.00    +0.000 C 
BRANCH  42  43
ATOM     43  C   UNL     1       3.442  12.643 -22.654  0.00  0.00    +0.000 C 
BRANCH  43  44
ATOM     44  C   UNL     1       4.443  13.801 -22.687  0.00  0.00    +0.000 C 
BRANCH  44  45
ATOM     45  C   UNL     1       4.442  14.712 -21.456  0.00  0.00    +0.000 C 
BRANCH  45  46
ATOM     46  C   UNL     1       3.954  16.144 -21.689  0.00  0.00    +0.000 C 
ATOM     47  C   UNL     1       3.338  16.358 -23.062  0.00  0.00    +0.000 C 
ENDBRANCH  45  46
ENDBRANCH  44  45
ENDBRANCH  43  44
ENDBRANCH  42  43
ENDBRANCH  41  42
ENDBRANCH  40  41
ENDBRANCH  39  40
ENDBRANCH  38  39
ENDBRANCH  37  38
ENDBRANCH  36  37
ENDBRANCH  35  36
ENDBRANCH  34  35
ENDBRANCH  32  34
ENDBRANCH   6  32
TORSDOF 20
ENDMDL
MODEL 9
REMARK VINA RESULT:      -4.0     14.974     19.920
REMARK  Name = 27924_Phorbol.pdbqt.pdb
REMARK  26 active torsions:
REMARK  status: ('A' for Active; 'I' for Inactive)
REMARK    1  A    between atoms: O_1  and  C_10
REMARK    2  A    between atoms: O_1  and  C_26
REMARK    3  A    between atoms: O_2  and  C_13
REMARK    4  A    between atoms: O_2  and  C_28
REMARK    5  A    between atoms: O_3  and  C_14
REMARK    6  A    between atoms: O_4  and  C_20
REMARK    7  A    between atoms: O_7  and  C_29
REMARK    8  A    between atoms: C_11  and  C_16
REMARK    9  A    between atoms: C_11  and  C_17
REMARK   10  A    between atoms: C_15  and  C_21
REMARK   11  A    between atoms: C_22  and  C_29
REMARK   12  A    between atoms: C_26  and  C_30
REMARK   13  A    between atoms: C_27  and  C_31
REMARK   14  A    between atoms: C_28  and  C_32
REMARK   15  A    between atoms: C_32  and  C_33
REMARK   16  A    between atoms: C_33  and  C_34
REMARK   17  A    between atoms: C_34  and  C_35
REMARK   18  A    between atoms: C_35  and  C_36
REMARK   19  A    between atoms: C_36  and  C_37
REMARK   20  A    between atoms: C_37  and  C_38
REMARK   21  A    between atoms: C_38  and  C_39
REMARK   22  A    between atoms: C_39  and  C_40
REMARK   23  A    between atoms: C_40  and  C_41
REMARK   24  A    between atoms: C_41  and  C_42
REMARK   25  A    between atoms: C_42  and  C_43
REMARK   26  A    between atoms: C_43  and  C_44
REMARK                            x       y       z     vdW  Elec       q    Type
REMARK                         _______ _______ _______ _____ _____    ______ ____
ROOT
ATOM      1  O   UNL     1      11.639 -13.629  -0.976  0.00  0.00    +0.000 OA
ATOM      2  C   UNL     1      14.597  -8.017  -4.156  0.00  0.00    +0.000 C 
ATOM      3  C   UNL     1      13.717  -6.982  -4.833  0.00  0.00    +0.000 C 
ATOM      4  C   UNL     1      14.577  -7.971  -5.671  0.00  0.00    +0.000 C 
ATOM      5  C   UNL     1      14.015  -9.010  -3.196  0.00  0.00    +0.000 C 
ATOM      6  C   UNL     1      12.196  -7.116  -4.634  0.00  0.00    +0.000 C 
ATOM      7  C   UNL     1      12.432  -9.225  -3.199  0.00  0.00    +0.000 C 
ATOM      8  C   UNL     1      11.852  -7.756  -3.243  0.00  0.00    +0.000 C 
ATOM      9  C   UNL     1      15.877  -7.496  -6.298  0.00  0.00    +0.000 C 
ATOM     10  C   UNL     1      13.958  -9.088  -6.475  0.00  0.00    +0.000 C 
ATOM     11  C   UNL     1      12.037 -10.177  -1.959  0.00  0.00    +0.000 C 
ATOM     12  C   UNL     1      14.795 -10.310  -3.124  0.00  0.00    +0.000 C 
ATOM     13  C   UNL     1      12.593 -11.667  -2.051  0.00  0.00    +0.000 C 
ATOM     14  C   UNL     1      10.357  -7.619  -2.953  0.00  0.00    +0.000 C 
ATOM     15  C   UNL     1      14.976 -10.830  -1.890  0.00  0.00    +0.000 C 
ATOM     16  C   UNL     1      14.001 -11.915  -1.467  0.00  0.00    +0.000 C 
ATOM     17  C   UNL     1      10.570 -10.462  -1.663  0.00  0.00    +0.000 C 
ATOM     18  C   UNL     1      11.530 -12.463  -1.326  0.00  0.00    +0.000 C 
ATOM     19  C   UNL     1      10.280 -11.700  -1.241  0.00  0.00    +0.000 C 
ATOM     20  C   UNL     1       9.003 -12.290  -0.788  0.00  0.00    +0.000 C 
ENDROOT
BRANCH   7  21
ATOM     21  O   UNL     1      11.977  -9.869  -4.396  0.00  0.00    +0.000 OA
ATOM     22  H   UNL     1      11.875  -9.180  -5.090  0.00  0.00    +0.000 HD
ENDBRANCH   7  21
BRANCH  13  23
ATOM     23  O   UNL     1      12.526 -12.175  -3.406  0.00  0.00    +0.000 OA
ATOM     24  H   UNL     1      13.020 -13.021  -3.403  0.00  0.00    +0.000 HD
ENDBRANCH  13  23
BRANCH   3  25
ATOM     25  O   UNL     1      14.239  -5.653  -4.572  0.00  0.00    +0.000 OA
BRANCH  25  27
ATOM     26  O   UNL     1      14.289  -5.261  -2.362  0.00  0.00    +0.000 OA
ATOM     27  C   UNL     1      14.883  -5.280  -3.437  0.00  0.00    +0.000 C 
ATOM     28  C   UNL     1      16.349  -4.974  -3.507  0.00  0.00    +0.000 C 
ENDBRANCH  25  27
ENDBRANCH   3  25
BRANCH  15  29
ATOM     29  C   UNL     1      15.626 -10.078  -0.759  0.00  0.00    +0.000 C 
BRANCH  29  30
ATOM     30  O   UNL     1      15.360 -10.774   0.447  0.00  0.00    +0.000 OA
ATOM     31  H   UNL     1      14.582 -10.349   0.849  0.00  0.00    +0.000 HD
ENDBRANCH  29  30
ENDBRANCH  15  29
BRANCH   6  32
ATOM     32  O   UNL     1      11.615  -5.787  -4.726  0.00  0.00    +0.000 OA
BRANCH  32  34
ATOM     33  O   UNL     1      10.081  -4.389  -5.560  0.00  0.00    +0.000 OA
ATOM     34  C   UNL     1      10.845  -5.334  -5.741  0.00  0.00    +0.000 C 
BRANCH  34  35
ATOM     35  C   UNL     1      10.936  -5.999  -7.092  0.00  0.00    +0.000 C 
BRANCH  35  36
ATOM     36  C   UNL     1      12.012  -5.362  -7.963  0.00  0.00    +0.000 C 
BRANCH  36  37
ATOM     37  C   UNL     1      11.819  -5.587  -9.467  0.00  0.00    +0.000 C 
BRANCH  37  38
ATOM     38  C   UNL     1      12.803  -6.586 -10.090  0.00  0.00    +0.000 C 
BRANCH  38  39
ATOM     39  C   UNL     1      14.090  -6.730  -9.271  0.00  0.00    +0.000 C 
BRANCH  39  40
ATOM     40  C   UNL     1      15.295  -6.020  -9.895  0.00  0.00    +0.000 C 
BRANCH  40  41
ATOM     41  C   UNL     1      15.342  -4.524  -9.574  0.00  0.00    +0.000 C 
BRANCH  41  42
ATOM     42  C   UNL     1      15.255  -4.223  -8.075  0.00  0.00    +0.000 C 
BRANCH  42  43
ATOM     43  C   UNL     1      16.586  -3.934  -7.375  0.00  0.00    +0.000 C 
BRANCH  43  44
ATOM     44  C   UNL     1      16.905  -2.453  -7.145  0.00  0.00    +0.000 C 
BRANCH  44  45
ATOM     45  C   UNL     1      18.212  -1.953  -7.768  0.00  0.00    +0.000 C 
BRANCH  45  46
ATOM     46  C   UNL     1      18.515  -2.463  -9.178  0.00  0.00    +0.000 C 
ATOM     47  C   UNL     1      17.680  -1.792 -10.257  0.00  0.00    +0.000 C 
ENDBRANCH  45  46
ENDBRANCH  44  45
ENDBRANCH  43  44
ENDBRANCH  42  43
ENDBRANCH  41  42
ENDBRANCH  40  41
ENDBRANCH  39  40
ENDBRANCH  38  39
ENDBRANCH  37  38
ENDBRANCH  36  37
ENDBRANCH  35  36
ENDBRANCH  34  35
ENDBRANCH  32  34
ENDBRANCH   6  32
TORSDOF 20
ENDMDL
