MODEL 1
REMARK VINA RESULT:      -3.2      0.000      0.000
REMARK  Name = 2Methylcholine.pdbqt.pdb
REMARK  3 active torsions:
REMARK  status: ('A' for Active; 'I' for Inactive)
REMARK    1  A    between atoms: C_1  and  N_2
REMARK    2  A    between atoms: C_1  and  C_6
REMARK    3  A    between atoms: C_6  and  O_8
REMARK                            x       y       z     vdW  Elec       q    Type
REMARK                         _______ _______ _______ _____ _____    ______ ____
ROOT
ATOM      1  C   UNL     1     -11.256   5.996  -8.772  0.00  0.00    +0.000 C 
ENDROOT
BRANCH   1   2
ATOM      2  N   UNL     1     -12.154   5.939  -9.909  0.00  0.00    +0.000 N 
ATOM      3  C   UNL     1     -12.638   7.285 -10.230  0.00  0.00    +0.000 C 
ATOM      4  C   UNL     1     -11.454   5.389 -11.072  0.00  0.00    +0.000 C 
ATOM      5  C   UNL     1     -13.299   5.082  -9.592  0.00  0.00    +0.000 C 
ENDBRANCH   1   2
BRANCH   1   6
ATOM      6  C   UNL     1     -10.403   6.070  -7.662  0.00  0.00    +0.000 C 
ATOM      7  C   UNL     1      -9.951   7.373  -7.118  0.00  0.00    +0.000 C 
BRANCH   6   8
ATOM      8  O   UNL     1      -9.946   4.958  -7.025  0.00  0.00    +0.000 OA
ATOM      9  H   UNL     1      -9.111   5.183  -6.571  0.00  0.00    +0.000 HD
ENDBRANCH   6   8
ENDBRANCH   1   6
TORSDOF 3
ENDMDL
MODEL 2
REMARK VINA RESULT:      -3.2     23.697     24.261
REMARK  Name = 2Methylcholine.pdbqt.pdb
REMARK  3 active torsions:
REMARK  status: ('A' for Active; 'I' for Inactive)
REMARK    1  A    between atoms: C_1  and  N_2
REMARK    2  A    between atoms: C_1  and  C_6
REMARK    3  A    between atoms: C_6  and  O_8
REMARK                            x       y       z     vdW  Elec       q    Type
REMARK                         _______ _______ _______ _____ _____    ______ ____
ROOT
ATOM      1  C   UNL     1      11.125   1.980 -16.861  0.00  0.00    +0.000 C 
ENDROOT
BRANCH   1   2
ATOM      2  N   UNL     1      10.574   2.058 -18.200  0.00  0.00    +0.000 N 
ATOM      3  C   UNL     1      11.605   2.510 -19.139  0.00  0.00    +0.000 C 
ATOM      4  C   UNL     1      10.088   0.740 -18.617  0.00  0.00    +0.000 C 
ATOM      5  C   UNL     1       9.458   3.007 -18.221  0.00  0.00    +0.000 C 
ENDBRANCH   1   2
BRANCH   1   6
ATOM      6  C   UNL     1      11.656   1.878 -15.568  0.00  0.00    +0.000 C 
ATOM      7  C   UNL     1      13.083   1.548 -15.340  0.00  0.00    +0.000 C 
BRANCH   6   8
ATOM      8  O   UNL     1      10.895   2.074 -14.456  0.00  0.00    +0.000 OA
ATOM      9  H   UNL     1      11.461   2.459 -13.759  0.00  0.00    +0.000 HD
ENDBRANCH   6   8
ENDBRANCH   1   6
TORSDOF 3
ENDMDL
MODEL 3
REMARK VINA RESULT:      -3.1      3.061      4.479
REMARK  Name = 2Methylcholine.pdbqt.pdb
REMARK  3 active torsions:
REMARK  status: ('A' for Active; 'I' for Inactive)
REMARK    1  A    between atoms: C_1  and  N_2
REMARK    2  A    between atoms: C_1  and  C_6
REMARK    3  A    between atoms: C_6  and  O_8
REMARK                            x       y       z     vdW  Elec       q    Type
REMARK                         _______ _______ _______ _____ _____    ______ ____
ROOT
ATOM      1  C   UNL     1     -12.312   6.491 -11.384  0.00  0.00    +0.000 C 
ENDROOT
BRANCH   1   2
ATOM      2  N   UNL     1     -11.749   5.968 -10.155  0.00  0.00    +0.000 N 
ATOM      3  C   UNL     1     -12.750   5.162  -9.450  0.00  0.00    +0.000 C 
ATOM      4  C   UNL     1     -10.584   5.132 -10.455  0.00  0.00    +0.000 C 
ATOM      5  C   UNL     1     -11.332   7.075  -9.290  0.00  0.00    +0.000 C 
ENDBRANCH   1   2
BRANCH   1   6
ATOM      6  C   UNL     1     -12.833   6.992 -12.585  0.00  0.00    +0.000 C 
ATOM      7  C   UNL     1     -14.228   6.711 -13.002  0.00  0.00    +0.000 C 
BRANCH   6   8
ATOM      8  O   UNL     1     -12.092   7.758 -13.431  0.00  0.00    +0.000 OA
ATOM      9  H   UNL     1     -11.645   7.169 -14.069  0.00  0.00    +0.000 HD
ENDBRANCH   6   8
ENDBRANCH   1   6
TORSDOF 3
ENDMDL
MODEL 4
REMARK VINA RESULT:      -3.1     25.473     26.335
REMARK  Name = 2Methylcholine.pdbqt.pdb
REMARK  3 active torsions:
REMARK  status: ('A' for Active; 'I' for Inactive)
REMARK    1  A    between atoms: C_1  and  N_2
REMARK    2  A    between atoms: C_1  and  C_6
REMARK    3  A    between atoms: C_6  and  O_8
REMARK                            x       y       z     vdW  Elec       q    Type
REMARK                         _______ _______ _______ _____ _____    ______ ____
ROOT
ATOM      1  C   UNL     1      11.780  -6.288  -8.555  0.00  0.00    +0.000 C 
ENDROOT
BRANCH   1   2
ATOM      2  N   UNL     1      11.212  -5.858  -7.292  0.00  0.00    +0.000 N 
ATOM      3  C   UNL     1      10.118  -4.913  -7.533  0.00  0.00    +0.000 C 
ATOM      4  C   UNL     1      10.695  -7.016  -6.557  0.00  0.00    +0.000 C 
ATOM      5  C   UNL     1      12.243  -5.201  -6.485  0.00  0.00    +0.000 C 
ENDBRANCH   1   2
BRANCH   1   6
ATOM      6  C   UNL     1      12.304  -6.699  -9.789  0.00  0.00    +0.000 C 
ATOM      7  C   UNL     1      13.558  -6.121 -10.329  0.00  0.00    +0.000 C 
BRANCH   6   8
ATOM      8  O   UNL     1      11.695  -7.645 -10.555  0.00  0.00    +0.000 OA
ATOM      9  H   UNL     1      10.750  -7.677 -10.311  0.00  0.00    +0.000 HD
ENDBRANCH   6   8
ENDBRANCH   1   6
TORSDOF 3
ENDMDL
MODEL 5
REMARK VINA RESULT:      -3.0     11.601     13.094
REMARK  Name = 2Methylcholine.pdbqt.pdb
REMARK  3 active torsions:
REMARK  status: ('A' for Active; 'I' for Inactive)
REMARK    1  A    between atoms: C_1  and  N_2
REMARK    2  A    between atoms: C_1  and  C_6
REMARK    3  A    between atoms: C_6  and  O_8
REMARK                            x       y       z     vdW  Elec       q    Type
REMARK                         _______ _______ _______ _____ _____    ______ ____
ROOT
ATOM      1  C   UNL     1      -9.409  -2.355 -18.203  0.00  0.00    +0.000 C 
ENDROOT
BRANCH   1   2
ATOM      2  N   UNL     1      -8.394  -2.944 -19.054  0.00  0.00    +0.000 N 
ATOM      3  C   UNL     1      -7.063  -2.523 -18.607  0.00  0.00    +0.000 C 
ATOM      4  C   UNL     1      -8.481  -4.405 -18.997  0.00  0.00    +0.000 C 
ATOM      5  C   UNL     1      -8.595  -2.507 -20.438  0.00  0.00    +0.000 C 
ENDBRANCH   1   2
BRANCH   1   6
ATOM      6  C   UNL     1     -10.375  -1.761 -17.378  0.00  0.00    +0.000 C 
ATOM      7  C   UNL     1     -11.202  -0.624 -17.847  0.00  0.00    +0.000 C 
BRANCH   6   8
ATOM      8  O   UNL     1     -10.607  -2.194 -16.108  0.00  0.00    +0.000 OA
ATOM      9  H   UNL     1     -11.570  -2.184 -15.950  0.00  0.00    +0.000 HD
ENDBRANCH   6   8
ENDBRANCH   1   6
TORSDOF 3
ENDMDL
MODEL 6
REMARK VINA RESULT:      -3.0     24.102     24.803
REMARK  Name = 2Methylcholine.pdbqt.pdb
REMARK  3 active torsions:
REMARK  status: ('A' for Active; 'I' for Inactive)
REMARK    1  A    between atoms: C_1  and  N_2
REMARK    2  A    between atoms: C_1  and  C_6
REMARK    3  A    between atoms: C_6  and  O_8
REMARK                            x       y       z     vdW  Elec       q    Type
REMARK                         _______ _______ _______ _____ _____    ______ ____
ROOT
ATOM      1  C   UNL     1      11.113   0.537 -17.474  0.00  0.00    +0.000 C 
ENDROOT
BRANCH   1   2
ATOM      2  N   UNL     1      10.904   1.732 -18.268  0.00  0.00    +0.000 N 
ATOM      3  C   UNL     1       9.826   1.505 -19.235  0.00  0.00    +0.000 C 
ATOM      4  C   UNL     1      10.542   2.853 -17.398  0.00  0.00    +0.000 C 
ATOM      5  C   UNL     1      12.133   2.066 -18.992  0.00  0.00    +0.000 C 
ENDBRANCH   1   2
BRANCH   1   6
ATOM      6  C   UNL     1      11.299  -0.632 -16.722  0.00  0.00    +0.000 C 
ATOM      7  C   UNL     1      11.667  -1.915 -17.364  0.00  0.00    +0.000 C 
BRANCH   6   8
ATOM      8  O   UNL     1      11.151  -0.653 -15.369  0.00  0.00    +0.000 OA
ATOM      9  H   UNL     1      10.208  -0.505 -15.160  0.00  0.00    +0.000 HD
ENDBRANCH   6   8
ENDBRANCH   1   6
TORSDOF 3
ENDMDL
MODEL 7
REMARK VINA RESULT:      -3.0     24.742     25.458
REMARK  Name = 2Methylcholine.pdbqt.pdb
REMARK  3 active torsions:
REMARK  status: ('A' for Active; 'I' for Inactive)
REMARK    1  A    between atoms: C_1  and  N_2
REMARK    2  A    between atoms: C_1  and  C_6
REMARK    3  A    between atoms: C_6  and  O_8
REMARK                            x       y       z     vdW  Elec       q    Type
REMARK                         _______ _______ _______ _____ _____    ______ ____
ROOT
ATOM      1  C   UNL     1      11.544  -0.519 -17.436  0.00  0.00    +0.000 C 
ENDROOT
BRANCH   1   2
ATOM      2  N   UNL     1      11.470   0.875 -17.045  0.00  0.00    +0.000 N 
ATOM      3  C   UNL     1      11.861   1.731 -18.169  0.00  0.00    +0.000 C 
ATOM      4  C   UNL     1      10.101   1.208 -16.641  0.00  0.00    +0.000 C 
ATOM      5  C   UNL     1      12.374   1.122 -15.919  0.00  0.00    +0.000 C 
ENDBRANCH   1   2
BRANCH   1   6
ATOM      6  C   UNL     1      11.643  -1.863 -17.820  0.00  0.00    +0.000 C 
ATOM      7  C   UNL     1      12.568  -2.296 -18.895  0.00  0.00    +0.000 C 
BRANCH   6   8
ATOM      8  O   UNL     1      10.901  -2.840 -17.232  0.00  0.00    +0.000 OA
ATOM      9  H   UNL     1      10.964  -2.735 -16.263  0.00  0.00    +0.000 HD
ENDBRANCH   6   8
ENDBRANCH   1   6
TORSDOF 3
ENDMDL
MODEL 8
REMARK VINA RESULT:      -2.9     25.056     25.771
REMARK  Name = 2Methylcholine.pdbqt.pdb
REMARK  3 active torsions:
REMARK  status: ('A' for Active; 'I' for Inactive)
REMARK    1  A    between atoms: C_1  and  N_2
REMARK    2  A    between atoms: C_1  and  C_6
REMARK    3  A    between atoms: C_6  and  O_8
REMARK                            x       y       z     vdW  Elec       q    Type
REMARK                         _______ _______ _______ _____ _____    ______ ____
ROOT
ATOM      1  C   UNL     1      12.003   1.831 -18.731  0.00  0.00    +0.000 C 
ENDROOT
BRANCH   1   2
ATOM      2  N   UNL     1      11.324   1.628 -17.467  0.00  0.00    +0.000 N 
ATOM      3  C   UNL     1      10.548   2.822 -17.119  0.00  0.00    +0.000 C 
ATOM      4  C   UNL     1      10.419   0.479 -17.565  0.00  0.00    +0.000 C 
ATOM      5  C   UNL     1      12.308   1.372 -16.412  0.00  0.00    +0.000 C 
ENDBRANCH   1   2
BRANCH   1   6
ATOM      6  C   UNL     1      12.649   2.054 -19.956  0.00  0.00    +0.000 C 
ATOM      7  C   UNL     1      13.102   0.929 -20.808  0.00  0.00    +0.000 C 
BRANCH   6   8
ATOM      8  O   UNL     1      12.895   3.307 -20.426  0.00  0.00    +0.000 OA
ATOM      9  H   UNL     1      13.817   3.543 -20.208  0.00  0.00    +0.000 HD
ENDBRANCH   6   8
ENDBRANCH   1   6
TORSDOF 3
ENDMDL
MODEL 9
REMARK VINA RESULT:      -2.9     13.214     14.213
REMARK  Name = 2Methylcholine.pdbqt.pdb
REMARK  3 active torsions:
REMARK  status: ('A' for Active; 'I' for Inactive)
REMARK    1  A    between atoms: C_1  and  N_2
REMARK    2  A    between atoms: C_1  and  C_6
REMARK    3  A    between atoms: C_6  and  O_8
REMARK                            x       y       z     vdW  Elec       q    Type
REMARK                         _______ _______ _______ _____ _____    ______ ____
ROOT
ATOM      1  C   UNL     1      -4.821  -1.681 -18.398  0.00  0.00    +0.000 C 
ENDROOT
BRANCH   1   2
ATOM      2  N   UNL     1      -3.857  -0.626 -18.154  0.00  0.00    +0.000 N 
ATOM      3  C   UNL     1      -4.199   0.557 -18.949  0.00  0.00    +0.000 C 
ATOM      4  C   UNL     1      -3.857  -0.267 -16.734  0.00  0.00    +0.000 C 
ATOM      5  C   UNL     1      -2.517  -1.084 -18.531  0.00  0.00    +0.000 C 
ENDBRANCH   1   2
BRANCH   1   6
ATOM      6  C   UNL     1      -5.752  -2.708 -18.607  0.00  0.00    +0.000 C 
ATOM      7  C   UNL     1      -7.208  -2.437 -18.652  0.00  0.00    +0.000 C 
BRANCH   6   8
ATOM      8  O   UNL     1      -5.372  -4.004 -18.778  0.00  0.00    +0.000 OA
ATOM      9  H   UNL     1      -4.538  -4.148 -18.290  0.00  0.00    +0.000 HD
ENDBRANCH   6   8
ENDBRANCH   1   6
TORSDOF 3
ENDMDL
