MODEL 1
REMARK VINA RESULT:      -6.9      0.000      0.000
REMARK  Name = 3035817_K252a.pdbqt.pdb
REMARK  3 active torsions:
REMARK  status: ('A' for Active; 'I' for Inactive)
REMARK    1  A    between atoms: C_3  and  O_7
REMARK    2  A    between atoms: C_3  and  C_9
REMARK    3  A    between atoms: C_9  and  O_11
REMARK                            x       y       z     vdW  Elec       q    Type
REMARK                         _______ _______ _______ _____ _____    ______ ____
ROOT
ATOM      1  O   UNL     1     -14.577  10.620  -9.861  0.00  0.00    +0.000 OA
ATOM      2  C   UNL     1     -14.980  10.621  -8.445  0.00  0.00    +0.000 C 
ATOM      3  C   UNL     1     -16.441   9.996  -8.459  0.00  0.00    +0.000 C 
ATOM      4  C   UNL     1     -15.111   9.423 -10.371  0.00  0.00    +0.000 C 
ATOM      5  C   UNL     1     -16.335   9.216  -9.690  0.00  0.00    +0.000 C 
ATOM      6  C   UNL     1     -14.917  12.119  -8.002  0.00  0.00    +0.000 C 
ATOM      7  N   UNL     1     -13.995   9.786  -7.727  0.00  0.00    +0.000 N 
ATOM      8  C   UNL     1     -13.244   8.718  -8.148  0.00  0.00    +0.000 A 
ATOM      9  C   UNL     1     -13.326   8.064  -9.378  0.00  0.00    +0.000 A 
ATOM     10  C   UNL     1     -12.342   8.126  -7.259  0.00  0.00    +0.000 A 
ATOM     11  N   UNL     1     -14.210   8.372 -10.365  0.00  0.00    +0.000 N 
ATOM     12  C   UNL     1     -12.507   6.938  -9.515  0.00  0.00    +0.000 A 
ATOM     13  C   UNL     1     -13.989   7.298 -11.245  0.00  0.00    +0.000 A 
ATOM     14  C   UNL     1     -12.938   6.430 -10.760  0.00  0.00    +0.000 A 
ATOM     15  C   UNL     1     -14.639   7.032 -12.461  0.00  0.00    +0.000 A 
ATOM     16  C   UNL     1     -12.600   5.307 -11.541  0.00  0.00    +0.000 A 
ATOM     17  C   UNL     1     -13.255   5.060 -12.747  0.00  0.00    +0.000 A 
ATOM     18  C   UNL     1     -14.257   5.909 -13.195  0.00  0.00    +0.000 A 
ATOM     19  C   UNL     1     -11.579   6.342  -8.636  0.00  0.00    +0.000 A 
ATOM     20  C   UNL     1     -11.496   7.015  -7.383  0.00  0.00    +0.000 A 
ATOM     21  C   UNL     1     -10.711   5.189  -8.650  0.00  0.00    +0.000 C 
ATOM     22  C   UNL     1     -10.526   6.249  -6.552  0.00  0.00    +0.000 C 
ATOM     23  N   UNL     1     -10.146   5.243  -7.369  0.00  0.00    +0.000 N 
ATOM     24  H   UNL     1      -9.478   4.540  -7.083  0.00  0.00    +0.000 HD
ATOM     25  O   UNL     1     -10.453   4.331  -9.481  0.00  0.00    +0.000 OA
ATOM     26  C   UNL     1     -12.561   8.867  -6.083  0.00  0.00    +0.000 A 
ATOM     27  C   UNL     1     -13.584   9.847  -6.371  0.00  0.00    +0.000 A 
ATOM     28  C   UNL     1     -12.038   8.806  -4.775  0.00  0.00    +0.000 A 
ATOM     29  C   UNL     1     -14.047  10.695  -5.350  0.00  0.00    +0.000 A 
ATOM     30  C   UNL     1     -13.496  10.596  -4.072  0.00  0.00    +0.000 A 
ATOM     31  C   UNL     1     -12.504   9.672  -3.788  0.00  0.00    +0.000 A 
ENDROOT
BRANCH   3  32
ATOM     32  O   UNL     1     -16.727   9.108  -7.368  0.00  0.00    +0.000 OA
ATOM     33  H   UNL     1     -17.412   9.540  -6.811  0.00  0.00    +0.000 HD
ENDBRANCH   3  32
BRANCH   3  34
ATOM     34  C   UNL     1     -17.517  11.074  -8.565  0.00  0.00    +0.000 C 
ATOM     35  O   UNL     1     -17.750  11.621  -9.646  0.00  0.00    +0.000 OA
BRANCH  34  36
ATOM     36  O   UNL     1     -18.085  11.343  -7.351  0.00  0.00    +0.000 OA
ATOM     37  C   UNL     1     -18.551  12.645  -7.123  0.00  0.00    +0.000 C 
ENDBRANCH  34  36
ENDBRANCH   3  34
TORSDOF 3
ENDMDL
MODEL 2
REMARK VINA RESULT:      -6.7     28.065     30.546
REMARK  Name = 3035817_K252a.pdbqt.pdb
REMARK  3 active torsions:
REMARK  status: ('A' for Active; 'I' for Inactive)
REMARK    1  A    between atoms: C_3  and  O_7
REMARK    2  A    between atoms: C_3  and  C_9
REMARK    3  A    between atoms: C_9  and  O_11
REMARK                            x       y       z     vdW  Elec       q    Type
REMARK                         _______ _______ _______ _____ _____    ______ ____
ROOT
ATOM      1  O   UNL     1      13.397  13.673 -18.688  0.00  0.00    +0.000 OA
ATOM      2  C   UNL     1      12.599  12.444 -18.552  0.00  0.00    +0.000 C 
ATOM      3  C   UNL     1      12.587  11.827 -20.016  0.00  0.00    +0.000 C 
ATOM      4  C   UNL     1      14.412  13.327 -19.598  0.00  0.00    +0.000 C 
ATOM      5  C   UNL     1      13.825  12.421 -20.515  0.00  0.00    +0.000 C 
ATOM      6  C   UNL     1      11.202  12.917 -18.034  0.00  0.00    +0.000 C 
ATOM      7  N   UNL     1      13.299  11.594 -17.566  0.00  0.00    +0.000 N 
ATOM      8  C   UNL     1      14.629  11.497 -17.247  0.00  0.00    +0.000 A 
ATOM      9  C   UNL     1      15.698  12.122 -17.891  0.00  0.00    +0.000 A 
ATOM     10  C   UNL     1      15.025  10.625 -16.227  0.00  0.00    +0.000 A 
ATOM     11  N   UNL     1      15.585  12.921 -18.987  0.00  0.00    +0.000 N 
ATOM     12  C   UNL     1      16.970  11.776 -17.421  0.00  0.00    +0.000 A 
ATOM     13  C   UNL     1      16.942  13.091 -19.316  0.00  0.00    +0.000 A 
ATOM     14  C   UNL     1      17.800  12.425 -18.360  0.00  0.00    +0.000 A 
ATOM     15  C   UNL     1      17.485  13.807 -20.395  0.00  0.00    +0.000 A 
ATOM     16  C   UNL     1      19.193  12.510 -18.556  0.00  0.00    +0.000 A 
ATOM     17  C   UNL     1      19.714  13.228 -19.633  0.00  0.00    +0.000 A 
ATOM     18  C   UNL     1      18.871  13.862 -20.535  0.00  0.00    +0.000 A 
ATOM     19  C   UNL     1      17.381  10.915 -16.383  0.00  0.00    +0.000 A 
ATOM     20  C   UNL     1      16.287  10.282 -15.725  0.00  0.00    +0.000 A 
ATOM     21  C   UNL     1      18.635  10.464 -15.829  0.00  0.00    +0.000 C 
ATOM     22  C   UNL     1      16.874   9.376 -14.700  0.00  0.00    +0.000 C 
ATOM     23  N   UNL     1      18.204   9.562 -14.846  0.00  0.00    +0.000 N 
ATOM     24  H   UNL     1      18.882   9.074 -14.277  0.00  0.00    +0.000 HD
ATOM     25  O   UNL     1      19.807  10.720 -16.062  0.00  0.00    +0.000 OA
ATOM     26  C   UNL     1      13.803  10.034 -15.860  0.00  0.00    +0.000 A 
ATOM     27  C   UNL     1      12.773  10.605 -16.697  0.00  0.00    +0.000 A 
ATOM     28  C   UNL     1      13.438   9.038 -14.930  0.00  0.00    +0.000 A 
ATOM     29  C   UNL     1      11.447  10.150 -16.584  0.00  0.00    +0.000 A 
ATOM     30  C   UNL     1      11.136   9.164 -15.648  0.00  0.00    +0.000 A 
ATOM     31  C   UNL     1      12.112   8.620 -14.828  0.00  0.00    +0.000 A 
ENDROOT
BRANCH   3  32
ATOM     32  O   UNL     1      12.702  10.397 -20.069  0.00  0.00    +0.000 OA
ATOM     33  H   UNL     1      11.812  10.040 -20.286  0.00  0.00    +0.000 HD
ENDBRANCH   3  32
BRANCH   3  34
ATOM     34  C   UNL     1      11.375  12.295 -20.818  0.00  0.00    +0.000 C 
ATOM     35  O   UNL     1      11.363  13.412 -21.340  0.00  0.00    +0.000 OA
BRANCH  34  36
ATOM     36  O   UNL     1      10.372  11.365 -20.808  0.00  0.00    +0.000 OA
ATOM     37  C   UNL     1       9.100  11.773 -21.230  0.00  0.00    +0.000 C 
ENDBRANCH  34  36
ENDBRANCH   3  34
TORSDOF 3
ENDMDL
MODEL 3
REMARK VINA RESULT:      -6.7     25.121     28.381
REMARK  Name = 3035817_K252a.pdbqt.pdb
REMARK  3 active torsions:
REMARK  status: ('A' for Active; 'I' for Inactive)
REMARK    1  A    between atoms: C_3  and  O_7
REMARK    2  A    between atoms: C_3  and  C_9
REMARK    3  A    between atoms: C_9  and  O_11
REMARK                            x       y       z     vdW  Elec       q    Type
REMARK                         _______ _______ _______ _____ _____    ______ ____
ROOT
ATOM      1  O   UNL     1      -5.608 -16.214 -21.193  0.00  0.00    +0.000 OA
ATOM      2  C   UNL     1      -5.879 -14.796 -21.478  0.00  0.00    +0.000 C 
ATOM      3  C   UNL     1      -6.556 -14.256 -20.145  0.00  0.00    +0.000 C 
ATOM      4  C   UNL     1      -5.221 -16.227 -19.841  0.00  0.00    +0.000 C 
ATOM      5  C   UNL     1      -5.984 -15.217 -19.205  0.00  0.00    +0.000 C 
ATOM      6  C   UNL     1      -6.820 -14.801 -22.728  0.00  0.00    +0.000 C 
ATOM      7  N   UNL     1      -4.574 -14.166 -21.766  0.00  0.00    +0.000 N 
ATOM      8  C   UNL     1      -3.313 -14.469 -21.322  0.00  0.00    +0.000 A 
ATOM      9  C   UNL     1      -2.964 -15.413 -20.355  0.00  0.00    +0.000 A 
ATOM     10  C   UNL     1      -2.226 -13.725 -21.793  0.00  0.00    +0.000 A 
ATOM     11  N   UNL     1      -3.850 -16.177 -19.660  0.00  0.00    +0.000 N 
ATOM     12  C   UNL     1      -1.607 -15.456 -20.017  0.00  0.00    +0.000 A 
ATOM     13  C   UNL     1      -2.989 -16.764 -18.715  0.00  0.00    +0.000 A 
ATOM     14  C   UNL     1      -1.617 -16.360 -18.933  0.00  0.00    +0.000 A 
ATOM     15  C   UNL     1      -3.323 -17.650 -17.677  0.00  0.00    +0.000 A 
ATOM     16  C   UNL     1      -0.634 -16.873 -18.063  0.00  0.00    +0.000 A 
ATOM     17  C   UNL     1      -0.985 -17.752 -17.040  0.00  0.00    +0.000 A 
ATOM     18  C   UNL     1      -2.307 -18.130 -16.852  0.00  0.00    +0.000 A 
ATOM     19  C   UNL     1      -0.500 -14.726 -20.497  0.00  0.00    +0.000 A 
ATOM     20  C   UNL     1      -0.859 -13.766 -21.487  0.00  0.00    +0.000 A 
ATOM     21  C   UNL     1       0.915 -14.660 -20.217  0.00  0.00    +0.000 C 
ATOM     22  C   UNL     1       0.392 -13.047 -21.856  0.00  0.00    +0.000 C 
ATOM     23  N   UNL     1       1.328 -13.636 -21.080  0.00  0.00    +0.000 N 
ATOM     24  H   UNL     1       2.300 -13.359 -21.105  0.00  0.00    +0.000 HD
ATOM     25  O   UNL     1       1.660 -15.269 -19.465  0.00  0.00    +0.000 OA
ATOM     26  C   UNL     1      -2.858 -12.776 -22.616  0.00  0.00    +0.000 A 
ATOM     27  C   UNL     1      -4.279 -13.034 -22.568  0.00  0.00    +0.000 A 
ATOM     28  C   UNL     1      -2.399 -11.685 -23.383  0.00  0.00    +0.000 A 
ATOM     29  C   UNL     1      -5.167 -12.193 -23.260  0.00  0.00    +0.000 A 
ATOM     30  C   UNL     1      -4.664 -11.127 -24.005  0.00  0.00    +0.000 A 
ATOM     31  C   UNL     1      -3.302 -10.878 -24.073  0.00  0.00    +0.000 A 
ENDROOT
BRANCH   3  32
ATOM     32  O   UNL     1      -6.157 -12.933 -19.759  0.00  0.00    +0.000 OA
ATOM     33  H   UNL     1      -6.975 -12.400 -19.652  0.00  0.00    +0.000 HD
ENDBRANCH   3  32
BRANCH   3  34
ATOM     34  C   UNL     1      -8.078 -14.359 -20.200  0.00  0.00    +0.000 C 
ATOM     35  O   UNL     1      -8.635 -15.456 -20.106  0.00  0.00    +0.000 OA
BRANCH  34  36
ATOM     36  O   UNL     1      -8.660 -13.140 -20.412  0.00  0.00    +0.000 OA
ATOM     37  C   UNL     1      -9.792 -12.817 -19.651  0.00  0.00    +0.000 C 
ENDBRANCH  34  36
ENDBRANCH   3  34
TORSDOF 3
ENDMDL
MODEL 4
REMARK VINA RESULT:      -6.6      2.244      5.480
REMARK  Name = 3035817_K252a.pdbqt.pdb
REMARK  3 active torsions:
REMARK  status: ('A' for Active; 'I' for Inactive)
REMARK    1  A    between atoms: C_3  and  O_7
REMARK    2  A    between atoms: C_3  and  C_9
REMARK    3  A    between atoms: C_9  and  O_11
REMARK                            x       y       z     vdW  Elec       q    Type
REMARK                         _______ _______ _______ _____ _____    ______ ____
ROOT
ATOM      1  O   UNL     1     -13.147  10.319  -7.105  0.00  0.00    +0.000 OA
ATOM      2  C   UNL     1     -12.700   9.004  -6.618  0.00  0.00    +0.000 C 
ATOM      3  C   UNL     1     -13.804   8.591  -5.552  0.00  0.00    +0.000 C 
ATOM      4  C   UNL     1     -14.548  10.209  -7.159  0.00  0.00    +0.000 C 
ATOM      5  C   UNL     1     -14.919   9.376  -6.076  0.00  0.00    +0.000 C 
ATOM      6  C   UNL     1     -11.277   9.251  -6.018  0.00  0.00    +0.000 C 
ATOM      7  N   UNL     1     -12.661   8.110  -7.794  0.00  0.00    +0.000 N 
ATOM      8  C   UNL     1     -13.397   8.115  -8.951  0.00  0.00    +0.000 A 
ATOM      9  C   UNL     1     -14.487   8.932  -9.253  0.00  0.00    +0.000 A 
ATOM     10  C   UNL     1     -13.122   7.162  -9.938  0.00  0.00    +0.000 A 
ATOM     11  N   UNL     1     -15.025   9.853  -8.409  0.00  0.00    +0.000 N 
ATOM     12  C   UNL     1     -15.120   8.665 -10.472  0.00  0.00    +0.000 A 
ATOM     13  C   UNL     1     -16.180  10.210  -9.128  0.00  0.00    +0.000 A 
ATOM     14  C   UNL     1     -16.241   9.519 -10.397  0.00  0.00    +0.000 A 
ATOM     15  C   UNL     1     -17.183  11.118  -8.753  0.00  0.00    +0.000 A 
ATOM     16  C   UNL     1     -17.345   9.779 -11.235  0.00  0.00    +0.000 A 
ATOM     17  C   UNL     1     -18.330  10.685 -10.846  0.00  0.00    +0.000 A 
ATOM     18  C   UNL     1     -18.248  11.340  -9.625  0.00  0.00    +0.000 A 
ATOM     19  C   UNL     1     -14.843   7.722 -11.484  0.00  0.00    +0.000 A 
ATOM     20  C   UNL     1     -13.726   6.893 -11.174  0.00  0.00    +0.000 A 
ATOM     21  C   UNL     1     -15.424   7.338 -12.748  0.00  0.00    +0.000 C 
ATOM     22  C   UNL     1     -13.590   5.926 -12.298  0.00  0.00    +0.000 C 
ATOM     23  N   UNL     1     -14.597   6.272 -13.129  0.00  0.00    +0.000 N 
ATOM     24  H   UNL     1     -14.768   5.788 -14.000  0.00  0.00    +0.000 HD
ATOM     25  O   UNL     1     -16.368   7.747 -13.407  0.00  0.00    +0.000 OA
ATOM     26  C   UNL     1     -12.108   6.399  -9.333  0.00  0.00    +0.000 A 
ATOM     27  C   UNL     1     -11.860   6.964  -8.025  0.00  0.00    +0.000 A 
ATOM     28  C   UNL     1     -11.381   5.255  -9.720  0.00  0.00    +0.000 A 
ATOM     29  C   UNL     1     -10.925   6.358  -7.168  0.00  0.00    +0.000 A 
ATOM     30  C   UNL     1     -10.229   5.228  -7.598  0.00  0.00    +0.000 A 
ATOM     31  C   UNL     1     -10.447   4.687  -8.855  0.00  0.00    +0.000 A 
ENDROOT
BRANCH   3  32
ATOM     32  O   UNL     1     -14.165   7.202  -5.565  0.00  0.00    +0.000 OA
ATOM     33  H   UNL     1     -13.604   6.747  -4.898  0.00  0.00    +0.000 HD
ENDBRANCH   3  32
BRANCH   3  34
ATOM     34  C   UNL     1     -13.420   9.028  -4.141  0.00  0.00    +0.000 C 
ATOM     35  O   UNL     1     -13.580  10.198  -3.783  0.00  0.00    +0.000 OA
BRANCH  34  36
ATOM     36  O   UNL     1     -12.864   8.003  -3.427  0.00  0.00    +0.000 OA
ATOM     37  C   UNL     1     -12.774   8.151  -2.036  0.00  0.00    +0.000 C 
ENDBRANCH  34  36
ENDBRANCH   3  34
TORSDOF 3
ENDMDL
MODEL 5
REMARK VINA RESULT:      -6.4     13.328     15.045
REMARK  Name = 3035817_K252a.pdbqt.pdb
REMARK  3 active torsions:
REMARK  status: ('A' for Active; 'I' for Inactive)
REMARK    1  A    between atoms: C_3  and  O_7
REMARK    2  A    between atoms: C_3  and  C_9
REMARK    3  A    between atoms: C_9  and  O_11
REMARK                            x       y       z     vdW  Elec       q    Type
REMARK                         _______ _______ _______ _____ _____    ______ ____
ROOT
ATOM      1  O   UNL     1      -7.232  -1.498   2.104  0.00  0.00    +0.000 OA
ATOM      2  C   UNL     1      -6.883  -0.069   2.105  0.00  0.00    +0.000 C 
ATOM      3  C   UNL     1      -6.340   0.197   0.635  0.00  0.00    +0.000 C 
ATOM      4  C   UNL     1      -7.765  -1.723   0.823  0.00  0.00    +0.000 C 
ATOM      5  C   UNL     1      -7.044  -0.880  -0.057  0.00  0.00    +0.000 C 
ATOM      6  C   UNL     1      -5.812   0.092   3.233  0.00  0.00    +0.000 C 
ATOM      7  N   UNL     1      -8.127   0.668   2.410  0.00  0.00    +0.000 N 
ATOM      8  C   UNL     1      -9.439   0.360   2.158  0.00  0.00    +0.000 A 
ATOM      9  C   UNL     1      -9.924  -0.717   1.414  0.00  0.00    +0.000 A 
ATOM     10  C   UNL     1     -10.441   1.230   2.599  0.00  0.00    +0.000 A 
ATOM     11  N   UNL     1      -9.146  -1.634   0.778  0.00  0.00    +0.000 N 
ATOM     12  C   UNL     1     -11.310  -0.746   1.230  0.00  0.00    +0.000 A 
ATOM     13  C   UNL     1     -10.125  -2.330   0.045  0.00  0.00    +0.000 A 
ATOM     14  C   UNL     1     -11.450  -1.823   0.328  0.00  0.00    +0.000 A 
ATOM     15  C   UNL     1      -9.937  -3.396  -0.849  0.00  0.00    +0.000 A 
ATOM     16  C   UNL     1     -12.539  -2.426  -0.332  0.00  0.00    +0.000 A 
ATOM     17  C   UNL     1     -12.333  -3.485  -1.215  0.00  0.00    +0.000 A 
ATOM     18  C   UNL     1     -11.054  -3.958  -1.468  0.00  0.00    +0.000 A 
ATOM     19  C   UNL     1     -12.333   0.112   1.685  0.00  0.00    +0.000 A 
ATOM     20  C   UNL     1     -11.835   1.208   2.447  0.00  0.00    +0.000 A 
ATOM     21  C   UNL     1     -13.767   0.203   1.545  0.00  0.00    +0.000 C 
ATOM     22  C   UNL     1     -13.012   2.044   2.810  0.00  0.00    +0.000 C 
ATOM     23  N   UNL     1     -14.048   1.380   2.251  0.00  0.00    +0.000 N 
ATOM     24  H   UNL     1     -15.001   1.708   2.326  0.00  0.00    +0.000 HD
ATOM     25  O   UNL     1     -14.610  -0.487   0.992  0.00  0.00    +0.000 OA
ATOM     26  C   UNL     1      -9.692   2.272   3.172  0.00  0.00    +0.000 A 
ATOM     27  C   UNL     1      -8.293   1.935   3.024  0.00  0.00    +0.000 A 
ATOM     28  C   UNL     1     -10.026   3.501   3.777  0.00  0.00    +0.000 A 
ATOM     29  C   UNL     1      -7.307   2.836   3.462  0.00  0.00    +0.000 A 
ATOM     30  C   UNL     1      -7.689   4.039   4.055  0.00  0.00    +0.000 A 
ATOM     31  C   UNL     1      -9.026   4.366   4.217  0.00  0.00    +0.000 A 
ENDROOT
BRANCH   3  32
ATOM     32  O   UNL     1      -6.735   1.454   0.064  0.00  0.00    +0.000 OA
ATOM     33  H   UNL     1      -7.642   1.650   0.388  0.00  0.00    +0.000 HD
ENDBRANCH   3  32
BRANCH   3  34
ATOM     34  C   UNL     1      -4.826   0.026   0.551  0.00  0.00    +0.000 C 
ATOM     35  O   UNL     1      -4.088   1.012   0.470  0.00  0.00    +0.000 OA
BRANCH  34  36
ATOM     36  O   UNL     1      -4.466  -1.293   0.524  0.00  0.00    +0.000 OA
ATOM     37  C   UNL     1      -3.213  -1.638   1.049  0.00  0.00    +0.000 C 
ENDBRANCH  34  36
ENDBRANCH   3  34
TORSDOF 3
ENDMDL
MODEL 6
REMARK VINA RESULT:      -6.3      2.399      5.271
REMARK  Name = 3035817_K252a.pdbqt.pdb
REMARK  3 active torsions:
REMARK  status: ('A' for Active; 'I' for Inactive)
REMARK    1  A    between atoms: C_3  and  O_7
REMARK    2  A    between atoms: C_3  and  C_9
REMARK    3  A    between atoms: C_9  and  O_11
REMARK                            x       y       z     vdW  Elec       q    Type
REMARK                         _______ _______ _______ _____ _____    ______ ____
ROOT
ATOM      1  O   UNL     1     -13.900   7.879 -12.068  0.00  0.00    +0.000 OA
ATOM      2  C   UNL     1     -15.312   8.143 -11.752  0.00  0.00    +0.000 C 
ATOM      3  C   UNL     1     -15.972   6.698 -11.691  0.00  0.00    +0.000 C 
ATOM      4  C   UNL     1     -13.598   6.709 -11.348  0.00  0.00    +0.000 C 
ATOM      5  C   UNL     1     -14.778   5.926 -11.357  0.00  0.00    +0.000 C 
ATOM      6  C   UNL     1     -15.832   9.046 -12.919  0.00  0.00    +0.000 C 
ATOM      7  N   UNL     1     -15.329   8.847 -10.454  0.00  0.00    +0.000 N 
ATOM      8  C   UNL     1     -14.466   8.792  -9.390  0.00  0.00    +0.000 A 
ATOM      9  C   UNL     1     -13.382   7.927  -9.228  0.00  0.00    +0.000 A 
ATOM     10  C   UNL     1     -14.698   9.610  -8.279  0.00  0.00    +0.000 A 
ATOM     11  N   UNL     1     -13.025   6.956 -10.112  0.00  0.00    +0.000 N 
ATOM     12  C   UNL     1     -12.719   8.016  -8.000  0.00  0.00    +0.000 A 
ATOM     13  C   UNL     1     -12.038   6.288  -9.366  0.00  0.00    +0.000 A 
ATOM     14  C   UNL     1     -11.818   6.933  -8.090  0.00  0.00    +0.000 A 
ATOM     15  C   UNL     1     -11.299   5.151  -9.735  0.00  0.00    +0.000 A 
ATOM     16  C   UNL     1     -10.850   6.377  -7.230  0.00  0.00    +0.000 A 
ATOM     17  C   UNL     1     -10.125   5.250  -7.614  0.00  0.00    +0.000 A 
ATOM     18  C   UNL     1     -10.350   4.649  -8.845  0.00  0.00    +0.000 A 
ATOM     19  C   UNL     1     -12.929   8.848  -6.881  0.00  0.00    +0.000 A 
ATOM     20  C   UNL     1     -14.034   9.732  -7.051  0.00  0.00    +0.000 A 
ATOM     21  C   UNL     1     -12.344   9.015  -5.572  0.00  0.00    +0.000 C 
ATOM     22  C   UNL     1     -14.162  10.502  -5.782  0.00  0.00    +0.000 C 
ATOM     23  N   UNL     1     -13.155  10.017  -5.023  0.00  0.00    +0.000 N 
ATOM     24  H   UNL     1     -12.980  10.350  -4.085  0.00  0.00    +0.000 HD
ATOM     25  O   UNL     1     -11.404   8.493  -4.990  0.00  0.00    +0.000 OA
ATOM     26  C   UNL     1     -15.897  10.252  -8.635  0.00  0.00    +0.000 A 
ATOM     27  C   UNL     1     -16.284   9.760  -9.938  0.00  0.00    +0.000 A 
ATOM     28  C   UNL     1     -16.741  11.179  -7.989  0.00  0.00    +0.000 A 
ATOM     29  C   UNL     1     -17.488  10.193 -10.520  0.00  0.00    +0.000 A 
ATOM     30  C   UNL     1     -18.288  11.113  -9.841  0.00  0.00    +0.000 A 
ATOM     31  C   UNL     1     -17.919  11.604  -8.599  0.00  0.00    +0.000 A 
ENDROOT
BRANCH   3  32
ATOM     32  O   UNL     1     -16.946   6.523 -10.652  0.00  0.00    +0.000 OA
ATOM     33  H   UNL     1     -16.550   5.931  -9.976  0.00  0.00    +0.000 HD
ENDBRANCH   3  32
BRANCH   3  34
ATOM     34  C   UNL     1     -16.552   6.283 -13.041  0.00  0.00    +0.000 C 
ATOM     35  O   UNL     1     -17.746   6.462 -13.291  0.00  0.00    +0.000 OA
BRANCH  34  36
ATOM     36  O   UNL     1     -15.613   5.678 -13.831  0.00  0.00    +0.000 OA
ATOM     37  C   UNL     1     -16.068   4.880 -14.889  0.00  0.00    +0.000 C 
ENDBRANCH  34  36
ENDBRANCH   3  34
TORSDOF 3
ENDMDL
MODEL 7
REMARK VINA RESULT:      -6.3     29.923     33.283
REMARK  Name = 3035817_K252a.pdbqt.pdb
REMARK  3 active torsions:
REMARK  status: ('A' for Active; 'I' for Inactive)
REMARK    1  A    between atoms: C_3  and  O_7
REMARK    2  A    between atoms: C_3  and  C_9
REMARK    3  A    between atoms: C_9  and  O_11
REMARK                            x       y       z     vdW  Elec       q    Type
REMARK                         _______ _______ _______ _____ _____    ______ ____
ROOT
ATOM      1  O   UNL     1       4.876 -16.883  -9.244  0.00  0.00    +0.000 OA
ATOM      2  C   UNL     1       5.674 -18.114  -9.125  0.00  0.00    +0.000 C 
ATOM      3  C   UNL     1       4.628 -19.280  -9.392  0.00  0.00    +0.000 C 
ATOM      4  C   UNL     1       3.978 -17.153 -10.291  0.00  0.00    +0.000 C 
ATOM      5  C   UNL     1       3.665 -18.531 -10.195  0.00  0.00    +0.000 C 
ATOM      6  C   UNL     1       6.260 -18.085  -7.675  0.00  0.00    +0.000 C 
ATOM      7  N   UNL     1       6.731 -18.031 -10.154  0.00  0.00    +0.000 N 
ATOM      8  C   UNL     1       6.750 -17.406 -11.375  0.00  0.00    +0.000 A 
ATOM      9  C   UNL     1       5.684 -16.770 -12.013  0.00  0.00    +0.000 A 
ATOM     10  C   UNL     1       7.916 -17.451 -12.146  0.00  0.00    +0.000 A 
ATOM     11  N   UNL     1       4.416 -16.700 -11.523  0.00  0.00    +0.000 N 
ATOM     12  C   UNL     1       5.950 -16.294 -13.301  0.00  0.00    +0.000 A 
ATOM     13  C   UNL     1       3.747 -16.155 -12.634  0.00  0.00    +0.000 A 
ATOM     14  C   UNL     1       4.667 -15.876 -13.715  0.00  0.00    +0.000 A 
ATOM     15  C   UNL     1       2.378 -15.869 -12.761  0.00  0.00    +0.000 A 
ATOM     16  C   UNL     1       4.142 -15.321 -14.899  0.00  0.00    +0.000 A 
ATOM     17  C   UNL     1       2.780 -15.042 -15.006  0.00  0.00    +0.000 A 
ATOM     18  C   UNL     1       1.916 -15.314 -13.955  0.00  0.00    +0.000 A 
ATOM     19  C   UNL     1       7.124 -16.315 -14.082  0.00  0.00    +0.000 A 
ATOM     20  C   UNL     1       8.212 -16.961 -13.426  0.00  0.00    +0.000 A 
ATOM     21  C   UNL     1       7.512 -15.890 -15.406  0.00  0.00    +0.000 C 
ATOM     22  C   UNL     1       9.352 -16.951 -14.383  0.00  0.00    +0.000 C 
ATOM     23  N   UNL     1       8.844 -16.320 -15.464  0.00  0.00    +0.000 N 
ATOM     24  H   UNL     1       9.391 -16.156 -16.298  0.00  0.00    +0.000 HD
ATOM     25  O   UNL     1       6.934 -15.311 -16.314  0.00  0.00    +0.000 OA
ATOM     26  C   UNL     1       8.759 -18.251 -11.355  0.00  0.00    +0.000 A 
ATOM     27  C   UNL     1       8.020 -18.621 -10.168  0.00  0.00    +0.000 A 
ATOM     28  C   UNL     1      10.067 -18.751 -11.515  0.00  0.00    +0.000 A 
ATOM     29  C   UNL     1       8.606 -19.476  -9.219  0.00  0.00    +0.000 A 
ATOM     30  C   UNL     1       9.904 -19.943  -9.422  0.00  0.00    +0.000 A 
ATOM     31  C   UNL     1      10.628 -19.583 -10.547  0.00  0.00    +0.000 A 
ENDROOT
BRANCH   3  32
ATOM     32  O   UNL     1       5.132 -20.376 -10.170  0.00  0.00    +0.000 OA
ATOM     33  H   UNL     1       5.703 -19.996 -10.875  0.00  0.00    +0.000 HD
ENDBRANCH   3  32
BRANCH   3  34
ATOM     34  C   UNL     1       4.005 -19.790  -8.095  0.00  0.00    +0.000 C 
ATOM     35  O   UNL     1       4.482 -20.768  -7.514  0.00  0.00    +0.000 OA
BRANCH  34  36
ATOM     36  O   UNL     1       2.892 -19.073  -7.752  0.00  0.00    +0.000 OA
ATOM     37  C   UNL     1       2.796 -18.610  -6.433  0.00  0.00    +0.000 C 
ENDBRANCH  34  36
ENDBRANCH   3  34
TORSDOF 3
ENDMDL
MODEL 8
REMARK VINA RESULT:      -6.2     25.588     27.864
REMARK  Name = 3035817_K252a.pdbqt.pdb
REMARK  3 active torsions:
REMARK  status: ('A' for Active; 'I' for Inactive)
REMARK    1  A    between atoms: C_3  and  O_7
REMARK    2  A    between atoms: C_3  and  C_9
REMARK    3  A    between atoms: C_9  and  O_11
REMARK                            x       y       z     vdW  Elec       q    Type
REMARK                         _______ _______ _______ _____ _____    ______ ____
ROOT
ATOM      1  O   UNL     1      -4.852 -15.422 -21.927  0.00  0.00    +0.000 OA
ATOM      2  C   UNL     1      -5.802 -14.306 -21.794  0.00  0.00    +0.000 C 
ATOM      3  C   UNL     1      -6.050 -14.194 -20.228  0.00  0.00    +0.000 C 
ATOM      4  C   UNL     1      -3.995 -15.280 -20.821  0.00  0.00    +0.000 C 
ATOM      5  C   UNL     1      -4.795 -14.781 -19.765  0.00  0.00    +0.000 C 
ATOM      6  C   UNL     1      -7.057 -14.735 -22.622  0.00  0.00    +0.000 C 
ATOM      7  N   UNL     1      -5.137 -13.117 -22.366  0.00  0.00    +0.000 N 
ATOM      8  C   UNL     1      -3.809 -12.782 -22.449  0.00  0.00    +0.000 A 
ATOM      9  C   UNL     1      -2.731 -13.463 -21.882  0.00  0.00    +0.000 A 
ATOM     10  C   UNL     1      -3.444 -11.594 -23.090  0.00  0.00    +0.000 A 
ATOM     11  N   UNL     1      -2.837 -14.577 -21.108  0.00  0.00    +0.000 N 
ATOM     12  C   UNL     1      -1.483 -12.852 -22.041  0.00  0.00    +0.000 A 
ATOM     13  C   UNL     1      -1.510 -14.698 -20.659  0.00  0.00    +0.000 A 
ATOM     14  C   UNL     1      -0.665 -13.676 -21.236  0.00  0.00    +0.000 A 
ATOM     15  C   UNL     1      -0.980 -15.660 -19.783  0.00  0.00    +0.000 A 
ATOM     16  C   UNL     1       0.698 -13.670 -20.881  0.00  0.00    +0.000 A 
ATOM     17  C   UNL     1       1.207 -14.635 -20.011  0.00  0.00    +0.000 A 
ATOM     18  C   UNL     1       0.379 -15.609 -19.472  0.00  0.00    +0.000 A 
ATOM     19  C   UNL     1      -1.098 -11.667 -22.700  0.00  0.00    +0.000 A 
ATOM     20  C   UNL     1      -2.201 -10.976 -23.281  0.00  0.00    +0.000 A 
ATOM     21  C   UNL     1       0.127 -10.931 -22.908  0.00  0.00    +0.000 C 
ATOM     22  C   UNL     1      -1.651  -9.733 -23.890  0.00  0.00    +0.000 C 
ATOM     23  N   UNL     1      -0.330  -9.815 -23.621  0.00  0.00    +0.000 N 
ATOM     24  H   UNL     1       0.324  -9.101 -23.913  0.00  0.00    +0.000 HD
ATOM     25  O   UNL     1       1.293 -11.123 -22.601  0.00  0.00    +0.000 OA
ATOM     26  C   UNL     1      -4.696 -11.049 -23.429  0.00  0.00    +0.000 A 
ATOM     27  C   UNL     1      -5.711 -11.964 -22.959  0.00  0.00    +0.000 A 
ATOM     28  C   UNL     1      -5.106  -9.853 -24.054  0.00  0.00    +0.000 A 
ATOM     29  C   UNL     1      -7.070 -11.640 -23.113  0.00  0.00    +0.000 A 
ATOM     30  C   UNL     1      -7.425 -10.445 -23.740  0.00  0.00    +0.000 A 
ATOM     31  C   UNL     1      -6.461  -9.568 -24.209  0.00  0.00    +0.000 A 
ENDROOT
BRANCH   3  32
ATOM     32  O   UNL     1      -6.150 -12.852 -19.727  0.00  0.00    +0.000 OA
ATOM     33  H   UNL     1      -6.981 -12.469 -20.083  0.00  0.00    +0.000 HD
ENDBRANCH   3  32
BRANCH   3  34
ATOM     34  C   UNL     1      -7.256 -15.019 -19.786  0.00  0.00    +0.000 C 
ATOM     35  O   UNL     1      -8.360 -14.488 -19.646  0.00  0.00    +0.000 OA
BRANCH  34  36
ATOM     36  O   UNL     1      -6.915 -16.320 -19.537  0.00  0.00    +0.000 OA
ATOM     37  C   UNL     1      -7.789 -17.319 -19.986  0.00  0.00    +0.000 C 
ENDBRANCH  34  36
ENDBRANCH   3  34
TORSDOF 3
ENDMDL
MODEL 9
REMARK VINA RESULT:      -6.1     30.370     34.163
REMARK  Name = 3035817_K252a.pdbqt.pdb
REMARK  3 active torsions:
REMARK  status: ('A' for Active; 'I' for Inactive)
REMARK    1  A    between atoms: C_3  and  O_7
REMARK    2  A    between atoms: C_3  and  C_9
REMARK    3  A    between atoms: C_9  and  O_11
REMARK                            x       y       z     vdW  Elec       q    Type
REMARK                         _______ _______ _______ _____ _____    ______ ____
ROOT
ATOM      1  O   UNL     1       6.302 -19.842  -9.652  0.00  0.00    +0.000 OA
ATOM      2  C   UNL     1       5.424 -18.671  -9.499  0.00  0.00    +0.000 C 
ATOM      3  C   UNL     1       5.950 -17.964  -8.176  0.00  0.00    +0.000 C 
ATOM      4  C   UNL     1       7.566 -19.383  -9.240  0.00  0.00    +0.000 C 
ATOM      5  C   UNL     1       7.326 -18.455  -8.197  0.00  0.00    +0.000 C 
ATOM      6  C   UNL     1       3.977 -19.254  -9.393  0.00  0.00    +0.000 C 
ATOM      7  N   UNL     1       5.605 -17.847 -10.711  0.00  0.00    +0.000 N 
ATOM      8  C   UNL     1       6.686 -17.695 -11.542  0.00  0.00    +0.000 A 
ATOM      9  C   UNL     1       7.968 -18.217 -11.361  0.00  0.00    +0.000 A 
ATOM     10  C   UNL     1       6.573 -16.868 -12.665  0.00  0.00    +0.000 A 
ATOM     11  N   UNL     1       8.363 -18.950 -10.286  0.00  0.00    +0.000 N 
ATOM     12  C   UNL     1       8.915 -17.830 -12.315  0.00  0.00    +0.000 A 
ATOM     13  C   UNL     1       9.747 -19.022 -10.525  0.00  0.00    +0.000 A 
ATOM     14  C   UNL     1      10.099 -18.371 -11.768  0.00  0.00    +0.000 A 
ATOM     15  C   UNL     1      10.729 -19.637  -9.731  0.00  0.00    +0.000 A 
ATOM     16  C   UNL     1      11.456 -18.365 -12.146  0.00  0.00    +0.000 A 
ATOM     17  C   UNL     1      12.416 -18.983 -11.345  0.00  0.00    +0.000 A 
ATOM     18  C   UNL     1      12.055 -19.605 -10.159  0.00  0.00    +0.000 A 
ATOM     19  C   UNL     1       8.811 -17.015 -13.461  0.00  0.00    +0.000 A 
ATOM     20  C   UNL     1       7.500 -16.487 -13.645  0.00  0.00    +0.000 A 
ATOM     21  C   UNL     1       9.701 -16.529 -14.488  0.00  0.00    +0.000 C 
ATOM     22  C   UNL     1       7.558 -15.615 -14.851  0.00  0.00    +0.000 C 
ATOM     23  N   UNL     1       8.846 -15.717 -15.245  0.00  0.00    +0.000 N 
ATOM     24  H   UNL     1       9.201 -15.229 -16.055  0.00  0.00    +0.000 HD
ATOM     25  O   UNL     1      10.885 -16.703 -14.737  0.00  0.00    +0.000 OA
ATOM     26  C   UNL     1       5.265 -16.371 -12.531  0.00  0.00    +0.000 A 
ATOM     27  C   UNL     1       4.701 -16.946 -11.330  0.00  0.00    +0.000 A 
ATOM     28  C   UNL     1       4.484 -15.458 -13.269  0.00  0.00    +0.000 A 
ATOM     29  C   UNL     1       3.411 -16.574 -10.915  0.00  0.00    +0.000 A 
ATOM     30  C   UNL     1       2.677 -15.668 -11.682  0.00  0.00    +0.000 A 
ATOM     31  C   UNL     1       3.200 -15.123 -12.843  0.00  0.00    +0.000 A 
ENDROOT
BRANCH   3  32
ATOM     32  O   UNL     1       5.966 -16.530  -8.223  0.00  0.00    +0.000 OA
ATOM     33  H   UNL     1       6.905 -16.250  -8.299  0.00  0.00    +0.000 HD
ENDBRANCH   3  32
BRANCH   3  34
ATOM     34  C   UNL     1       5.198 -18.448  -6.938  0.00  0.00    +0.000 C 
ATOM     35  O   UNL     1       4.318 -17.750  -6.428  0.00  0.00    +0.000 OA
BRANCH  34  36
ATOM     36  O   UNL     1       5.669 -19.655  -6.500  0.00  0.00    +0.000 OA
ATOM     37  C   UNL     1       4.757 -20.529  -5.892  0.00  0.00    +0.000 C 
ENDBRANCH  34  36
ENDBRANCH   3  34
TORSDOF 3
ENDMDL
