MODEL 1
REMARK VINA RESULT:      -5.0      0.000      0.000
REMARK  Name = 3136_Dimethoxy.pdbqt.pdb
REMARK  2 active torsions:
REMARK  status: ('A' for Active; 'I' for Inactive)
REMARK    1  A    between atoms: C_7  and  O_13
REMARK    2  A    between atoms: C_8  and  O_15
REMARK                            x       y       z     vdW  Elec       q    Type
REMARK                         _______ _______ _______ _____ _____    ______ ____
ROOT
ATOM      1  O   UNL     1       9.430  -1.520 -18.798  0.00  0.00    +0.000 OA
ATOM      2  O   UNL     1       8.520   3.716 -18.400  0.00  0.00    +0.000 OA
ATOM      3  C   UNL     1      10.002   0.508 -17.784  0.00  0.00    +0.000 A 
ATOM      4  C   UNL     1       9.782   1.875 -17.699  0.00  0.00    +0.000 A 
ATOM      5  C   UNL     1       9.199  -0.323 -18.688  0.00  0.00    +0.000 C 
ATOM      6  C   UNL     1       8.747   2.519 -18.515  0.00  0.00    +0.000 C 
ATOM      7  C   UNL     1       8.123   0.333 -19.470  0.00  0.00    +0.000 C 
ATOM      8  C   UNL     1       7.978   1.674 -19.461  0.00  0.00    +0.000 C 
ATOM      9  C   UNL     1      10.993  -0.090 -17.007  0.00  0.00    +0.000 A 
ATOM     10  C   UNL     1      10.548   2.654 -16.831  0.00  0.00    +0.000 A 
ATOM     11  C   UNL     1      11.760   0.686 -16.141  0.00  0.00    +0.000 A 
ATOM     12  C   UNL     1      11.537   2.058 -16.052  0.00  0.00    +0.000 A 
ENDROOT
BRANCH   7  13
ATOM     13  O   UNL     1       7.372  -0.512 -20.267  0.00  0.00    +0.000 OA
ATOM     14  C   UNL     1       6.204  -0.894 -19.581  0.00  0.00    +0.000 C 
ENDBRANCH   7  13
BRANCH   8  15
ATOM     15  O   UNL     1       7.053   2.349 -20.238  0.00  0.00    +0.000 OA
ATOM     16  C   UNL     1       7.570   2.537 -21.533  0.00  0.00    +0.000 C 
ENDBRANCH   8  15
TORSDOF 2
ENDMDL
MODEL 2
REMARK VINA RESULT:      -4.7     23.164     24.515
REMARK  Name = 3136_Dimethoxy.pdbqt.pdb
REMARK  2 active torsions:
REMARK  status: ('A' for Active; 'I' for Inactive)
REMARK    1  A    between atoms: C_7  and  O_13
REMARK    2  A    between atoms: C_8  and  O_15
REMARK                            x       y       z     vdW  Elec       q    Type
REMARK                         _______ _______ _______ _____ _____    ______ ____
ROOT
ATOM      1  O   UNL     1     -14.387   8.225  -9.694  0.00  0.00    +0.000 OA
ATOM      2  O   UNL     1     -10.262   5.819  -7.330  0.00  0.00    +0.000 OA
ATOM      3  C   UNL     1     -12.842   8.235  -7.939  0.00  0.00    +0.000 A 
ATOM      4  C   UNL     1     -11.784   7.595  -7.310  0.00  0.00    +0.000 A 
ATOM      5  C   UNL     1     -13.422   7.686  -9.170  0.00  0.00    +0.000 C 
ATOM      6  C   UNL     1     -11.228   6.353  -7.857  0.00  0.00    +0.000 C 
ATOM      7  C   UNL     1     -12.817   6.457  -9.739  0.00  0.00    +0.000 C 
ATOM      8  C   UNL     1     -11.857   5.783  -9.073  0.00  0.00    +0.000 C 
ATOM      9  C   UNL     1     -13.365   9.412  -7.404  0.00  0.00    +0.000 A 
ATOM     10  C   UNL     1     -11.237   8.130  -6.143  0.00  0.00    +0.000 A 
ATOM     11  C   UNL     1     -12.822   9.947  -6.239  0.00  0.00    +0.000 A 
ATOM     12  C   UNL     1     -11.757   9.307  -5.608  0.00  0.00    +0.000 A 
ENDROOT
BRANCH   7  13
ATOM     13  O   UNL     1     -13.378   6.017 -10.925  0.00  0.00    +0.000 OA
ATOM     14  C   UNL     1     -12.728   6.631 -12.011  0.00  0.00    +0.000 C 
ENDBRANCH   7  13
BRANCH   8  15
ATOM     15  O   UNL     1     -11.319   4.586  -9.511  0.00  0.00    +0.000 OA
ATOM     16  C   UNL     1     -10.186   4.838 -10.306  0.00  0.00    +0.000 C 
ENDBRANCH   8  15
TORSDOF 2
ENDMDL
MODEL 3
REMARK VINA RESULT:      -4.7     23.153     24.407
REMARK  Name = 3136_Dimethoxy.pdbqt.pdb
REMARK  2 active torsions:
REMARK  status: ('A' for Active; 'I' for Inactive)
REMARK    1  A    between atoms: C_7  and  O_13
REMARK    2  A    between atoms: C_8  and  O_15
REMARK                            x       y       z     vdW  Elec       q    Type
REMARK                         _______ _______ _______ _____ _____    ______ ____
ROOT
ATOM      1  O   UNL     1     -10.187   5.837  -7.341  0.00  0.00    +0.000 OA
ATOM      2  O   UNL     1     -14.414   8.148  -9.618  0.00  0.00    +0.000 OA
ATOM      3  C   UNL     1     -11.747   7.579  -7.289  0.00  0.00    +0.000 A 
ATOM      4  C   UNL     1     -12.832   8.195  -7.897  0.00  0.00    +0.000 A 
ATOM      5  C   UNL     1     -11.175   6.349  -7.849  0.00  0.00    +0.000 C 
ATOM      6  C   UNL     1     -13.426   7.633  -9.115  0.00  0.00    +0.000 C 
ATOM      7  C   UNL     1     -11.817   5.765  -9.053  0.00  0.00    +0.000 C 
ATOM      8  C   UNL     1     -12.806   6.418  -9.697  0.00  0.00    +0.000 C 
ATOM      9  C   UNL     1     -11.188   8.127  -6.135  0.00  0.00    +0.000 A 
ATOM     10  C   UNL     1     -13.370   9.361  -7.351  0.00  0.00    +0.000 A 
ATOM     11  C   UNL     1     -11.722   9.292  -5.590  0.00  0.00    +0.000 A 
ATOM     12  C   UNL     1     -12.814   9.909  -6.197  0.00  0.00    +0.000 A 
ENDROOT
BRANCH   7  13
ATOM     13  O   UNL     1     -11.262   4.581  -9.503  0.00  0.00    +0.000 OA
ATOM     14  C   UNL     1     -10.168   4.862 -10.343  0.00  0.00    +0.000 C 
ENDBRANCH   7  13
BRANCH   8  15
ATOM     15  O   UNL     1     -13.381   5.967 -10.872  0.00  0.00    +0.000 OA
ATOM     16  C   UNL     1     -12.769   6.598 -11.971  0.00  0.00    +0.000 C 
ENDBRANCH   8  15
TORSDOF 2
ENDMDL
MODEL 4
REMARK VINA RESULT:      -4.7     19.335     21.045
REMARK  Name = 3136_Dimethoxy.pdbqt.pdb
REMARK  2 active torsions:
REMARK  status: ('A' for Active; 'I' for Inactive)
REMARK    1  A    between atoms: C_7  and  O_13
REMARK    2  A    between atoms: C_8  and  O_15
REMARK                            x       y       z     vdW  Elec       q    Type
REMARK                         _______ _______ _______ _____ _____    ______ ____
ROOT
ATOM      1  O   UNL     1      -6.694  15.884 -14.408  0.00  0.00    +0.000 OA
ATOM      2  O   UNL     1      -5.120  15.495 -19.485  0.00  0.00    +0.000 OA
ATOM      3  C   UNL     1      -4.986  15.325 -15.905  0.00  0.00    +0.000 A 
ATOM      4  C   UNL     1      -4.585  15.200 -17.227  0.00  0.00    +0.000 A 
ATOM      5  C   UNL     1      -6.325  15.823 -15.574  0.00  0.00    +0.000 C 
ATOM      6  C   UNL     1      -5.494  15.557 -18.322  0.00  0.00    +0.000 C 
ATOM      7  C   UNL     1      -7.216  16.227 -16.689  0.00  0.00    +0.000 C 
ATOM      8  C   UNL     1      -6.862  16.011 -17.973  0.00  0.00    +0.000 C 
ATOM      9  C   UNL     1      -4.114  14.976 -14.874  0.00  0.00    +0.000 A 
ATOM     10  C   UNL     1      -3.306  14.730 -17.529  0.00  0.00    +0.000 A 
ATOM     11  C   UNL     1      -2.837  14.506 -15.173  0.00  0.00    +0.000 A 
ATOM     12  C   UNL     1      -2.433  14.383 -16.501  0.00  0.00    +0.000 A 
ENDROOT
BRANCH   7  13
ATOM     13  O   UNL     1      -8.446  16.733 -16.310  0.00  0.00    +0.000 OA
ATOM     14  C   UNL     1      -8.391  18.139 -16.280  0.00  0.00    +0.000 C 
ENDBRANCH   7  13
BRANCH   8  15
ATOM     15  O   UNL     1      -7.686  16.285 -19.050  0.00  0.00    +0.000 OA
ATOM     16  C   UNL     1      -8.556  15.199 -19.267  0.00  0.00    +0.000 C 
ENDBRANCH   8  15
TORSDOF 2
ENDMDL
MODEL 5
REMARK VINA RESULT:      -4.7     19.320     20.999
REMARK  Name = 3136_Dimethoxy.pdbqt.pdb
REMARK  2 active torsions:
REMARK  status: ('A' for Active; 'I' for Inactive)
REMARK    1  A    between atoms: C_7  and  O_13
REMARK    2  A    between atoms: C_8  and  O_15
REMARK                            x       y       z     vdW  Elec       q    Type
REMARK                         _______ _______ _______ _____ _____    ______ ____
ROOT
ATOM      1  O   UNL     1      -5.008  15.621 -19.581  0.00  0.00    +0.000 OA
ATOM      2  O   UNL     1      -6.818  15.772 -14.571  0.00  0.00    +0.000 OA
ATOM      3  C   UNL     1      -4.576  15.225 -17.317  0.00  0.00    +0.000 A 
ATOM      4  C   UNL     1      -5.039  15.288 -16.011  0.00  0.00    +0.000 A 
ATOM      5  C   UNL     1      -5.436  15.629 -18.435  0.00  0.00    +0.000 C 
ATOM      6  C   UNL     1      -6.395  15.766 -15.719  0.00  0.00    +0.000 C 
ATOM      7  C   UNL     1      -6.821  16.064 -18.129  0.00  0.00    +0.000 C 
ATOM      8  C   UNL     1      -7.234  16.219 -16.855  0.00  0.00    +0.000 C 
ATOM      9  C   UNL     1      -3.283  14.774 -17.580  0.00  0.00    +0.000 A 
ATOM     10  C   UNL     1      -4.213  14.895 -14.956  0.00  0.00    +0.000 A 
ATOM     11  C   UNL     1      -2.457  14.383 -16.529  0.00  0.00    +0.000 A 
ATOM     12  C   UNL     1      -2.922  14.442 -15.217  0.00  0.00    +0.000 A 
ENDROOT
BRANCH   7  13
ATOM     13  O   UNL     1      -7.596  16.386 -19.229  0.00  0.00    +0.000 OA
ATOM     14  C   UNL     1      -8.407  15.289 -19.573  0.00  0.00    +0.000 C 
ENDBRANCH   7  13
BRANCH   8  15
ATOM     15  O   UNL     1      -8.483  16.705 -16.509  0.00  0.00    +0.000 OA
ATOM     16  C   UNL     1      -8.436  18.110 -16.423  0.00  0.00    +0.000 C 
ENDBRANCH   8  15
TORSDOF 2
ENDMDL
MODEL 6
REMARK VINA RESULT:      -4.6      8.245     10.408
REMARK  Name = 3136_Dimethoxy.pdbqt.pdb
REMARK  2 active torsions:
REMARK  status: ('A' for Active; 'I' for Inactive)
REMARK    1  A    between atoms: C_7  and  O_13
REMARK    2  A    between atoms: C_8  and  O_15
REMARK                            x       y       z     vdW  Elec       q    Type
REMARK                         _______ _______ _______ _____ _____    ______ ____
ROOT
ATOM      1  O   UNL     1      -2.670  -2.995 -19.238  0.00  0.00    +0.000 OA
ATOM      2  O   UNL     1       1.116   0.747 -18.987  0.00  0.00    +0.000 OA
ATOM      3  C   UNL     1      -0.390  -2.489 -19.346  0.00  0.00    +0.000 A 
ATOM      4  C   UNL     1       0.594  -1.511 -19.305  0.00  0.00    +0.000 A 
ATOM      5  C   UNL     1      -1.801  -2.138 -19.152  0.00  0.00    +0.000 C 
ATOM      6  C   UNL     1       0.243  -0.105 -19.074  0.00  0.00    +0.000 C 
ATOM      7  C   UNL     1      -2.136  -0.721 -18.869  0.00  0.00    +0.000 C 
ATOM      8  C   UNL     1      -1.192   0.241 -18.930  0.00  0.00    +0.000 C 
ATOM      9  C   UNL     1      -0.043  -3.820 -19.573  0.00  0.00    +0.000 A 
ATOM     10  C   UNL     1       1.933  -1.858 -19.486  0.00  0.00    +0.000 A 
ATOM     11  C   UNL     1       1.294  -4.168 -19.755  0.00  0.00    +0.000 A 
ATOM     12  C   UNL     1       2.282  -3.187 -19.711  0.00  0.00    +0.000 A 
ENDROOT
BRANCH   7  13
ATOM     13  O   UNL     1      -3.477  -0.464 -18.648  0.00  0.00    +0.000 OA
ATOM     14  C   UNL     1      -3.723  -0.394 -17.265  0.00  0.00    +0.000 C 
ENDBRANCH   7  13
BRANCH   8  15
ATOM     15  O   UNL     1      -1.461   1.588 -18.764  0.00  0.00    +0.000 OA
ATOM     16  C   UNL     1      -1.742   2.172 -20.014  0.00  0.00    +0.000 C 
ENDBRANCH   8  15
TORSDOF 2
ENDMDL
MODEL 7
REMARK VINA RESULT:      -4.5     12.746     15.089
REMARK  Name = 3136_Dimethoxy.pdbqt.pdb
REMARK  2 active torsions:
REMARK  status: ('A' for Active; 'I' for Inactive)
REMARK    1  A    between atoms: C_7  and  O_13
REMARK    2  A    between atoms: C_8  and  O_15
REMARK                            x       y       z     vdW  Elec       q    Type
REMARK                         _______ _______ _______ _____ _____    ______ ____
ROOT
ATOM      1  O   UNL     1      10.658  -3.805  -6.913  0.00  0.00    +0.000 OA
ATOM      2  O   UNL     1      13.587  -8.098  -5.732  0.00  0.00    +0.000 OA
ATOM      3  C   UNL     1      10.930  -5.694  -5.561  0.00  0.00    +0.000 A 
ATOM      4  C   UNL     1      11.680  -6.825  -5.271  0.00  0.00    +0.000 A 
ATOM      5  C   UNL     1      11.348  -4.774  -6.625  0.00  0.00    +0.000 C 
ATOM      6  C   UNL     1      12.901  -7.128  -6.025  0.00  0.00    +0.000 C 
ATOM      7  C   UNL     1      12.611  -5.066  -7.346  0.00  0.00    +0.000 C 
ATOM      8  C   UNL     1      13.282  -6.216  -7.131  0.00  0.00    +0.000 C 
ATOM      9  C   UNL     1       9.768  -5.421  -4.840  0.00  0.00    +0.000 A 
ATOM     10  C   UNL     1      11.275  -7.690  -4.252  0.00  0.00    +0.000 A 
ATOM     11  C   UNL     1       9.362  -6.284  -3.824  0.00  0.00    +0.000 A 
ATOM     12  C   UNL     1      10.116  -7.418  -3.530  0.00  0.00    +0.000 A 
ENDROOT
BRANCH   7  13
ATOM     13  O   UNL     1      12.973  -4.136  -8.303  0.00  0.00    +0.000 OA
ATOM     14  C   UNL     1      14.019  -3.335  -7.811  0.00  0.00    +0.000 C 
ENDBRANCH   7  13
BRANCH   8  15
ATOM     15  O   UNL     1      14.415  -6.584  -7.835  0.00  0.00    +0.000 OA
ATOM     16  C   UNL     1      14.041  -7.183  -9.053  0.00  0.00    +0.000 C 
ENDBRANCH   8  15
TORSDOF 2
ENDMDL
MODEL 8
REMARK VINA RESULT:      -4.5     23.179     24.592
REMARK  Name = 3136_Dimethoxy.pdbqt.pdb
REMARK  2 active torsions:
REMARK  status: ('A' for Active; 'I' for Inactive)
REMARK    1  A    between atoms: C_7  and  O_13
REMARK    2  A    between atoms: C_8  and  O_15
REMARK                            x       y       z     vdW  Elec       q    Type
REMARK                         _______ _______ _______ _____ _____    ______ ____
ROOT
ATOM      1  O   UNL     1     -12.307   8.524 -10.713  0.00  0.00    +0.000 OA
ATOM      2  O   UNL     1     -11.341   7.260  -5.627  0.00  0.00    +0.000 OA
ATOM      3  C   UNL     1     -11.441   6.965  -9.200  0.00  0.00    +0.000 A 
ATOM      4  C   UNL     1     -11.168   6.647  -7.878  0.00  0.00    +0.000 A 
ATOM      5  C   UNL     1     -12.112   8.224  -9.543  0.00  0.00    +0.000 C 
ATOM      6  C   UNL     1     -11.537   7.566  -6.795  0.00  0.00    +0.000 C 
ATOM      7  C   UNL     1     -12.525   9.120  -8.435  0.00  0.00    +0.000 C 
ATOM      8  C   UNL     1     -12.169   8.857  -7.161  0.00  0.00    +0.000 C 
ATOM      9  C   UNL     1     -11.079   6.086 -10.220  0.00  0.00    +0.000 A 
ATOM     10  C   UNL     1     -10.534   5.444  -7.564  0.00  0.00    +0.000 A 
ATOM     11  C   UNL     1     -10.445   4.885  -9.909  0.00  0.00    +0.000 A 
ATOM     12  C   UNL     1     -10.173   4.563  -8.581  0.00  0.00    +0.000 A 
ENDROOT
BRANCH   7  13
ATOM     13  O   UNL     1     -13.195  10.267  -8.821  0.00  0.00    +0.000 OA
ATOM     14  C   UNL     1     -14.569   9.992  -8.948  0.00  0.00    +0.000 C 
ENDBRANCH   7  13
BRANCH   8  15
ATOM     15  O   UNL     1     -12.447   9.700  -6.099  0.00  0.00    +0.000 OA
ATOM     16  C   UNL     1     -13.704   9.376  -5.555  0.00  0.00    +0.000 C 
ENDBRANCH   8  15
TORSDOF 2
ENDMDL
MODEL 9
REMARK VINA RESULT:      -4.5      3.493      5.257
REMARK  Name = 3136_Dimethoxy.pdbqt.pdb
REMARK  2 active torsions:
REMARK  status: ('A' for Active; 'I' for Inactive)
REMARK    1  A    between atoms: C_7  and  O_13
REMARK    2  A    between atoms: C_8  and  O_15
REMARK                            x       y       z     vdW  Elec       q    Type
REMARK                         _______ _______ _______ _____ _____    ______ ____
ROOT
ATOM      1  O   UNL     1      12.378   3.379 -19.752  0.00  0.00    +0.000 OA
ATOM      2  O   UNL     1      11.287  -1.767 -18.895  0.00  0.00    +0.000 OA
ATOM      3  C   UNL     1      12.757   1.155 -20.368  0.00  0.00    +0.000 A 
ATOM      4  C   UNL     1      12.492  -0.186 -20.128  0.00  0.00    +0.000 A 
ATOM      5  C   UNL     1      12.104   2.200 -19.572  0.00  0.00    +0.000 C 
ATOM      6  C   UNL     1      11.559  -0.587 -19.069  0.00  0.00    +0.000 C 
ATOM      7  C   UNL     1      11.124   1.782 -18.539  0.00  0.00    +0.000 C 
ATOM      8  C   UNL     1      10.944   0.479 -18.241  0.00  0.00    +0.000 C 
ATOM      9  C   UNL     1      13.652   1.521 -21.373  0.00  0.00    +0.000 A 
ATOM     10  C   UNL     1      13.116  -1.171 -20.895  0.00  0.00    +0.000 A 
ATOM     11  C   UNL     1      14.277   0.540 -22.139  0.00  0.00    +0.000 A 
ATOM     12  C   UNL     1      14.009  -0.806 -21.901  0.00  0.00    +0.000 A 
ENDROOT
BRANCH   7  13
ATOM     13  O   UNL     1      10.508   2.815 -17.857  0.00  0.00    +0.000 OA
ATOM     14  C   UNL     1       9.230   3.043 -18.400  0.00  0.00    +0.000 C 
ENDBRANCH   7  13
BRANCH   8  15
ATOM     15  O   UNL     1      10.113   0.034 -17.228  0.00  0.00    +0.000 OA
ATOM     16  C   UNL     1      10.819   0.012 -16.011  0.00  0.00    +0.000 C 
ENDBRANCH   8  15
TORSDOF 2
ENDMDL
