MODEL 1
REMARK VINA RESULT:      -4.9      0.000      0.000
REMARK  Name = 326_Cuminaldehyde.pdb
REMARK  1 active torsions:
REMARK  status: ('A' for Active; 'I' for Inactive)
REMARK    1  A    between atoms: C_1  and  C_7
REMARK                            x       y       z     vdW  Elec       q    Type
REMARK                         _______ _______ _______ _____ _____    ______ ____
ROOT
ATOM      1  C   UNL     1      -1.944   0.686   0.823  0.00  0.00    +0.000 C 
ATOM      2  C   UNL     1      -1.698   0.996   2.162  0.00  0.00    +0.000 C 
ATOM      3  C   UNL     1      -1.074   1.156  -0.163  0.00  0.00    +0.000 C 
ATOM      4  C   UNL     1      -0.591   1.768   2.512  0.00  0.00    +0.000 C 
ATOM      5  C   UNL     1       0.033   1.929   0.186  0.00  0.00    +0.000 C 
ATOM      6  C   UNL     1       0.273   2.233   1.524  0.00  0.00    +0.000 C 
ATOM      7  O   UNL     1       2.338   3.675   2.176  0.00  0.00    +0.000 OA
ATOM      8  C   UNL     1       1.405   3.023   1.881  0.00  0.00    +0.000 C 
ENDROOT
BRANCH   1   9
ATOM      9  C   UNL     1      -3.104  -0.123   0.457  0.00  0.00    +0.000 C 
ATOM     10  C   UNL     1      -2.966  -1.584   0.108  0.00  0.00    +0.000 C 
ATOM     11  C   UNL     1      -4.491   0.466   0.410  0.00  0.00    +0.000 C 
ENDBRANCH   1   9
TORSDOF 1
ENDMDL
MODEL 2
REMARK VINA RESULT:      -4.9      2.834      4.874
REMARK  Name = 326_Cuminaldehyde.pdb
REMARK  1 active torsions:
REMARK  status: ('A' for Active; 'I' for Inactive)
REMARK    1  A    between atoms: C_1  and  C_7
REMARK                            x       y       z     vdW  Elec       q    Type
REMARK                         _______ _______ _______ _____ _____    ______ ____
ROOT
ATOM      1  C   UNL     1      -0.350   1.598   0.827  0.00  0.00    +0.000 C 
ATOM      2  C   UNL     1      -1.086   0.922  -0.149  0.00  0.00    +0.000 C 
ATOM      3  C   UNL     1      -0.771   1.557   2.158  0.00  0.00    +0.000 C 
ATOM      4  C   UNL     1      -2.232   0.210   0.204  0.00  0.00    +0.000 C 
ATOM      5  C   UNL     1      -1.917   0.846   2.511  0.00  0.00    +0.000 C 
ATOM      6  C   UNL     1      -2.646   0.173   1.533  0.00  0.00    +0.000 C 
ATOM      7  O   UNL     1      -4.785  -1.155   2.191  0.00  0.00    +0.000 OA
ATOM      8  C   UNL     1      -3.818  -0.555   1.894  0.00  0.00    +0.000 C 
ENDROOT
BRANCH   1   9
ATOM      9  C   UNL     1       0.850   2.343   0.458  0.00  0.00    +0.000 C 
ATOM     10  C   UNL     1       2.230   1.774   0.677  0.00  0.00    +0.000 C 
ATOM     11  C   UNL     1       0.766   3.716  -0.161  0.00  0.00    +0.000 C 
ENDBRANCH   1   9
TORSDOF 1
ENDMDL
MODEL 3
REMARK VINA RESULT:      -4.6     19.320     20.400
REMARK  Name = 326_Cuminaldehyde.pdb
REMARK  1 active torsions:
REMARK  status: ('A' for Active; 'I' for Inactive)
REMARK    1  A    between atoms: C_1  and  C_7
REMARK                            x       y       z     vdW  Elec       q    Type
REMARK                         _______ _______ _______ _____ _____    ______ ____
ROOT
ATOM      1  C   UNL     1      -5.846  -1.831 -18.788  0.00  0.00    +0.000 C 
ATOM      2  C   UNL     1      -4.944  -1.836 -17.721  0.00  0.00    +0.000 C 
ATOM      3  C   UNL     1      -5.692  -0.897 -19.814  0.00  0.00    +0.000 C 
ATOM      4  C   UNL     1      -3.897  -0.916 -17.682  0.00  0.00    +0.000 C 
ATOM      5  C   UNL     1      -4.646   0.024 -19.776  0.00  0.00    +0.000 C 
ATOM      6  C   UNL     1      -3.750   0.012 -18.709  0.00  0.00    +0.000 C 
ATOM      7  O   UNL     1      -1.797   1.730 -18.636  0.00  0.00    +0.000 OA
ATOM      8  C   UNL     1      -2.680   0.954 -18.669  0.00  0.00    +0.000 C 
ENDROOT
BRANCH   1   9
ATOM      9  C   UNL     1      -6.942  -2.795 -18.829  0.00  0.00    +0.000 C 
ATOM     10  C   UNL     1      -6.708  -4.238 -19.200  0.00  0.00    +0.000 C 
ATOM     11  C   UNL     1      -8.358  -2.392 -18.501  0.00  0.00    +0.000 C 
ENDBRANCH   1   9
TORSDOF 1
ENDMDL
MODEL 4
REMARK VINA RESULT:      -4.5      2.311      3.958
REMARK  Name = 326_Cuminaldehyde.pdb
REMARK  1 active torsions:
REMARK  status: ('A' for Active; 'I' for Inactive)
REMARK    1  A    between atoms: C_1  and  C_7
REMARK                            x       y       z     vdW  Elec       q    Type
REMARK                         _______ _______ _______ _____ _____    ______ ____
ROOT
ATOM      1  C   UNL     1      -5.393  -0.519   0.595  0.00  0.00    +0.000 C 
ATOM      2  C   UNL     1      -4.305  -1.395   0.642  0.00  0.00    +0.000 C 
ATOM      3  C   UNL     1      -5.165   0.852   0.457  0.00  0.00    +0.000 C 
ATOM      4  C   UNL     1      -3.004  -0.905   0.549  0.00  0.00    +0.000 C 
ATOM      5  C   UNL     1      -3.863   1.343   0.365  0.00  0.00    +0.000 C 
ATOM      6  C   UNL     1      -2.784   0.463   0.412  0.00  0.00    +0.000 C 
ATOM      7  O   UNL     1      -0.355   1.379   0.241  0.00  0.00    +0.000 OA
ATOM      8  C   UNL     1      -1.453   0.965   0.318  0.00  0.00    +0.000 C 
ENDROOT
BRANCH   1   9
ATOM      9  C   UNL     1      -6.756  -1.033   0.691  0.00  0.00    +0.000 C 
ATOM     10  C   UNL     1      -7.540  -1.421  -0.538  0.00  0.00    +0.000 C 
ATOM     11  C   UNL     1      -7.443  -1.199   2.024  0.00  0.00    +0.000 C 
ENDBRANCH   1   9
TORSDOF 1
ENDMDL
MODEL 5
REMARK VINA RESULT:      -4.5     21.348     22.708
REMARK  Name = 326_Cuminaldehyde.pdb
REMARK  1 active torsions:
REMARK  status: ('A' for Active; 'I' for Inactive)
REMARK    1  A    between atoms: C_1  and  C_7
REMARK                            x       y       z     vdW  Elec       q    Type
REMARK                         _______ _______ _______ _____ _____    ______ ____
ROOT
ATOM      1  C   UNL     1       3.554 -15.308 -14.103  0.00  0.00    +0.000 C 
ATOM      2  C   UNL     1       3.166 -14.677 -12.919  0.00  0.00    +0.000 C 
ATOM      3  C   UNL     1       4.741 -16.043 -14.134  0.00  0.00    +0.000 C 
ATOM      4  C   UNL     1       3.958 -14.781 -11.776  0.00  0.00    +0.000 C 
ATOM      5  C   UNL     1       5.534 -16.146 -12.991  0.00  0.00    +0.000 C 
ATOM      6  C   UNL     1       5.140 -15.515 -11.814  0.00  0.00    +0.000 C 
ATOM      7  O   UNL     1       6.619 -15.707  -9.681  0.00  0.00    +0.000 OA
ATOM      8  C   UNL     1       5.951 -15.620 -10.645  0.00  0.00    +0.000 C 
ENDROOT
BRANCH   1   9
ATOM      9  C   UNL     1       2.724 -15.200 -15.300  0.00  0.00    +0.000 C 
ATOM     10  C   UNL     1       1.696 -16.249 -15.643  0.00  0.00    +0.000 C 
ATOM     11  C   UNL     1       2.857 -14.035 -16.247  0.00  0.00    +0.000 C 
ENDBRANCH   1   9
TORSDOF 1
ENDMDL
MODEL 6
REMARK VINA RESULT:      -4.5     21.783     22.811
REMARK  Name = 326_Cuminaldehyde.pdb
REMARK  1 active torsions:
REMARK  status: ('A' for Active; 'I' for Inactive)
REMARK    1  A    between atoms: C_1  and  C_7
REMARK                            x       y       z     vdW  Elec       q    Type
REMARK                         _______ _______ _______ _____ _____    ______ ____
ROOT
ATOM      1  C   UNL     1      -3.415  14.739 -17.198  0.00  0.00    +0.000 C 
ATOM      2  C   UNL     1      -4.583  15.435 -17.522  0.00  0.00    +0.000 C 
ATOM      3  C   UNL     1      -3.194  14.346 -15.876  0.00  0.00    +0.000 C 
ATOM      4  C   UNL     1      -5.520  15.733 -16.533  0.00  0.00    +0.000 C 
ATOM      5  C   UNL     1      -4.129  14.644 -14.887  0.00  0.00    +0.000 C 
ATOM      6  C   UNL     1      -5.292  15.338 -15.218  0.00  0.00    +0.000 C 
ATOM      7  O   UNL     1      -7.039  15.896 -13.372  0.00  0.00    +0.000 OA
ATOM      8  C   UNL     1      -6.249  15.644 -14.206  0.00  0.00    +0.000 C 
ENDROOT
BRANCH   1   9
ATOM      9  C   UNL     1      -2.435  14.426 -18.234  0.00  0.00    +0.000 C 
ATOM     10  C   UNL     1      -1.355  15.407 -18.618  0.00  0.00    +0.000 C 
ATOM     11  C   UNL     1      -2.457  13.108 -18.966  0.00  0.00    +0.000 C 
ENDBRANCH   1   9
TORSDOF 1
ENDMDL
MODEL 7
REMARK VINA RESULT:      -4.5      2.952      5.972
REMARK  Name = 326_Cuminaldehyde.pdb
REMARK  1 active torsions:
REMARK  status: ('A' for Active; 'I' for Inactive)
REMARK    1  A    between atoms: C_1  and  C_7
REMARK                            x       y       z     vdW  Elec       q    Type
REMARK                         _______ _______ _______ _____ _____    ______ ____
ROOT
ATOM      1  C   UNL     1       3.187   2.696   0.761  0.00  0.00    +0.000 C 
ATOM      2  C   UNL     1       2.906   1.332   0.874  0.00  0.00    +0.000 C 
ATOM      3  C   UNL     1       2.147   3.593   0.505  0.00  0.00    +0.000 C 
ATOM      4  C   UNL     1       1.598   0.870   0.734  0.00  0.00    +0.000 C 
ATOM      5  C   UNL     1       0.839   3.132   0.364  0.00  0.00    +0.000 C 
ATOM      6  C   UNL     1       0.567   1.770   0.479  0.00  0.00    +0.000 C 
ATOM      7  O   UNL     1      -1.874   0.908   0.216  0.00  0.00    +0.000 OA
ATOM      8  C   UNL     1      -0.771   1.297   0.335  0.00  0.00    +0.000 C 
ENDROOT
BRANCH   1   9
ATOM      9  C   UNL     1       4.556   3.180   0.909  0.00  0.00    +0.000 C 
ATOM     10  C   UNL     1       5.365   2.890   2.148  0.00  0.00    +0.000 C 
ATOM     11  C   UNL     1       5.225   3.992  -0.172  0.00  0.00    +0.000 C 
ENDBRANCH   1   9
TORSDOF 1
ENDMDL
MODEL 8
REMARK VINA RESULT:      -4.3     22.977     24.025
REMARK  Name = 326_Cuminaldehyde.pdb
REMARK  1 active torsions:
REMARK  status: ('A' for Active; 'I' for Inactive)
REMARK    1  A    between atoms: C_1  and  C_7
REMARK                            x       y       z     vdW  Elec       q    Type
REMARK                         _______ _______ _______ _____ _____    ______ ____
ROOT
ATOM      1  C   UNL     1      -4.363  15.220 -16.606  0.00  0.00    +0.000 C 
ATOM      2  C   UNL     1      -3.703  14.585 -17.661  0.00  0.00    +0.000 C 
ATOM      3  C   UNL     1      -5.621  15.787 -16.824  0.00  0.00    +0.000 C 
ATOM      4  C   UNL     1      -4.295  14.517 -18.921  0.00  0.00    +0.000 C 
ATOM      5  C   UNL     1      -6.214  15.720 -18.084  0.00  0.00    +0.000 C 
ATOM      6  C   UNL     1      -5.549  15.084 -19.131  0.00  0.00    +0.000 C 
ATOM      7  O   UNL     1      -6.656  14.958 -21.483  0.00  0.00    +0.000 OA
ATOM      8  C   UNL     1      -6.156  15.015 -20.420  0.00  0.00    +0.000 C 
ENDROOT
BRANCH   1   9
ATOM      9  C   UNL     1      -3.742  15.291 -15.286  0.00  0.00    +0.000 C 
ATOM     10  C   UNL     1      -3.782  16.555 -14.464  0.00  0.00    +0.000 C 
ATOM     11  C   UNL     1      -3.034  14.103 -14.685  0.00  0.00    +0.000 C 
ENDBRANCH   1   9
TORSDOF 1
ENDMDL
MODEL 9
REMARK VINA RESULT:      -4.3     22.538     23.599
REMARK  Name = 326_Cuminaldehyde.pdb
REMARK  1 active torsions:
REMARK  status: ('A' for Active; 'I' for Inactive)
REMARK    1  A    between atoms: C_1  and  C_7
REMARK                            x       y       z     vdW  Elec       q    Type
REMARK                         _______ _______ _______ _____ _____    ______ ____
ROOT
ATOM      1  C   UNL     1      -2.470  14.949 -16.894  0.00  0.00    +0.000 C 
ATOM      2  C   UNL     1      -2.806  13.740 -17.508  0.00  0.00    +0.000 C 
ATOM      3  C   UNL     1      -1.678  15.872 -17.581  0.00  0.00    +0.000 C 
ATOM      4  C   UNL     1      -2.355  13.457 -18.797  0.00  0.00    +0.000 C 
ATOM      5  C   UNL     1      -1.226  15.590 -18.869  0.00  0.00    +0.000 C 
ATOM      6  C   UNL     1      -1.566  14.382 -19.475  0.00  0.00    +0.000 C 
ATOM      7  O   UNL     1      -0.723  13.855 -21.880  0.00  0.00    +0.000 OA
ATOM      8  C   UNL     1      -1.104  14.093 -20.793  0.00  0.00    +0.000 C 
ENDROOT
BRANCH   1   9
ATOM      9  C   UNL     1      -2.943  15.245 -15.545  0.00  0.00    +0.000 C 
ATOM     10  C   UNL     1      -2.527  16.502 -14.822  0.00  0.00    +0.000 C 
ATOM     11  C   UNL     1      -3.869  14.307 -14.812  0.00  0.00    +0.000 C 
ENDBRANCH   1   9
TORSDOF 1
ENDMDL
