MODEL 1
REMARK VINA RESULT:      -5.2      0.000      0.000
REMARK  Name = 3363_5FluorouracilDeoxyriboside.pdbqt.pdb
REMARK  4 active torsions:
REMARK  status: ('A' for Active; 'I' for Inactive)
REMARK    1  A    between atoms: N_4  and  C1*_13
REMARK    2  A    between atoms: C3*_12  and  O3*_16
REMARK    3  A    between atoms: C4*_15  and  C5*_18
REMARK    4  A    between atoms: C5*_18  and  O5*_19
REMARK                            x       y       z     vdW  Elec       q    Type
REMARK                         _______ _______ _______ _____ _____    ______ ____
ROOT
ATOM      1  F   UNL     1      -3.893   2.006 -20.346  0.00  0.00    +0.000 F 
ATOM      2  O   UNL     1      -2.997  -2.689 -17.765  0.00  0.00    +0.000 OA
ATOM      3  O   UNL     1      -1.764   1.668 -18.514  0.00  0.00    +0.000 OA
ATOM      4  N   UNL     1      -4.424  -1.347 -19.099  0.00  0.00    +0.000 N 
ATOM      5  N   UNL     1      -2.475  -0.484 -18.106  0.00  0.00    +0.000 N 
ATOM      6  C   UNL     1      -3.300  -1.622 -18.285  0.00  0.00    +0.000 C 
ATOM      7  C   UNL     1      -4.550  -0.089 -19.569  0.00  0.00    +0.000 C 
ATOM      8  C   UNL     1      -3.862   0.997 -19.460  0.00  0.00    +0.000 C 
ATOM      9  C   UNL     1      -2.611   0.795 -18.660  0.00  0.00    +0.000 C 
ATOM     10  H   UNL     1      -1.638  -0.643 -17.564  0.00  0.00    +0.000 HD
ENDROOT
BRANCH   4  13
ATOM     11  O4* UNL     1      -5.517  -2.740 -20.748  0.00  0.00    +0.000 OA
ATOM     12  C3* UNL     1      -7.068  -3.795 -19.387  0.00  0.00    +0.000 A 
ATOM     13  C1* UNL     1      -5.370  -2.274 -19.435  0.00  0.00    +0.000 A 
ATOM     14  C2* UNL     1      -6.303  -2.916 -18.599  0.00  0.00    +0.000 A 
ATOM     15  C4* UNL     1      -6.558  -3.676 -20.732  0.00  0.00    +0.000 A 
BRANCH  12  16
ATOM     16  O3* UNL     1      -7.601  -4.962 -18.916  0.00  0.00    +0.000 OA
ATOM     17  H3* UNL     1      -7.457  -5.705 -19.529  0.00  0.00    +0.000 HD
ENDBRANCH  12  16
BRANCH  15  18
ATOM     18  C5* UNL     1      -6.855  -4.495 -21.839  0.00  0.00    +0.000 C 
BRANCH  18  19
ATOM     19  O5* UNL     1      -7.138  -5.250 -22.895  0.00  0.00    +0.000 OA
ATOM     20  H5* UNL     1      -7.731  -5.980 -22.646  0.00  0.00    +0.000 HD
ENDBRANCH  18  19
ENDBRANCH  15  18
ENDBRANCH   4  13
TORSDOF 4
ENDMDL
MODEL 2
REMARK VINA RESULT:      -5.1      1.338      2.059
REMARK  Name = 3363_5FluorouracilDeoxyriboside.pdbqt.pdb
REMARK  4 active torsions:
REMARK  status: ('A' for Active; 'I' for Inactive)
REMARK    1  A    between atoms: N_4  and  C1*_13
REMARK    2  A    between atoms: C3*_12  and  O3*_16
REMARK    3  A    between atoms: C4*_15  and  C5*_18
REMARK    4  A    between atoms: C5*_18  and  O5*_19
REMARK                            x       y       z     vdW  Elec       q    Type
REMARK                         _______ _______ _______ _____ _____    ______ ____
ROOT
ATOM      1  F   UNL     1      -4.115   1.874 -20.296  0.00  0.00    +0.000 F 
ATOM      2  O   UNL     1      -3.258  -2.644 -17.404  0.00  0.00    +0.000 OA
ATOM      3  O   UNL     1      -1.923   1.600 -18.529  0.00  0.00    +0.000 OA
ATOM      4  N   UNL     1      -4.698  -1.356 -18.778  0.00  0.00    +0.000 N 
ATOM      5  N   UNL     1      -2.683  -0.490 -17.931  0.00  0.00    +0.000 N 
ATOM      6  C   UNL     1      -3.549  -1.609 -17.991  0.00  0.00    +0.000 C 
ATOM      7  C   UNL     1      -4.803  -0.134 -19.337  0.00  0.00    +0.000 C 
ATOM      8  C   UNL     1      -4.078   0.933 -19.338  0.00  0.00    +0.000 C 
ATOM      9  C   UNL     1      -2.802   0.749 -18.575  0.00  0.00    +0.000 C 
ATOM     10  H   UNL     1      -1.829  -0.636 -17.412  0.00  0.00    +0.000 HD
ENDROOT
BRANCH   4  13
ATOM     11  O4* UNL     1      -6.921  -2.209 -18.351  0.00  0.00    +0.000 OA
ATOM     12  C3* UNL     1      -6.914  -4.028 -19.786  0.00  0.00    +0.000 A 
ATOM     13  C1* UNL     1      -5.685  -2.273 -19.006  0.00  0.00    +0.000 A 
ATOM     14  C2* UNL     1      -5.675  -3.372 -19.887  0.00  0.00    +0.000 A 
ATOM     15  C4* UNL     1      -7.686  -3.283 -18.822  0.00  0.00    +0.000 A 
BRANCH  12  16
ATOM     16  O3* UNL     1      -7.501  -4.695 -20.824  0.00  0.00    +0.000 OA
ATOM     17  H3* UNL     1      -7.622  -4.126 -21.605  0.00  0.00    +0.000 HD
ENDBRANCH  12  16
BRANCH  15  18
ATOM     18  C5* UNL     1      -9.057  -3.421 -18.528  0.00  0.00    +0.000 C 
BRANCH  18  19
ATOM     19  O5* UNL     1     -10.353  -3.560 -18.271  0.00  0.00    +0.000 OA
ATOM     20  H5* UNL     1     -10.525  -3.471 -17.317  0.00  0.00    +0.000 HD
ENDBRANCH  18  19
ENDBRANCH  15  18
ENDBRANCH   4  13
TORSDOF 4
ENDMDL
MODEL 3
REMARK VINA RESULT:      -4.9     14.113     14.692
REMARK  Name = 3363_5FluorouracilDeoxyriboside.pdbqt.pdb
REMARK  4 active torsions:
REMARK  status: ('A' for Active; 'I' for Inactive)
REMARK    1  A    between atoms: N_4  and  C1*_13
REMARK    2  A    between atoms: C3*_12  and  O3*_16
REMARK    3  A    between atoms: C4*_15  and  C5*_18
REMARK    4  A    between atoms: C5*_18  and  O5*_19
REMARK                            x       y       z     vdW  Elec       q    Type
REMARK                         _______ _______ _______ _____ _____    ______ ____
ROOT
ATOM      1  F   UNL     1     -12.243   9.123  -7.923  0.00  0.00    +0.000 F 
ATOM      2  O   UNL     1     -10.552   4.128  -9.226  0.00  0.00    +0.000 OA
ATOM      3  O   UNL     1     -10.183   7.804  -6.503  0.00  0.00    +0.000 OA
ATOM      4  N   UNL     1     -12.153   5.859  -9.476  0.00  0.00    +0.000 N 
ATOM      5  N   UNL     1     -10.467   5.950  -7.839  0.00  0.00    +0.000 N 
ATOM      6  C   UNL     1     -11.037   5.205  -8.900  0.00  0.00    +0.000 C 
ATOM      7  C   UNL     1     -12.504   7.051  -8.953  0.00  0.00    +0.000 C 
ATOM      8  C   UNL     1     -12.054   7.796  -8.001  0.00  0.00    +0.000 C 
ATOM      9  C   UNL     1     -10.829   7.217  -7.361  0.00  0.00    +0.000 C 
ATOM     10  H   UNL     1      -9.643   5.542  -7.423  0.00  0.00    +0.000 HD
ENDROOT
BRANCH   4  13
ATOM     11  O4* UNL     1     -13.884   4.405 -10.337  0.00  0.00    +0.000 OA
ATOM     12  C3* UNL     1     -13.728   4.920 -12.591  0.00  0.00    +0.000 A 
ATOM     13  C1* UNL     1     -12.875   5.359 -10.522  0.00  0.00    +0.000 A 
ATOM     14  C2* UNL     1     -12.779   5.684 -11.889  0.00  0.00    +0.000 A 
ATOM     15  C4* UNL     1     -14.416   4.127 -11.602  0.00  0.00    +0.000 A 
BRANCH  12  16
ATOM     16  O3* UNL     1     -14.344   5.347 -13.734  0.00  0.00    +0.000 OA
ATOM     17  H3* UNL     1     -13.911   5.002 -14.535  0.00  0.00    +0.000 HD
ENDBRANCH  12  16
BRANCH  15  18
ATOM     18  C5* UNL     1     -15.582   3.357 -11.779  0.00  0.00    +0.000 C 
BRANCH  18  19
ATOM     19  O5* UNL     1     -16.694   2.648 -11.948  0.00  0.00    +0.000 OA
ATOM     20  H5* UNL     1     -17.394   3.197 -12.342  0.00  0.00    +0.000 HD
ENDBRANCH  18  19
ENDBRANCH  15  18
ENDBRANCH   4  13
TORSDOF 4
ENDMDL
MODEL 4
REMARK VINA RESULT:      -4.8     22.021     23.301
REMARK  Name = 3363_5FluorouracilDeoxyriboside.pdbqt.pdb
REMARK  4 active torsions:
REMARK  status: ('A' for Active; 'I' for Inactive)
REMARK    1  A    between atoms: N_4  and  C1*_13
REMARK    2  A    between atoms: C3*_12  and  O3*_16
REMARK    3  A    between atoms: C4*_15  and  C5*_18
REMARK    4  A    between atoms: C5*_18  and  O5*_19
REMARK                            x       y       z     vdW  Elec       q    Type
REMARK                         _______ _______ _______ _____ _____    ______ ____
ROOT
ATOM      1  F   UNL     1       8.304   5.868   2.512  0.00  0.00    +0.000 F 
ATOM      2  O   UNL     1       5.188   4.921  -1.836  0.00  0.00    +0.000 OA
ATOM      3  O   UNL     1       8.731   7.161   0.032  0.00  0.00    +0.000 OA
ATOM      4  N   UNL     1       5.858   4.307   0.354  0.00  0.00    +0.000 N 
ATOM      5  N   UNL     1       7.001   5.947  -0.883  0.00  0.00    +0.000 N 
ATOM      6  C   UNL     1       5.929   5.022  -0.866  0.00  0.00    +0.000 C 
ATOM      7  C   UNL     1       6.786   4.594   1.290  0.00  0.00    +0.000 C 
ATOM      8  C   UNL     1       7.785   5.406   1.362  0.00  0.00    +0.000 C 
ATOM      9  C   UNL     1       7.912   6.257   0.136  0.00  0.00    +0.000 C 
ATOM     10  H   UNL     1       7.068   6.510  -1.719  0.00  0.00    +0.000 HD
ENDROOT
BRANCH   4  13
ATOM     11  O4* UNL     1       3.542   3.618   0.472  0.00  0.00    +0.000 OA
ATOM     12  C3* UNL     1       3.829   1.445   1.225  0.00  0.00    +0.000 A 
ATOM     13  C1* UNL     1       4.910   3.363   0.632  0.00  0.00    +0.000 A 
ATOM     14  C2* UNL     1       5.094   2.042   1.081  0.00  0.00    +0.000 A 
ATOM     15  C4* UNL     1       2.866   2.446   0.833  0.00  0.00    +0.000 A 
BRANCH  12  16
ATOM     16  O3* UNL     1       3.599   0.110   1.044  0.00  0.00    +0.000 OA
ATOM     17  H3* UNL     1       4.427  -0.395   0.945  0.00  0.00    +0.000 HD
ENDBRANCH  12  16
BRANCH  15  18
ATOM     18  C5* UNL     1       1.486   2.270   0.612  0.00  0.00    +0.000 C 
BRANCH  18  19
ATOM     19  O5* UNL     1       0.189   2.084   0.395  0.00  0.00    +0.000 OA
ATOM     20  H5* UNL     1      -0.031   2.250  -0.539  0.00  0.00    +0.000 HD
ENDBRANCH  18  19
ENDBRANCH  15  18
ENDBRANCH   4  13
TORSDOF 4
ENDMDL
MODEL 5
REMARK VINA RESULT:      -4.8     15.544     16.381
REMARK  Name = 3363_5FluorouracilDeoxyriboside.pdbqt.pdb
REMARK  4 active torsions:
REMARK  status: ('A' for Active; 'I' for Inactive)
REMARK    1  A    between atoms: N_4  and  C1*_13
REMARK    2  A    between atoms: C3*_12  and  O3*_16
REMARK    3  A    between atoms: C4*_15  and  C5*_18
REMARK    4  A    between atoms: C5*_18  and  O5*_19
REMARK                            x       y       z     vdW  Elec       q    Type
REMARK                         _______ _______ _______ _____ _____    ______ ____
ROOT
ATOM      1  F   UNL     1      10.365   1.391 -15.082  0.00  0.00    +0.000 F 
ATOM      2  O   UNL     1      11.404   0.700 -20.370  0.00  0.00    +0.000 OA
ATOM      3  O   UNL     1      10.551   3.563 -16.885  0.00  0.00    +0.000 OA
ATOM      4  N   UNL     1      11.316  -0.210 -18.182  0.00  0.00    +0.000 N 
ATOM      5  N   UNL     1      11.063   2.093 -18.582  0.00  0.00    +0.000 N 
ATOM      6  C   UNL     1      11.280   0.817 -19.156  0.00  0.00    +0.000 C 
ATOM      7  C   UNL     1      11.148   0.157 -16.896  0.00  0.00    +0.000 C 
ATOM      8  C   UNL     1      10.949   1.276 -16.287  0.00  0.00    +0.000 C 
ATOM      9  C   UNL     1      10.836   2.426 -17.240  0.00  0.00    +0.000 C 
ATOM     10  H   UNL     1      10.990   2.853 -19.243  0.00  0.00    +0.000 HD
ENDROOT
BRANCH   4  13
ATOM     11  O4* UNL     1      10.546  -2.503 -18.144  0.00  0.00    +0.000 OA
ATOM     12  C3* UNL     1      12.335  -3.524 -19.204  0.00  0.00    +0.000 A 
ATOM     13  C1* UNL     1      11.500  -1.532 -18.472  0.00  0.00    +0.000 A 
ATOM     14  C2* UNL     1      12.588  -2.143 -19.125  0.00  0.00    +0.000 A 
ATOM     15  C4* UNL     1      11.047  -3.732 -18.588  0.00  0.00    +0.000 A 
BRANCH  12  16
ATOM     16  O3* UNL     1      12.789  -4.317 -20.221  0.00  0.00    +0.000 OA
ATOM     17  H3* UNL     1      12.397  -5.209 -20.193  0.00  0.00    +0.000 HD
ENDBRANCH  12  16
BRANCH  15  18
ATOM     18  C5* UNL     1      10.269  -4.906 -18.602  0.00  0.00    +0.000 C 
BRANCH  18  19
ATOM     19  O5* UNL     1       9.552  -6.025 -18.614  0.00  0.00    +0.000 OA
ATOM     20  H5* UNL     1      10.129  -6.801 -18.720  0.00  0.00    +0.000 HD
ENDBRANCH  18  19
ENDBRANCH  15  18
ENDBRANCH   4  13
TORSDOF 4
ENDMDL
MODEL 6
REMARK VINA RESULT:      -4.7      3.414      4.652
REMARK  Name = 3363_5FluorouracilDeoxyriboside.pdbqt.pdb
REMARK  4 active torsions:
REMARK  status: ('A' for Active; 'I' for Inactive)
REMARK    1  A    between atoms: N_4  and  C1*_13
REMARK    2  A    between atoms: C3*_12  and  O3*_16
REMARK    3  A    between atoms: C4*_15  and  C5*_18
REMARK    4  A    between atoms: C5*_18  and  O5*_19
REMARK                            x       y       z     vdW  Elec       q    Type
REMARK                         _______ _______ _______ _____ _____    ______ ____
ROOT
ATOM      1  F   UNL     1      -4.384   2.152 -23.423  0.00  0.00    +0.000 F 
ATOM      2  O   UNL     1      -1.028   2.419 -19.159  0.00  0.00    +0.000 OA
ATOM      3  O   UNL     1      -2.304   4.063 -23.249  0.00  0.00    +0.000 OA
ATOM      4  N   UNL     1      -3.013   1.560 -20.129  0.00  0.00    +0.000 N 
ATOM      5  N   UNL     1      -1.759   3.260 -21.161  0.00  0.00    +0.000 N 
ATOM      6  C   UNL     1      -1.872   2.393 -20.047  0.00  0.00    +0.000 C 
ATOM      7  C   UNL     1      -3.803   1.704 -21.212  0.00  0.00    +0.000 C 
ATOM      8  C   UNL     1      -3.783   2.456 -22.260  0.00  0.00    +0.000 C 
ATOM      9  C   UNL     1      -2.574   3.340 -22.298  0.00  0.00    +0.000 C 
ATOM     10  H   UNL     1      -0.937   3.846 -21.166  0.00  0.00    +0.000 HD
ENDROOT
BRANCH   4  13
ATOM     11  O4* UNL     1      -3.101  -0.740 -19.381  0.00  0.00    +0.000 OA
ATOM     12  C3* UNL     1      -4.090  -0.429 -17.309  0.00  0.00    +0.000 A 
ATOM     13  C1* UNL     1      -3.347   0.626 -19.189  0.00  0.00    +0.000 A 
ATOM     14  C2* UNL     1      -3.941   0.825 -17.928  0.00  0.00    +0.000 A 
ATOM     15  C4* UNL     1      -3.554  -1.399 -18.232  0.00  0.00    +0.000 A 
BRANCH  12  16
ATOM     16  O3* UNL     1      -4.042  -0.612 -15.956  0.00  0.00    +0.000 OA
ATOM     17  H3* UNL     1      -4.596  -1.359 -15.666  0.00  0.00    +0.000 HD
ENDBRANCH  12  16
BRANCH  15  18
ATOM     18  C5* UNL     1      -3.291  -2.761 -17.989  0.00  0.00    +0.000 C 
BRANCH  18  19
ATOM     19  O5* UNL     1      -3.026  -4.041 -17.748  0.00  0.00    +0.000 OA
ATOM     20  H5* UNL     1      -2.965  -4.541 -18.580  0.00  0.00    +0.000 HD
ENDBRANCH  18  19
ENDBRANCH  15  18
ENDBRANCH   4  13
TORSDOF 4
ENDMDL
MODEL 7
REMARK VINA RESULT:      -4.6     12.519     15.098
REMARK  Name = 3363_5FluorouracilDeoxyriboside.pdbqt.pdb
REMARK  4 active torsions:
REMARK  status: ('A' for Active; 'I' for Inactive)
REMARK    1  A    between atoms: N_4  and  C1*_13
REMARK    2  A    between atoms: C3*_12  and  O3*_16
REMARK    3  A    between atoms: C4*_15  and  C5*_18
REMARK    4  A    between atoms: C5*_18  and  O5*_19
REMARK                            x       y       z     vdW  Elec       q    Type
REMARK                         _______ _______ _______ _____ _____    ______ ____
ROOT
ATOM      1  F   UNL     1      12.320   2.469 -22.548  0.00  0.00    +0.000 F 
ATOM      2  O   UNL     1      10.936   1.406 -17.403  0.00  0.00    +0.000 OA
ATOM      3  O   UNL     1      14.238   2.234 -20.482  0.00  0.00    +0.000 OA
ATOM      4  N   UNL     1      10.279   2.021 -19.597  0.00  0.00    +0.000 N 
ATOM      5  N   UNL     1      12.539   1.911 -18.961  0.00  0.00    +0.000 N 
ATOM      6  C   UNL     1      11.193   1.751 -18.551  0.00  0.00    +0.000 C 
ATOM      7  C   UNL     1      10.796   2.381 -20.789  0.00  0.00    +0.000 C 
ATOM      8  C   UNL     1      11.989   2.553 -21.249  0.00  0.00    +0.000 C 
ATOM      9  C   UNL     1      13.040   2.233 -20.230  0.00  0.00    +0.000 C 
ATOM     10  H   UNL     1      13.230   1.690 -18.258  0.00  0.00    +0.000 HD
ENDROOT
BRANCH   4  13
ATOM     11  O4* UNL     1       8.248   0.706 -19.575  0.00  0.00    +0.000 OA
ATOM     12  C3* UNL     1       6.710   2.387 -19.153  0.00  0.00    +0.000 A 
ATOM     13  C1* UNL     1       8.922   1.930 -19.467  0.00  0.00    +0.000 A 
ATOM     14  C2* UNL     1       7.995   2.956 -19.202  0.00  0.00    +0.000 A 
ATOM     15  C4* UNL     1       6.887   0.974 -19.383  0.00  0.00    +0.000 A 
BRANCH  12  16
ATOM     16  O3* UNL     1       5.700   2.873 -18.370  0.00  0.00    +0.000 OA
ATOM     17  H3* UNL     1       5.247   3.630 -18.783  0.00  0.00    +0.000 HD
ENDBRANCH  12  16
BRANCH  15  18
ATOM     18  C5* UNL     1       5.929  -0.047 -19.229  0.00  0.00    +0.000 C 
BRANCH  18  19
ATOM     19  O5* UNL     1       5.031  -1.018 -19.102  0.00  0.00    +0.000 OA
ATOM     20  H5* UNL     1       4.652  -1.021 -18.206  0.00  0.00    +0.000 HD
ENDBRANCH  18  19
ENDBRANCH  15  18
ENDBRANCH   4  13
TORSDOF 4
ENDMDL
MODEL 8
REMARK VINA RESULT:      -4.5     16.016     17.027
REMARK  Name = 3363_5FluorouracilDeoxyriboside.pdbqt.pdb
REMARK  4 active torsions:
REMARK  status: ('A' for Active; 'I' for Inactive)
REMARK    1  A    between atoms: N_4  and  C1*_13
REMARK    2  A    between atoms: C3*_12  and  O3*_16
REMARK    3  A    between atoms: C4*_15  and  C5*_18
REMARK    4  A    between atoms: C5*_18  and  O5*_19
REMARK                            x       y       z     vdW  Elec       q    Type
REMARK                         _______ _______ _______ _____ _____    ______ ____
ROOT
ATOM      1  F   UNL     1      10.016   1.008 -15.484  0.00  0.00    +0.000 F 
ATOM      2  O   UNL     1      12.232  -0.035 -20.332  0.00  0.00    +0.000 OA
ATOM      3  O   UNL     1      10.745   3.061 -17.288  0.00  0.00    +0.000 OA
ATOM      4  N   UNL     1      11.578  -0.812 -18.190  0.00  0.00    +0.000 N 
ATOM      5  N   UNL     1      11.559   1.473 -18.744  0.00  0.00    +0.000 N 
ATOM      6  C   UNL     1      11.832   0.157 -19.190  0.00  0.00    +0.000 C 
ATOM      7  C   UNL     1      11.132  -0.364 -16.999  0.00  0.00    +0.000 C 
ATOM      8  C   UNL     1      10.860   0.797 -16.507  0.00  0.00    +0.000 C 
ATOM      9  C   UNL     1      11.040   1.894 -17.512  0.00  0.00    +0.000 C 
ATOM     10  H   UNL     1      11.687   2.195 -19.438  0.00  0.00    +0.000 HD
ENDROOT
BRANCH   4  13
ATOM     11  O4* UNL     1      13.019  -2.748 -18.357  0.00  0.00    +0.000 OA
ATOM     12  C3* UNL     1      11.416  -4.388 -18.689  0.00  0.00    +0.000 A 
ATOM     13  C1* UNL     1      11.750  -2.156 -18.367  0.00  0.00    +0.000 A 
ATOM     14  C2* UNL     1      10.769  -3.147 -18.559  0.00  0.00    +0.000 A 
ATOM     15  C4* UNL     1      12.828  -4.121 -18.554  0.00  0.00    +0.000 A 
BRANCH  12  16
ATOM     16  O3* UNL     1      10.863  -5.573 -18.293  0.00  0.00    +0.000 OA
ATOM     17  H3* UNL     1      11.403  -6.023 -17.618  0.00  0.00    +0.000 HD
ENDBRANCH  12  16
BRANCH  15  18
ATOM     18  C5* UNL     1      13.869  -5.058 -18.408  0.00  0.00    +0.000 C 
BRANCH  18  19
ATOM     19  O5* UNL     1      14.854  -5.943 -18.291  0.00  0.00    +0.000 OA
ATOM     20  H5* UNL     1      15.458  -5.887 -19.052  0.00  0.00    +0.000 HD
ENDBRANCH  18  19
ENDBRANCH  15  18
ENDBRANCH   4  13
TORSDOF 4
ENDMDL
MODEL 9
REMARK VINA RESULT:      -4.5     21.312     22.442
REMARK  Name = 3363_5FluorouracilDeoxyriboside.pdbqt.pdb
REMARK  4 active torsions:
REMARK  status: ('A' for Active; 'I' for Inactive)
REMARK    1  A    between atoms: N_4  and  C1*_13
REMARK    2  A    between atoms: C3*_12  and  O3*_16
REMARK    3  A    between atoms: C4*_15  and  C5*_18
REMARK    4  A    between atoms: C5*_18  and  O5*_19
REMARK                            x       y       z     vdW  Elec       q    Type
REMARK                         _______ _______ _______ _____ _____    ______ ____
ROOT
ATOM      1  F   UNL     1      12.421  -6.971  -1.524  0.00  0.00    +0.000 F 
ATOM      2  O   UNL     1       8.819  -5.279  -5.221  0.00  0.00    +0.000 OA
ATOM      3  O   UNL     1       9.979  -5.738  -0.804  0.00  0.00    +0.000 OA
ATOM      4  N   UNL     1      10.998  -6.066  -4.723  0.00  0.00    +0.000 N 
ATOM      5  N   UNL     1       9.483  -5.451  -3.034  0.00  0.00    +0.000 N 
ATOM      6  C   UNL     1       9.704  -5.576  -4.428  0.00  0.00    +0.000 C 
ATOM      7  C   UNL     1      11.808  -6.333  -3.678  0.00  0.00    +0.000 C 
ATOM      8  C   UNL     1      11.697  -6.251  -2.396  0.00  0.00    +0.000 C 
ATOM      9  C   UNL     1      10.333  -5.794  -1.975  0.00  0.00    +0.000 C 
ATOM     10  H   UNL     1       8.557  -5.142  -2.774  0.00  0.00    +0.000 HD
ENDROOT
BRANCH   4  13
ATOM     11  O4* UNL     1      11.768  -5.237  -6.861  0.00  0.00    +0.000 OA
ATOM     12  C3* UNL     1      12.190  -7.253  -7.923  0.00  0.00    +0.000 A 
ATOM     13  C1* UNL     1      11.461  -6.289  -5.989  0.00  0.00    +0.000 A 
ATOM     14  C2* UNL     1      11.722  -7.518  -6.624  0.00  0.00    +0.000 A 
ATOM     15  C4* UNL     1      12.217  -5.816  -8.054  0.00  0.00    +0.000 A 
BRANCH  12  16
ATOM     16  O3* UNL     1      13.073  -8.058  -8.586  0.00  0.00    +0.000 OA
ATOM     17  H3* UNL     1      13.024  -7.939  -9.552  0.00  0.00    +0.000 HD
ENDBRANCH  12  16
BRANCH  15  18
ATOM     18  C5* UNL     1      12.799  -5.060  -9.090  0.00  0.00    +0.000 C 
BRANCH  18  19
ATOM     19  O5* UNL     1      13.367  -4.350 -10.059  0.00  0.00    +0.000 OA
ATOM     20  H5* UNL     1      13.230  -4.776 -10.923  0.00  0.00    +0.000 HD
ENDBRANCH  18  19
ENDBRANCH  15  18
ENDBRANCH   4  13
TORSDOF 4
ENDMDL
