MODEL 1
REMARK VINA RESULT:      -3.8      0.000      0.000
REMARK  Name = 3385_5Fluorouracil.pdbqt.pdb
REMARK  0 active torsions:
REMARK  status: ('A' for Active; 'I' for Inactive)
REMARK                            x       y       z     vdW  Elec       q    Type
REMARK                         _______ _______ _______ _____ _____    ______ ____
ROOT
ATOM      1  F   UNL     1     -14.572   7.572  -9.541  0.00  0.00    +0.000 F 
ATOM      2  O   UNL     1     -12.090   8.826 -10.082  0.00  0.00    +0.000 OA
ATOM      3  O   UNL     1     -10.028   4.707 -10.319  0.00  0.00    +0.000 OA
ATOM      4  N   UNL     1     -11.056   6.770 -10.130  0.00  0.00    +0.000 N 
ATOM      5  N   UNL     1     -12.239   4.824  -9.685  0.00  0.00    +0.000 N 
ATOM      6  C   UNL     1     -12.152   7.615  -9.904  0.00  0.00    +0.000 C 
ATOM      7  C   UNL     1     -11.022   5.371 -10.063  0.00  0.00    +0.000 C 
ATOM      8  C   UNL     1     -13.402   6.919  -9.446  0.00  0.00    +0.000 C 
ATOM      9  C   UNL     1     -13.275   5.635  -9.427  0.00  0.00    +0.000 C 
ATOM     10  H   UNL     1     -10.205   7.218 -10.437  0.00  0.00    +0.000 HD
ATOM     11  H   UNL     1     -12.322   3.818  -9.611  0.00  0.00    +0.000 HD
ENDROOT
TORSDOF 0
ENDMDL
MODEL 2
REMARK VINA RESULT:      -3.7     25.588     26.754
REMARK  Name = 3385_5Fluorouracil.pdbqt.pdb
REMARK  0 active torsions:
REMARK  status: ('A' for Active; 'I' for Inactive)
REMARK                            x       y       z     vdW  Elec       q    Type
REMARK                         _______ _______ _______ _____ _____    ______ ____
ROOT
ATOM      1  F   UNL     1      13.988  -5.354  -8.914  0.00  0.00    +0.000 F 
ATOM      2  O   UNL     1      13.785  -3.810  -6.547  0.00  0.00    +0.000 OA
ATOM      3  O   UNL     1       9.207  -4.375  -6.537  0.00  0.00    +0.000 OA
ATOM      4  N   UNL     1      11.495  -4.038  -6.588  0.00  0.00    +0.000 N 
ATOM      5  N   UNL     1      10.435  -5.164  -8.319  0.00  0.00    +0.000 N 
ATOM      6  C   UNL     1      12.778  -4.188  -7.134  0.00  0.00    +0.000 C 
ATOM      7  C   UNL     1      10.281  -4.514  -7.104  0.00  0.00    +0.000 C 
ATOM      8  C   UNL     1      12.818  -4.858  -8.478  0.00  0.00    +0.000 C 
ATOM      9  C   UNL     1      11.657  -5.269  -8.861  0.00  0.00    +0.000 C 
ATOM     10  H   UNL     1      11.445  -3.589  -5.686  0.00  0.00    +0.000 HD
ATOM     11  H   UNL     1       9.617  -5.550  -8.773  0.00  0.00    +0.000 HD
ENDROOT
TORSDOF 0
ENDMDL
MODEL 3
REMARK VINA RESULT:      -3.7     14.316     15.448
REMARK  Name = 3385_5Fluorouracil.pdbqt.pdb
REMARK  0 active torsions:
REMARK  status: ('A' for Active; 'I' for Inactive)
REMARK                            x       y       z     vdW  Elec       q    Type
REMARK                         _______ _______ _______ _____ _____    ______ ____
ROOT
ATOM      1  F   UNL     1      -0.090  -2.035 -19.203  0.00  0.00    +0.000 F 
ATOM      2  O   UNL     1       0.258   0.776 -19.221  0.00  0.00    +0.000 OA
ATOM      3  O   UNL     1      -4.053   1.350 -17.683  0.00  0.00    +0.000 OA
ATOM      4  N   UNL     1      -1.916   1.056 -18.520  0.00  0.00    +0.000 N 
ATOM      5  N   UNL     1      -3.324  -0.766 -18.228  0.00  0.00    +0.000 N 
ATOM      6  C   UNL     1      -0.837   0.285 -18.975  0.00  0.00    +0.000 C 
ATOM      7  C   UNL     1      -3.179   0.608 -18.109  0.00  0.00    +0.000 C 
ATOM      8  C   UNL     1      -1.125  -1.183 -19.118  0.00  0.00    +0.000 C 
ATOM      9  C   UNL     1      -2.306  -1.498 -18.704  0.00  0.00    +0.000 C 
ATOM     10  H   UNL     1      -1.745   2.046 -18.418  0.00  0.00    +0.000 HD
ATOM     11  H   UNL     1      -4.200  -1.191 -17.952  0.00  0.00    +0.000 HD
ENDROOT
TORSDOF 0
ENDMDL
MODEL 4
REMARK VINA RESULT:      -3.6     24.460     25.172
REMARK  Name = 3385_5Fluorouracil.pdbqt.pdb
REMARK  0 active torsions:
REMARK  status: ('A' for Active; 'I' for Inactive)
REMARK                            x       y       z     vdW  Elec       q    Type
REMARK                         _______ _______ _______ _____ _____    ______ ____
ROOT
ATOM      1  F   UNL     1       9.789   1.115 -15.593  0.00  0.00    +0.000 F 
ATOM      2  O   UNL     1      12.573   0.996 -16.102  0.00  0.00    +0.000 OA
ATOM      3  O   UNL     1      11.931   2.950 -20.231  0.00  0.00    +0.000 OA
ATOM      4  N   UNL     1      12.236   1.908 -18.189  0.00  0.00    +0.000 N 
ATOM      5  N   UNL     1      10.098   2.383 -18.957  0.00  0.00    +0.000 N 
ATOM      6  C   UNL     1      11.795   1.364 -16.974  0.00  0.00    +0.000 C 
ATOM      7  C   UNL     1      11.458   2.455 -19.218  0.00  0.00    +0.000 C 
ATOM      8  C   UNL     1      10.302   1.285 -16.823  0.00  0.00    +0.000 C 
ATOM      9  C   UNL     1       9.675   1.824 -17.814  0.00  0.00    +0.000 C 
ATOM     10  H   UNL     1      13.236   1.968 -18.312  0.00  0.00    +0.000 HD
ATOM     11  H   UNL     1       9.449   2.757 -19.637  0.00  0.00    +0.000 HD
ENDROOT
TORSDOF 0
ENDMDL
MODEL 5
REMARK VINA RESULT:      -3.6     26.026     27.083
REMARK  Name = 3385_5Fluorouracil.pdbqt.pdb
REMARK  0 active torsions:
REMARK  status: ('A' for Active; 'I' for Inactive)
REMARK                            x       y       z     vdW  Elec       q    Type
REMARK                         _______ _______ _______ _____ _____    ______ ____
ROOT
ATOM      1  F   UNL     1      11.704  -8.611  -4.912  0.00  0.00    +0.000 F 
ATOM      2  O   UNL     1      12.342  -6.042  -3.904  0.00  0.00    +0.000 OA
ATOM      3  O   UNL     1      10.115  -4.073  -7.432  0.00  0.00    +0.000 OA
ATOM      4  N   UNL     1      11.288  -5.068  -5.704  0.00  0.00    +0.000 N 
ATOM      5  N   UNL     1      10.370  -6.362  -7.398  0.00  0.00    +0.000 N 
ATOM      6  C   UNL     1      11.790  -6.166  -4.991  0.00  0.00    +0.000 C 
ATOM      7  C   UNL     1      10.553  -5.082  -6.898  0.00  0.00    +0.000 C 
ATOM      8  C   UNL     1      11.583  -7.498  -5.655  0.00  0.00    +0.000 C 
ATOM      9  C   UNL     1      10.887  -7.409  -6.738  0.00  0.00    +0.000 C 
ATOM     10  H   UNL     1      11.419  -4.163  -5.277  0.00  0.00    +0.000 HD
ATOM     11  H   UNL     1       9.847  -6.482  -8.256  0.00  0.00    +0.000 HD
ENDROOT
TORSDOF 0
ENDMDL
MODEL 6
REMARK VINA RESULT:      -3.5      1.982      2.291
REMARK  Name = 3385_5Fluorouracil.pdbqt.pdb
REMARK  0 active torsions:
REMARK  status: ('A' for Active; 'I' for Inactive)
REMARK                            x       y       z     vdW  Elec       q    Type
REMARK                         _______ _______ _______ _____ _____    ______ ____
ROOT
ATOM      1  F   UNL     1     -13.919   8.733 -11.306  0.00  0.00    +0.000 F 
ATOM      2  O   UNL     1     -13.413   6.646 -13.154  0.00  0.00    +0.000 OA
ATOM      3  O   UNL     1     -10.339   4.789 -10.259  0.00  0.00    +0.000 OA
ATOM      4  N   UNL     1     -11.830   5.764 -11.734  0.00  0.00    +0.000 N 
ATOM      5  N   UNL     1     -11.294   6.819  -9.736  0.00  0.00    +0.000 N 
ATOM      6  C   UNL     1     -12.744   6.750 -12.132  0.00  0.00    +0.000 C 
ATOM      7  C   UNL     1     -11.085   5.713 -10.548  0.00  0.00    +0.000 C 
ATOM      8  C   UNL     1     -12.849   7.927 -11.204  0.00  0.00    +0.000 C 
ATOM      9  C   UNL     1     -12.136   7.782 -10.138  0.00  0.00    +0.000 C 
ATOM     10  H   UNL     1     -11.744   4.965 -12.344  0.00  0.00    +0.000 HD
ATOM     11  H   UNL     1     -10.806   6.875  -8.852  0.00  0.00    +0.000 HD
ENDROOT
TORSDOF 0
ENDMDL
MODEL 7
REMARK VINA RESULT:      -3.5     25.523     26.322
REMARK  Name = 3385_5Fluorouracil.pdbqt.pdb
REMARK  0 active torsions:
REMARK  status: ('A' for Active; 'I' for Inactive)
REMARK                            x       y       z     vdW  Elec       q    Type
REMARK                         _______ _______ _______ _____ _____    ______ ____
ROOT
ATOM      1  F   UNL     1      10.219  -7.879  -3.292  0.00  0.00    +0.000 F 
ATOM      2  O   UNL     1       8.077  -6.609  -4.642  0.00  0.00    +0.000 OA
ATOM      3  O   UNL     1      11.074  -4.116  -7.109  0.00  0.00    +0.000 OA
ATOM      4  N   UNL     1       9.577  -5.319  -5.820  0.00  0.00    +0.000 N 
ATOM      5  N   UNL     1      11.859  -5.473  -5.421  0.00  0.00    +0.000 N 
ATOM      6  C   UNL     1       9.233  -6.244  -4.823  0.00  0.00    +0.000 C 
ATOM      7  C   UNL     1      10.861  -4.898  -6.194  0.00  0.00    +0.000 C 
ATOM      8  C   UNL     1      10.389  -6.758  -4.012  0.00  0.00    +0.000 C 
ATOM      9  C   UNL     1      11.526  -6.324  -4.440  0.00  0.00    +0.000 C 
ATOM     10  H   UNL     1       8.815  -4.960  -6.375  0.00  0.00    +0.000 HD
ATOM     11  H   UNL     1      12.824  -5.237  -5.616  0.00  0.00    +0.000 HD
ENDROOT
TORSDOF 0
ENDMDL
MODEL 8
REMARK VINA RESULT:      -3.5     25.356     26.589
REMARK  Name = 3385_5Fluorouracil.pdbqt.pdb
REMARK  0 active torsions:
REMARK  status: ('A' for Active; 'I' for Inactive)
REMARK                            x       y       z     vdW  Elec       q    Type
REMARK                         _______ _______ _______ _____ _____    ______ ____
ROOT
ATOM      1  F   UNL     1      12.012  -8.252  -6.198  0.00  0.00    +0.000 F 
ATOM      2  O   UNL     1      12.483  -7.087  -8.736  0.00  0.00    +0.000 OA
ATOM      3  O   UNL     1       9.319  -3.845  -7.869  0.00  0.00    +0.000 OA
ATOM      4  N   UNL     1      10.854  -5.514  -8.324  0.00  0.00    +0.000 N 
ATOM      5  N   UNL     1       9.609  -5.566  -6.366  0.00  0.00    +0.000 N 
ATOM      6  C   UNL     1      11.579  -6.675  -8.020  0.00  0.00    +0.000 C 
ATOM      7  C   UNL     1       9.873  -4.885  -7.545  0.00  0.00    +0.000 C 
ATOM      8  C   UNL     1      11.170  -7.359  -6.746  0.00  0.00    +0.000 C 
ATOM      9  C   UNL     1      10.272  -6.699  -6.095  0.00  0.00    +0.000 C 
ATOM     10  H   UNL     1      11.111  -5.040  -9.177  0.00  0.00    +0.000 HD
ATOM     11  H   UNL     1       8.918  -5.190  -5.729  0.00  0.00    +0.000 HD
ENDROOT
TORSDOF 0
ENDMDL
MODEL 9
REMARK VINA RESULT:      -3.4     13.643     14.698
REMARK  Name = 3385_5Fluorouracil.pdbqt.pdb
REMARK  0 active torsions:
REMARK  status: ('A' for Active; 'I' for Inactive)
REMARK                            x       y       z     vdW  Elec       q    Type
REMARK                         _______ _______ _______ _____ _____    ______ ____
ROOT
ATOM      1  F   UNL     1      -5.148   0.552 -19.951  0.00  0.00    +0.000 F 
ATOM      2  O   UNL     1      -3.898   1.035 -17.455  0.00  0.00    +0.000 OA
ATOM      3  O   UNL     1       0.012   2.201 -19.608  0.00  0.00    +0.000 OA
ATOM      4  N   UNL     1      -1.930   1.548 -18.534  0.00  0.00    +0.000 N 
ATOM      5  N   UNL     1      -1.754   1.390 -20.843  0.00  0.00    +0.000 N 
ATOM      6  C   UNL     1      -3.253   1.084 -18.496  0.00  0.00    +0.000 C 
ATOM      7  C   UNL     1      -1.123   1.750 -19.662  0.00  0.00    +0.000 C 
ATOM      8  C   UNL     1      -3.816   0.672 -19.826  0.00  0.00    +0.000 C 
ATOM      9  C   UNL     1      -3.004   0.906 -20.802  0.00  0.00    +0.000 C 
ATOM     10  H   UNL     1      -1.532   1.829 -17.650  0.00  0.00    +0.000 HD
ATOM     11  H   UNL     1      -1.257   1.502 -21.717  0.00  0.00    +0.000 HD
ENDROOT
TORSDOF 0
ENDMDL
