MODEL 1
REMARK VINA RESULT:      -7.0      0.000      0.000
REMARK  Name = 342374_SipholenolA.pdbqt.pdb
REMARK  5 active torsions:
REMARK  status: ('A' for Active; 'I' for Inactive)
REMARK    1  A    between atoms: C_3  and  C_20
REMARK    2  A    between atoms: C_4  and  O_16
REMARK    3  A    between atoms: C_13  and  O_18
REMARK    4  A    between atoms: C_21  and  C_25
REMARK    5  A    between atoms: C_26  and  O_36
REMARK                            x       y       z     vdW  Elec       q    Type
REMARK                         _______ _______ _______ _____ _____    ______ ____
ROOT
ATOM      1  O   UNL     1       0.969  -3.328 -20.780  0.00  0.00    +0.000 OA
ATOM      2  C   UNL     1       2.818  -1.485 -20.826  0.00  0.00    +0.000 C 
ATOM      3  C   UNL     1       3.571  -0.469 -19.962  0.00  0.00    +0.000 C 
ATOM      4  C   UNL     1       2.812   0.369 -18.947  0.00  0.00    +0.000 C 
ATOM      5  C   UNL     1       1.589  -2.241 -20.153  0.00  0.00    +0.000 C 
ATOM      6  C   UNL     1       3.698  -2.613 -21.169  0.00  0.00    +0.000 C 
ATOM      7  C   UNL     1       1.549  -0.278 -18.656  0.00  0.00    +0.000 C 
ATOM      8  C   UNL     1       0.894  -1.518 -19.165  0.00  0.00    +0.000 C 
ATOM      9  C   UNL     1       2.300  -0.787 -22.113  0.00  0.00    +0.000 C 
ATOM     10  C   UNL     1       3.692  -4.116 -21.296  0.00  0.00    +0.000 C 
ATOM     11  C   UNL     1       1.371  -4.687 -20.411  0.00  0.00    +0.000 C 
ATOM     12  C   UNL     1       3.644   0.578 -17.672  0.00  0.00    +0.000 C 
ATOM     13  C   UNL     1       2.718  -5.112 -21.068  0.00  0.00    +0.000 C 
ATOM     14  C   UNL     1       1.499  -4.859 -18.869  0.00  0.00    +0.000 C 
ATOM     15  C   UNL     1       0.273  -5.651 -20.952  0.00  0.00    +0.000 C 
ENDROOT
BRANCH   4  16
ATOM     16  O   UNL     1       2.582   1.655 -19.466  0.00  0.00    +0.000 OA
ATOM     17  H   UNL     1       3.003   2.213 -18.787  0.00  0.00    +0.000 HD
ENDBRANCH   4  16
BRANCH  13  18
ATOM     18  O   UNL     1       2.991  -6.422 -21.447  0.00  0.00    +0.000 OA
ATOM     19  H   UNL     1       2.172  -6.959 -21.493  0.00  0.00    +0.000 HD
ENDBRANCH  13  18
BRANCH   3  20
ATOM     20  C   UNL     1       4.939  -0.142 -20.274  0.00  0.00    +0.000 C 
ATOM     21  C   UNL     1       6.396   0.205 -20.589  0.00  0.00    +0.000 C 
BRANCH  21  25
ATOM     22  C   UNL     1       9.665   0.198 -19.094  0.00  0.00    +0.000 C 
ATOM     23  C   UNL     1       8.946  -0.326 -20.367  0.00  0.00    +0.000 C 
ATOM     24  C   UNL     1      10.333   1.536 -18.963  0.00  0.00    +0.000 C 
ATOM     25  C   UNL     1       7.764   0.533 -20.876  0.00  0.00    +0.000 C 
ATOM     26  C   UNL     1      11.286   1.612 -17.776  0.00  0.00    +0.000 C 
ATOM     27  C   UNL     1      10.161  -0.587 -18.010  0.00  0.00    +0.000 C 
ATOM     28  C   UNL     1      11.131   0.265 -17.239  0.00  0.00    +0.000 C 
ATOM     29  C   UNL     1       9.976   2.526 -19.896  0.00  0.00    +0.000 C 
ATOM     30  C   UNL     1       8.033   1.809 -21.540  0.00  0.00    +0.000 C 
ATOM     31  C   UNL     1       8.408  -1.772 -20.050  0.00  0.00    +0.000 C 
ATOM     32  C   UNL     1      10.016  -0.490 -21.500  0.00  0.00    +0.000 C 
ATOM     33  C   UNL     1       8.956   2.543 -21.004  0.00  0.00    +0.000 C 
ATOM     34  C   UNL     1      10.933   2.742 -16.818  0.00  0.00    +0.000 C 
ATOM     35  C   UNL     1       7.062   2.496 -22.463  0.00  0.00    +0.000 C 
BRANCH  26  36
ATOM     36  O   UNL     1      12.600   1.833 -18.218  0.00  0.00    +0.000 OA
ATOM     37  H   UNL     1      13.097   1.697 -17.392  0.00  0.00    +0.000 HD
ENDBRANCH  26  36
ENDBRANCH  21  25
ENDBRANCH   3  20
TORSDOF 5
ENDMDL
MODEL 2
REMARK VINA RESULT:      -6.6     16.606     20.883
REMARK  Name = 342374_SipholenolA.pdbqt.pdb
REMARK  5 active torsions:
REMARK  status: ('A' for Active; 'I' for Inactive)
REMARK    1  A    between atoms: C_3  and  C_20
REMARK    2  A    between atoms: C_4  and  O_16
REMARK    3  A    between atoms: C_13  and  O_18
REMARK    4  A    between atoms: C_21  and  C_25
REMARK    5  A    between atoms: C_26  and  O_36
REMARK                            x       y       z     vdW  Elec       q    Type
REMARK                         _______ _______ _______ _____ _____    ______ ____
ROOT
ATOM      1  O   UNL     1      -1.067 -20.972  -6.784  0.00  0.00    +0.000 OA
ATOM      2  C   UNL     1       0.654 -20.147  -8.567  0.00  0.00    +0.000 C 
ATOM      3  C   UNL     1       0.813 -19.738 -10.034  0.00  0.00    +0.000 C 
ATOM      4  C   UNL     1       0.128 -20.547 -11.122  0.00  0.00    +0.000 C 
ATOM      5  C   UNL     1      -0.749 -20.759  -8.131  0.00  0.00    +0.000 C 
ATOM      6  C   UNL     1       0.737 -18.964  -7.696  0.00  0.00    +0.000 C 
ATOM      7  C   UNL     1      -0.947 -21.317 -10.528  0.00  0.00    +0.000 C 
ATOM      8  C   UNL     1      -1.443 -21.469  -9.130  0.00  0.00    +0.000 C 
ATOM      9  C   UNL     1       1.757 -21.175  -8.194  0.00  0.00    +0.000 C 
ATOM     10  C   UNL     1       0.095 -18.352  -6.475  0.00  0.00    +0.000 C 
ATOM     11  C   UNL     1      -1.844 -19.957  -6.067  0.00  0.00    +0.000 C 
ATOM     12  C   UNL     1      -0.389 -19.634 -12.245  0.00  0.00    +0.000 C 
ATOM     13  C   UNL     1      -0.980 -18.732  -5.643  0.00  0.00    +0.000 C 
ATOM     14  C   UNL     1      -3.049 -19.442  -6.908  0.00  0.00    +0.000 C 
ATOM     15  C   UNL     1      -2.369 -20.623  -4.760  0.00  0.00    +0.000 C 
ENDROOT
BRANCH   4  16
ATOM     16  O   UNL     1       1.056 -21.410 -11.730  0.00  0.00    +0.000 OA
ATOM     17  H   UNL     1       0.939 -21.185 -12.670  0.00  0.00    +0.000 HD
ENDBRANCH   4  16
BRANCH  13  18
ATOM     18  O   UNL     1      -1.217 -18.011  -4.476  0.00  0.00    +0.000 OA
ATOM     19  H   UNL     1      -0.469 -17.413  -4.267  0.00  0.00    +0.000 HD
ENDBRANCH  13  18
BRANCH   3  20
ATOM     20  C   UNL     1       1.790 -18.743 -10.395  0.00  0.00    +0.000 C 
ATOM     21  C   UNL     1       2.820 -17.682 -10.792  0.00  0.00    +0.000 C 
BRANCH  21  25
ATOM     22  C   UNL     1       4.309 -16.172 -13.694  0.00  0.00    +0.000 C 
ATOM     23  C   UNL     1       3.572 -15.757 -12.392  0.00  0.00    +0.000 C 
ATOM     24  C   UNL     1       5.794 -16.339 -13.835  0.00  0.00    +0.000 C 
ATOM     25  C   UNL     1       3.781 -16.686 -11.173  0.00  0.00    +0.000 C 
ATOM     26  C   UNL     1       6.257 -16.348 -15.287  0.00  0.00    +0.000 C 
ATOM     27  C   UNL     1       3.805 -16.082 -15.026  0.00  0.00    +0.000 C 
ATOM     28  C   UNL     1       4.976 -16.180 -15.964  0.00  0.00    +0.000 C 
ATOM     29  C   UNL     1       6.538 -16.500 -12.652  0.00  0.00    +0.000 C 
ATOM     30  C   UNL     1       5.062 -16.672 -10.465  0.00  0.00    +0.000 C 
ATOM     31  C   UNL     1       2.031 -15.698 -12.713  0.00  0.00    +0.000 C 
ATOM     32  C   UNL     1       4.005 -14.294 -12.031  0.00  0.00    +0.000 C 
ATOM     33  C   UNL     1       6.120 -16.623 -11.211  0.00  0.00    +0.000 C 
ATOM     34  C   UNL     1       7.024 -17.614 -15.645  0.00  0.00    +0.000 C 
ATOM     35  C   UNL     1       5.243 -17.148  -9.048  0.00  0.00    +0.000 C 
BRANCH  26  36
ATOM     36  O   UNL     1       7.108 -15.260 -15.536  0.00  0.00    +0.000 OA
ATOM     37  H   UNL     1       7.072 -15.216 -16.508  0.00  0.00    +0.000 HD
ENDBRANCH  26  36
ENDBRANCH  21  25
ENDBRANCH   3  20
TORSDOF 5
ENDMDL
MODEL 3
REMARK VINA RESULT:      -6.3      2.677      8.974
REMARK  Name = 342374_SipholenolA.pdbqt.pdb
REMARK  5 active torsions:
REMARK  status: ('A' for Active; 'I' for Inactive)
REMARK    1  A    between atoms: C_3  and  C_20
REMARK    2  A    between atoms: C_4  and  O_16
REMARK    3  A    between atoms: C_13  and  O_18
REMARK    4  A    between atoms: C_21  and  C_25
REMARK    5  A    between atoms: C_26  and  O_36
REMARK                            x       y       z     vdW  Elec       q    Type
REMARK                         _______ _______ _______ _____ _____    ______ ____
ROOT
ATOM      1  O   UNL     1      11.541   0.496 -23.022  0.00  0.00    +0.000 OA
ATOM      2  C   UNL     1       9.201  -0.136 -22.049  0.00  0.00    +0.000 C 
ATOM      3  C   UNL     1       8.426  -1.230 -21.309  0.00  0.00    +0.000 C 
ATOM      4  C   UNL     1       8.617  -2.686 -21.697  0.00  0.00    +0.000 C 
ATOM      5  C   UNL     1      10.679  -0.489 -22.526  0.00  0.00    +0.000 C 
ATOM      6  C   UNL     1       9.450   1.006 -21.156  0.00  0.00    +0.000 C 
ATOM      7  C   UNL     1       9.869  -2.819 -22.416  0.00  0.00    +0.000 C 
ATOM      8  C   UNL     1      10.913  -1.841 -22.840  0.00  0.00    +0.000 C 
ATOM      9  C   UNL     1       8.395   0.316 -23.297  0.00  0.00    +0.000 C 
ATOM     10  C   UNL     1      10.524   1.998 -20.782  0.00  0.00    +0.000 C 
ATOM     11  C   UNL     1      12.510   1.117 -22.116  0.00  0.00    +0.000 C 
ATOM     12  C   UNL     1       8.581  -3.595 -20.459  0.00  0.00    +0.000 C 
ATOM     13  C   UNL     1      11.861   2.189 -21.190  0.00  0.00    +0.000 C 
ATOM     14  C   UNL     1      13.230   0.065 -21.222  0.00  0.00    +0.000 C 
ATOM     15  C   UNL     1      13.559   1.851 -23.002  0.00  0.00    +0.000 C 
ENDROOT
BRANCH   4  16
ATOM     16  O   UNL     1       7.552  -3.108 -22.511  0.00  0.00    +0.000 OA
ATOM     17  H   UNL     1       6.824  -3.152 -21.865  0.00  0.00    +0.000 HD
ENDBRANCH   4  16
BRANCH  13  18
ATOM     18  O   UNL     1      12.541   3.325 -20.762  0.00  0.00    +0.000 OA
ATOM     19  H   UNL     1      13.392   3.432 -21.237  0.00  0.00    +0.000 HD
ENDBRANCH  13  18
BRANCH   3  20
ATOM     20  C   UNL     1       7.352  -0.866 -20.420  0.00  0.00    +0.000 C 
ATOM     21  C   UNL     1       6.202  -0.472 -19.489  0.00  0.00    +0.000 C 
BRANCH  21  25
ATOM     22  C   UNL     1       2.713  -1.109 -18.909  0.00  0.00    +0.000 C 
ATOM     23  C   UNL     1       4.060  -1.115 -18.136  0.00  0.00    +0.000 C 
ATOM     24  C   UNL     1       1.796   0.071 -19.045  0.00  0.00    +0.000 C 
ATOM     25  C   UNL     1       5.121  -0.099 -18.622  0.00  0.00    +0.000 C 
ATOM     26  C   UNL     1       0.391  -0.315 -19.492  0.00  0.00    +0.000 C 
ATOM     27  C   UNL     1       1.930  -2.248 -19.267  0.00  0.00    +0.000 C 
ATOM     28  C   UNL     1       0.548  -1.761 -19.604  0.00  0.00    +0.000 C 
ATOM     29  C   UNL     1       2.343   1.342 -18.791  0.00  0.00    +0.000 C 
ATOM     30  C   UNL     1       4.946   1.324 -18.328  0.00  0.00    +0.000 C 
ATOM     31  C   UNL     1       4.671  -2.562 -18.251  0.00  0.00    +0.000 C 
ATOM     32  C   UNL     1       3.754  -0.883 -16.617  0.00  0.00    +0.000 C 
ATOM     33  C   UNL     1       3.744   1.788 -18.470  0.00  0.00    +0.000 C 
ATOM     34  C   UNL     1      -0.029   0.397 -20.770  0.00  0.00    +0.000 C 
ATOM     35  C   UNL     1       6.070   2.325 -18.323  0.00  0.00    +0.000 C 
BRANCH  26  36
ATOM     36  O   UNL     1      -0.546   0.017 -18.501  0.00  0.00    +0.000 OA
ATOM     37  H   UNL     1      -0.046   0.677 -17.989  0.00  0.00    +0.000 HD
ENDBRANCH  26  36
ENDBRANCH  21  25
ENDBRANCH   3  20
TORSDOF 5
ENDMDL
MODEL 4
REMARK VINA RESULT:      -6.3     16.520     19.400
REMARK  Name = 342374_SipholenolA.pdbqt.pdb
REMARK  5 active torsions:
REMARK  status: ('A' for Active; 'I' for Inactive)
REMARK    1  A    between atoms: C_3  and  C_20
REMARK    2  A    between atoms: C_4  and  O_16
REMARK    3  A    between atoms: C_13  and  O_18
REMARK    4  A    between atoms: C_21  and  C_25
REMARK    5  A    between atoms: C_26  and  O_36
REMARK                            x       y       z     vdW  Elec       q    Type
REMARK                         _______ _______ _______ _____ _____    ______ ____
ROOT
ATOM      1  O   UNL     1      -3.796 -19.290 -16.276  0.00  0.00    +0.000 OA
ATOM      2  C   UNL     1      -2.152 -18.806 -14.306  0.00  0.00    +0.000 C 
ATOM      3  C   UNL     1      -1.122 -19.446 -13.371  0.00  0.00    +0.000 C 
ATOM      4  C   UNL     1      -1.404 -20.805 -12.753  0.00  0.00    +0.000 C 
ATOM      5  C   UNL     1      -2.985 -19.783 -15.247  0.00  0.00    +0.000 C 
ATOM      6  C   UNL     1      -1.479 -17.953 -15.299  0.00  0.00    +0.000 C 
ATOM      7  C   UNL     1      -2.427 -21.471 -13.534  0.00  0.00    +0.000 C 
ATOM      8  C   UNL     1      -3.219 -21.073 -14.734  0.00  0.00    +0.000 C 
ATOM      9  C   UNL     1      -3.163 -17.973 -13.471  0.00  0.00    +0.000 C 
ATOM     10  C   UNL     1      -1.518 -17.592 -16.763  0.00  0.00    +0.000 C 
ATOM     11  C   UNL     1      -3.262 -19.234 -17.639  0.00  0.00    +0.000 C 
ATOM     12  C   UNL     1      -0.123 -21.649 -12.669  0.00  0.00    +0.000 C 
ATOM     13  C   UNL     1      -2.300 -18.027 -17.855  0.00  0.00    +0.000 C 
ATOM     14  C   UNL     1      -2.507 -20.540 -18.024  0.00  0.00    +0.000 C 
ATOM     15  C   UNL     1      -4.473 -19.032 -18.597  0.00  0.00    +0.000 C 
ENDROOT
BRANCH   4  16
ATOM     16  O   UNL     1      -1.842 -20.644 -11.427  0.00  0.00    +0.000 OA
ATOM     17  H   UNL     1      -2.779 -20.901 -11.504  0.00  0.00    +0.000 HD
ENDBRANCH   4  16
BRANCH  13  18
ATOM     18  O   UNL     1      -2.192 -17.358 -19.070  0.00  0.00    +0.000 OA
ATOM     19  H   UNL     1      -2.271 -16.388 -18.953  0.00  0.00    +0.000 HD
ENDBRANCH  13  18
BRANCH   3  20
ATOM     20  C   UNL     1      -0.008 -18.666 -12.896  0.00  0.00    +0.000 C 
ATOM     21  C   UNL     1       1.184 -17.839 -12.405  0.00  0.00    +0.000 C 
BRANCH  21  25
ATOM     22  C   UNL     1       4.197 -16.286 -13.600  0.00  0.00    +0.000 C 
ATOM     23  C   UNL     1       2.919 -15.924 -12.795  0.00  0.00    +0.000 C 
ATOM     24  C   UNL     1       5.480 -16.794 -13.009  0.00  0.00    +0.000 C 
ATOM     25  C   UNL     1       2.306 -17.067 -11.952  0.00  0.00    +0.000 C 
ATOM     26  C   UNL     1       6.663 -16.675 -13.962  0.00  0.00    +0.000 C 
ATOM     27  C   UNL     1       4.528 -15.849 -14.918  0.00  0.00    +0.000 C 
ATOM     28  C   UNL     1       6.001 -16.079 -15.117  0.00  0.00    +0.000 C 
ATOM     29  C   UNL     1       5.419 -17.334 -11.711  0.00  0.00    +0.000 C 
ATOM     30  C   UNL     1       2.973 -17.495 -10.722  0.00  0.00    +0.000 C 
ATOM     31  C   UNL     1       1.833 -15.427 -13.822  0.00  0.00    +0.000 C 
ATOM     32  C   UNL     1       3.252 -14.700 -11.875  0.00  0.00    +0.000 C 
ATOM     33  C   UNL     1       4.264 -17.589 -10.781  0.00  0.00    +0.000 C 
ATOM     34  C   UNL     1       7.342 -18.014 -14.217  0.00  0.00    +0.000 C 
ATOM     35  C   UNL     1       2.283 -18.233  -9.606  0.00  0.00    +0.000 C 
BRANCH  26  36
ATOM     36  O   UNL     1       7.632 -15.809 -13.432  0.00  0.00    +0.000 OA
ATOM     37  H   UNL     1       7.819 -15.247 -14.204  0.00  0.00    +0.000 HD
ENDBRANCH  26  36
ENDBRANCH  21  25
ENDBRANCH   3  20
TORSDOF 5
ENDMDL
MODEL 5
REMARK VINA RESULT:      -6.0     12.367     17.899
REMARK  Name = 342374_SipholenolA.pdbqt.pdb
REMARK  5 active torsions:
REMARK  status: ('A' for Active; 'I' for Inactive)
REMARK    1  A    between atoms: C_3  and  C_20
REMARK    2  A    between atoms: C_4  and  O_16
REMARK    3  A    between atoms: C_13  and  O_18
REMARK    4  A    between atoms: C_21  and  C_25
REMARK    5  A    between atoms: C_26  and  O_36
REMARK                            x       y       z     vdW  Elec       q    Type
REMARK                         _______ _______ _______ _____ _____    ______ ____
ROOT
ATOM      1  O   UNL     1      -5.424  -2.190 -20.223  0.00  0.00    +0.000 OA
ATOM      2  C   UNL     1      -7.897  -1.578 -20.797  0.00  0.00    +0.000 C 
ATOM      3  C   UNL     1      -9.242  -1.174 -20.187  0.00  0.00    +0.000 C 
ATOM      4  C   UNL     1      -9.744  -1.869 -18.934  0.00  0.00    +0.000 C 
ATOM      5  C   UNL     1      -6.741  -2.003 -19.788  0.00  0.00    +0.000 C 
ATOM      6  C   UNL     1      -7.279  -0.429 -21.476  0.00  0.00    +0.000 C 
ATOM      7  C   UNL     1      -8.621  -2.497 -18.265  0.00  0.00    +0.000 C 
ATOM      8  C   UNL     1      -7.168  -2.600 -18.586  0.00  0.00    +0.000 C 
ATOM      9  C   UNL     1      -8.111  -2.749 -21.794  0.00  0.00    +0.000 C 
ATOM     10  C   UNL     1      -5.944   0.247 -21.672  0.00  0.00    +0.000 C 
ATOM     11  C   UNL     1      -4.465  -1.091 -20.083  0.00  0.00    +0.000 C 
ATOM     12  C   UNL     1     -10.468  -0.881 -18.007  0.00  0.00    +0.000 C 
ATOM     13  C   UNL     1      -4.644   0.002 -21.179  0.00  0.00    +0.000 C 
ATOM     14  C   UNL     1      -4.560  -0.408 -18.687  0.00  0.00    +0.000 C 
ATOM     15  C   UNL     1      -3.043  -1.698 -20.269  0.00  0.00    +0.000 C 
ENDROOT
BRANCH   4  16
ATOM     16  O   UNL     1     -10.700  -2.840 -19.276  0.00  0.00    +0.000 OA
ATOM     17  H   UNL     1     -10.262  -3.655 -18.972  0.00  0.00    +0.000 HD
ENDBRANCH   4  16
BRANCH  13  18
ATOM     18  O   UNL     1      -3.579   0.732 -21.696  0.00  0.00    +0.000 OA
ATOM     19  H   UNL     1      -2.986   1.052 -20.983  0.00  0.00    +0.000 HD
ENDBRANCH  13  18
BRANCH   3  20
ATOM     20  C   UNL     1     -10.130  -0.313 -20.927  0.00  0.00    +0.000 C 
ATOM     21  C   UNL     1     -11.071   0.592 -21.728  0.00  0.00    +0.000 C 
BRANCH  21  25
ATOM     22  C   UNL     1     -13.218   3.453 -21.378  0.00  0.00    +0.000 C 
ATOM     23  C   UNL     1     -12.033   2.964 -22.255  0.00  0.00    +0.000 C 
ATOM     24  C   UNL     1     -14.671   3.227 -21.679  0.00  0.00    +0.000 C 
ATOM     25  C   UNL     1     -11.950   1.436 -22.485  0.00  0.00    +0.000 C 
ATOM     26  C   UNL     1     -15.593   4.148 -20.887  0.00  0.00    +0.000 C 
ATOM     27  C   UNL     1     -13.184   4.495 -20.404  0.00  0.00    +0.000 C 
ATOM     28  C   UNL     1     -14.605   4.904 -20.126  0.00  0.00    +0.000 C 
ATOM     29  C   UNL     1     -14.987   2.203 -22.590  0.00  0.00    +0.000 C 
ATOM     30  C   UNL     1     -12.901   0.789 -23.390  0.00  0.00    +0.000 C 
ATOM     31  C   UNL     1     -10.700   3.435 -21.562  0.00  0.00    +0.000 C 
ATOM     32  C   UNL     1     -12.104   3.709 -23.632  0.00  0.00    +0.000 C 
ATOM     33  C   UNL     1     -14.130   1.189 -23.299  0.00  0.00    +0.000 C 
ATOM     34  C   UNL     1     -16.609   3.378 -20.055  0.00  0.00    +0.000 C 
ATOM     35  C   UNL     1     -12.661  -0.544 -24.047  0.00  0.00    +0.000 C 
BRANCH  26  36
ATOM     36  O   UNL     1     -16.312   4.984 -21.756  0.00  0.00    +0.000 OA
ATOM     37  H   UNL     1     -16.669   4.332 -22.385  0.00  0.00    +0.000 HD
ENDBRANCH  26  36
ENDBRANCH  21  25
ENDBRANCH   3  20
TORSDOF 5
ENDMDL
MODEL 6
REMARK VINA RESULT:      -5.9     16.110     18.920
REMARK  Name = 342374_SipholenolA.pdbqt.pdb
REMARK  5 active torsions:
REMARK  status: ('A' for Active; 'I' for Inactive)
REMARK    1  A    between atoms: C_3  and  C_20
REMARK    2  A    between atoms: C_4  and  O_16
REMARK    3  A    between atoms: C_13  and  O_18
REMARK    4  A    between atoms: C_21  and  C_25
REMARK    5  A    between atoms: C_26  and  O_36
REMARK                            x       y       z     vdW  Elec       q    Type
REMARK                         _______ _______ _______ _____ _____    ______ ____
ROOT
ATOM      1  O   UNL     1      -1.973 -20.081 -18.536  0.00  0.00    +0.000 OA
ATOM      2  C   UNL     1      -1.204 -18.613 -16.518  0.00  0.00    +0.000 C 
ATOM      3  C   UNL     1      -1.238 -18.497 -14.991  0.00  0.00    +0.000 C 
ATOM      4  C   UNL     1      -2.525 -18.791 -14.240  0.00  0.00    +0.000 C 
ATOM      5  C   UNL     1      -2.091 -19.758 -17.180  0.00  0.00    +0.000 C 
ATOM      6  C   UNL     1       0.143 -18.994 -16.970  0.00  0.00    +0.000 C 
ATOM      7  C   UNL     1      -3.392 -19.585 -15.088  0.00  0.00    +0.000 C 
ATOM      8  C   UNL     1      -3.265 -20.100 -16.482  0.00  0.00    +0.000 C 
ATOM      9  C   UNL     1      -1.627 -17.259 -17.150  0.00  0.00    +0.000 C 
ATOM     10  C   UNL     1       0.845 -19.890 -17.962  0.00  0.00    +0.000 C 
ATOM     11  C   UNL     1      -1.116 -21.202 -18.930  0.00  0.00    +0.000 C 
ATOM     12  C   UNL     1      -2.236 -19.503 -12.910  0.00  0.00    +0.000 C 
ATOM     13  C   UNL     1       0.398 -20.831 -18.914  0.00  0.00    +0.000 C 
ATOM     14  C   UNL     1      -1.327 -22.446 -18.019  0.00  0.00    +0.000 C 
ATOM     15  C   UNL     1      -1.483 -21.565 -20.399  0.00  0.00    +0.000 C 
ENDROOT
BRANCH   4  16
ATOM     16  O   UNL     1      -3.163 -17.587 -13.897  0.00  0.00    +0.000 OA
ATOM     17  H   UNL     1      -2.973 -17.041 -14.681  0.00  0.00    +0.000 HD
ENDBRANCH   4  16
BRANCH  13  18
ATOM     18  O   UNL     1       1.316 -21.379 -19.804  0.00  0.00    +0.000 OA
ATOM     19  H   UNL     1       1.550 -20.743 -20.513  0.00  0.00    +0.000 HD
ENDBRANCH  13  18
BRANCH   3  20
ATOM     20  C   UNL     1      -0.133 -17.887 -14.298  0.00  0.00    +0.000 C 
ATOM     21  C   UNL     1       1.048 -17.254 -13.556  0.00  0.00    +0.000 C 
BRANCH  21  25
ATOM     22  C   UNL     1       4.369 -15.991 -14.103  0.00  0.00    +0.000 C 
ATOM     23  C   UNL     1       3.022 -15.543 -13.473  0.00  0.00    +0.000 C 
ATOM     24  C   UNL     1       5.472 -16.703 -13.376  0.00  0.00    +0.000 C 
ATOM     25  C   UNL     1       2.156 -16.668 -12.858  0.00  0.00    +0.000 C 
ATOM     26  C   UNL     1       6.803 -16.651 -14.117  0.00  0.00    +0.000 C 
ATOM     27  C   UNL     1       4.959 -15.489 -15.301  0.00  0.00    +0.000 C 
ATOM     28  C   UNL     1       6.411 -15.883 -15.292  0.00  0.00    +0.000 C 
ATOM     29  C   UNL     1       5.139 -17.339 -12.166  0.00  0.00    +0.000 C 
ATOM     30  C   UNL     1       2.559 -17.277 -11.590  0.00  0.00    +0.000 C 
ATOM     31  C   UNL     1       2.182 -14.830 -14.598  0.00  0.00    +0.000 C 
ATOM     32  C   UNL     1       3.328 -14.451 -12.391  0.00  0.00    +0.000 C 
ATOM     33  C   UNL     1       3.824 -17.525 -11.457  0.00  0.00    +0.000 C 
ATOM     34  C   UNL     1       7.365 -18.037 -14.401  0.00  0.00    +0.000 C 
ATOM     35  C   UNL     1       1.617 -18.015 -10.676  0.00  0.00    +0.000 C 
BRANCH  26  36
ATOM     36  O   UNL     1       7.760 -15.960 -13.356  0.00  0.00    +0.000 OA
ATOM     37  H   UNL     1       8.510 -15.943 -13.976  0.00  0.00    +0.000 HD
ENDBRANCH  26  36
ENDBRANCH  21  25
ENDBRANCH   3  20
TORSDOF 5
ENDMDL
MODEL 7
REMARK VINA RESULT:      -5.9      2.115      9.014
REMARK  Name = 342374_SipholenolA.pdbqt.pdb
REMARK  5 active torsions:
REMARK  status: ('A' for Active; 'I' for Inactive)
REMARK    1  A    between atoms: C_3  and  C_20
REMARK    2  A    between atoms: C_4  and  O_16
REMARK    3  A    between atoms: C_13  and  O_18
REMARK    4  A    between atoms: C_21  and  C_25
REMARK    5  A    between atoms: C_26  and  O_36
REMARK                            x       y       z     vdW  Elec       q    Type
REMARK                         _______ _______ _______ _____ _____    ______ ____
ROOT
ATOM      1  O   UNL     1      10.485   1.538 -20.050  0.00  0.00    +0.000 OA
ATOM      2  C   UNL     1       8.052   1.135 -20.907  0.00  0.00    +0.000 C 
ATOM      3  C   UNL     1       7.159   0.156 -21.675  0.00  0.00    +0.000 C 
ATOM      4  C   UNL     1       7.676  -0.503 -22.942  0.00  0.00    +0.000 C 
ATOM      5  C   UNL     1       9.614   0.831 -20.886  0.00  0.00    +0.000 C 
ATOM      6  C   UNL     1       7.731   1.099 -19.471  0.00  0.00    +0.000 C 
ATOM      7  C   UNL     1       9.123  -0.428 -22.953  0.00  0.00    +0.000 C 
ATOM      8  C   UNL     1      10.123   0.168 -22.020  0.00  0.00    +0.000 C 
ATOM      9  C   UNL     1       7.854   2.568 -21.472  0.00  0.00    +0.000 C 
ATOM     10  C   UNL     1       8.392   1.109 -18.115  0.00  0.00    +0.000 C 
ATOM     11  C   UNL     1      10.856   0.962 -18.755  0.00  0.00    +0.000 C 
ATOM     12  C   UNL     1       7.188  -1.955 -23.047  0.00  0.00    +0.000 C 
ATOM     13  C   UNL     1       9.736   1.126 -17.684  0.00  0.00    +0.000 C 
ATOM     14  C   UNL     1      11.209  -0.551 -18.870  0.00  0.00    +0.000 C 
ATOM     15  C   UNL     1      12.099   1.748 -18.243  0.00  0.00    +0.000 C 
ENDROOT
BRANCH   4  16
ATOM     16  O   UNL     1       7.154   0.156 -24.069  0.00  0.00    +0.000 OA
ATOM     17  H   UNL     1       7.049   1.063 -23.728  0.00  0.00    +0.000 HD
ENDBRANCH   4  16
BRANCH  13  18
ATOM     18  O   UNL     1      10.009   1.301 -16.331  0.00  0.00    +0.000 OA
ATOM     19  H   UNL     1      10.945   1.098 -16.126  0.00  0.00    +0.000 HD
ENDBRANCH  13  18
BRANCH   3  20
ATOM     20  C   UNL     1       5.765   0.044 -21.332  0.00  0.00    +0.000 C 
ATOM     21  C   UNL     1       4.286  -0.073 -20.952  0.00  0.00    +0.000 C 
BRANCH  21  25
ATOM     22  C   UNL     1       1.891  -2.423 -19.664  0.00  0.00    +0.000 C 
ATOM     23  C   UNL     1       2.431  -0.999 -19.361  0.00  0.00    +0.000 C 
ATOM     24  C   UNL     1       0.729  -2.739 -20.560  0.00  0.00    +0.000 C 
ATOM     25  C   UNL     1       2.902  -0.181 -20.587  0.00  0.00    +0.000 C 
ATOM     26  C   UNL     1       0.181  -4.146 -20.351  0.00  0.00    +0.000 C 
ATOM     27  C   UNL     1       2.108  -3.601 -18.887  0.00  0.00    +0.000 C 
ATOM     28  C   UNL     1       1.077  -4.615 -19.301  0.00  0.00    +0.000 C 
ATOM     29  C   UNL     1       0.335  -1.745 -21.475  0.00  0.00    +0.000 C 
ATOM     30  C   UNL     1       1.910   0.378 -21.506  0.00  0.00    +0.000 C 
ATOM     31  C   UNL     1       3.644  -1.149 -18.368  0.00  0.00    +0.000 C 
ATOM     32  C   UNL     1       1.320  -0.210 -18.586  0.00  0.00    +0.000 C 
ATOM     33  C   UNL     1       0.917  -0.397 -21.807  0.00  0.00    +0.000 C 
ATOM     34  C   UNL     1       0.187  -4.969 -21.632  0.00  0.00    +0.000 C 
ATOM     35  C   UNL     1       2.182   1.535 -22.431  0.00  0.00    +0.000 C 
BRANCH  26  36
ATOM     36  O   UNL     1      -1.146  -4.090 -19.896  0.00  0.00    +0.000 OA
ATOM     37  H   UNL     1      -1.250  -3.134 -19.747  0.00  0.00    +0.000 HD
ENDBRANCH  26  36
ENDBRANCH  21  25
ENDBRANCH   3  20
TORSDOF 5
ENDMDL
MODEL 8
REMARK VINA RESULT:      -5.8     14.890     17.425
REMARK  Name = 342374_SipholenolA.pdbqt.pdb
REMARK  5 active torsions:
REMARK  status: ('A' for Active; 'I' for Inactive)
REMARK    1  A    between atoms: C_3  and  C_20
REMARK    2  A    between atoms: C_4  and  O_16
REMARK    3  A    between atoms: C_13  and  O_18
REMARK    4  A    between atoms: C_21  and  C_25
REMARK    5  A    between atoms: C_26  and  O_36
REMARK                            x       y       z     vdW  Elec       q    Type
REMARK                         _______ _______ _______ _____ _____    ______ ____
ROOT
ATOM      1  O   UNL     1      -2.248 -16.165 -21.226  0.00  0.00    +0.000 OA
ATOM      2  C   UNL     1      -1.145 -16.875 -18.968  0.00  0.00    +0.000 C 
ATOM      3  C   UNL     1      -0.125 -17.828 -18.338  0.00  0.00    +0.000 C 
ATOM      4  C   UNL     1      -0.075 -19.281 -18.777  0.00  0.00    +0.000 C 
ATOM      5  C   UNL     1      -1.493 -17.097 -20.506  0.00  0.00    +0.000 C 
ATOM      6  C   UNL     1      -0.617 -15.502 -18.987  0.00  0.00    +0.000 C 
ATOM      7  C   UNL     1      -0.720 -19.401 -20.070  0.00  0.00    +0.000 C 
ATOM      8  C   UNL     1      -1.403 -18.425 -20.967  0.00  0.00    +0.000 C 
ATOM      9  C   UNL     1      -2.474 -16.936 -18.167  0.00  0.00    +0.000 C 
ATOM     10  C   UNL     1      -0.541 -14.280 -19.869  0.00  0.00    +0.000 C 
ATOM     11  C   UNL     1      -1.555 -15.160 -22.036  0.00  0.00    +0.000 C 
ATOM     12  C   UNL     1       1.372 -19.795 -18.821  0.00  0.00    +0.000 C 
ATOM     13  C   UNL     1      -0.980 -13.993 -21.179  0.00  0.00    +0.000 C 
ATOM     14  C   UNL     1      -0.392 -15.780 -22.866  0.00  0.00    +0.000 C 
ATOM     15  C   UNL     1      -2.610 -14.543 -23.001  0.00  0.00    +0.000 C 
ENDROOT
BRANCH   4  16
ATOM     16  O   UNL     1      -0.738 -20.087 -17.836  0.00  0.00    +0.000 OA
ATOM     17  H   UNL     1      -1.662 -20.009 -18.134  0.00  0.00    +0.000 HD
ENDBRANCH   4  16
BRANCH  13  18
ATOM     18  O   UNL     1      -0.895 -12.686 -21.647  0.00  0.00    +0.000 OA
ATOM     19  H   UNL     1      -0.179 -12.589 -22.310  0.00  0.00    +0.000 HD
ENDBRANCH  13  18
BRANCH   3  20
ATOM     20  C   UNL     1       0.617 -17.410 -17.175  0.00  0.00    +0.000 C 
ATOM     21  C   UNL     1       1.417 -16.977 -15.944  0.00  0.00    +0.000 C 
BRANCH  21  25
ATOM     22  C   UNL     1       4.718 -15.944 -14.965  0.00  0.00    +0.000 C 
ATOM     23  C   UNL     1       3.246 -15.463 -14.851  0.00  0.00    +0.000 C 
ATOM     24  C   UNL     1       5.420 -16.830 -13.977  0.00  0.00    +0.000 C 
ATOM     25  C   UNL     1       2.174 -16.577 -14.792  0.00  0.00    +0.000 C 
ATOM     26  C   UNL     1       6.937 -16.803 -14.125  0.00  0.00    +0.000 C 
ATOM     27  C   UNL     1       5.751 -15.352 -15.752  0.00  0.00    +0.000 C 
ATOM     28  C   UNL     1       7.067 -15.866 -15.236  0.00  0.00    +0.000 C 
ATOM     29  C   UNL     1       4.614 -17.578 -13.099  0.00  0.00    +0.000 C 
ATOM     30  C   UNL     1       2.021 -17.368 -13.570  0.00  0.00    +0.000 C 
ATOM     31  C   UNL     1       2.944 -14.549 -16.098  0.00  0.00    +0.000 C 
ATOM     32  C   UNL     1       3.129 -14.541 -13.589  0.00  0.00    +0.000 C 
ATOM     33  C   UNL     1       3.121 -17.737 -12.993  0.00  0.00    +0.000 C 
ATOM     34  C   UNL     1       7.523 -18.187 -14.366  0.00  0.00    +0.000 C 
ATOM     35  C   UNL     1       0.772 -18.129 -13.213  0.00  0.00    +0.000 C 
BRANCH  26  36
ATOM     36  O   UNL     1       7.532 -16.293 -12.961  0.00  0.00    +0.000 OA
ATOM     37  H   UNL     1       7.600 -17.100 -12.421  0.00  0.00    +0.000 HD
ENDBRANCH  26  36
ENDBRANCH  21  25
ENDBRANCH   3  20
TORSDOF 5
ENDMDL
MODEL 9
REMARK VINA RESULT:      -5.7     10.790     16.349
REMARK  Name = 342374_SipholenolA.pdbqt.pdb
REMARK  5 active torsions:
REMARK  status: ('A' for Active; 'I' for Inactive)
REMARK    1  A    between atoms: C_3  and  C_20
REMARK    2  A    between atoms: C_4  and  O_16
REMARK    3  A    between atoms: C_13  and  O_18
REMARK    4  A    between atoms: C_21  and  C_25
REMARK    5  A    between atoms: C_26  and  O_36
REMARK                            x       y       z     vdW  Elec       q    Type
REMARK                         _______ _______ _______ _____ _____    ______ ____
ROOT
ATOM      1  O   UNL     1      -4.517  -2.802 -19.712  0.00  0.00    +0.000 OA
ATOM      2  C   UNL     1      -6.943  -2.315 -20.549  0.00  0.00    +0.000 C 
ATOM      3  C   UNL     1      -8.424  -2.426 -20.175  0.00  0.00    +0.000 C 
ATOM      4  C   UNL     1      -8.944  -3.692 -19.517  0.00  0.00    +0.000 C 
ATOM      5  C   UNL     1      -5.894  -3.016 -19.578  0.00  0.00    +0.000 C 
ATOM      6  C   UNL     1      -6.504  -0.912 -20.483  0.00  0.00    +0.000 C 
ATOM      7  C   UNL     1      -7.827  -4.412 -18.937  0.00  0.00    +0.000 C 
ATOM      8  C   UNL     1      -6.357  -4.163 -18.904  0.00  0.00    +0.000 C 
ATOM      9  C   UNL     1      -6.724  -2.886 -21.976  0.00  0.00    +0.000 C 
ATOM     10  C   UNL     1      -5.345  -0.059 -20.029  0.00  0.00    +0.000 C 
ATOM     11  C   UNL     1      -3.869  -1.789 -18.876  0.00  0.00    +0.000 C 
ATOM     12  C   UNL     1     -10.011  -3.366 -18.461  0.00  0.00    +0.000 C 
ATOM     13  C   UNL     1      -4.118  -0.340 -19.390  0.00  0.00    +0.000 C 
ATOM     14  C   UNL     1      -4.335  -1.872 -17.392  0.00  0.00    +0.000 C 
ATOM     15  C   UNL     1      -2.335  -2.046 -18.953  0.00  0.00    +0.000 C 
ENDROOT
BRANCH   4  16
ATOM     16  O   UNL     1      -9.587  -4.497 -20.473  0.00  0.00    +0.000 OA
ATOM     17  H   UNL     1     -10.517  -4.235 -20.348  0.00  0.00    +0.000 HD
ENDBRANCH   4  16
BRANCH  13  18
ATOM     18  O   UNL     1      -3.179   0.679 -19.256  0.00  0.00    +0.000 OA
ATOM     19  H   UNL     1      -2.269   0.319 -19.192  0.00  0.00    +0.000 HD
ENDBRANCH  13  18
BRANCH   3  20
ATOM     20  C   UNL     1      -9.356  -1.439 -20.657  0.00  0.00    +0.000 C 
ATOM     21  C   UNL     1     -10.345  -0.396 -21.185  0.00  0.00    +0.000 C 
BRANCH  21  25
ATOM     22  C   UNL     1     -10.929   1.722 -24.029  0.00  0.00    +0.000 C 
ATOM     23  C   UNL     1     -11.667   0.650 -23.182  0.00  0.00    +0.000 C 
ATOM     24  C   UNL     1     -10.939   3.199 -23.760  0.00  0.00    +0.000 C 
ATOM     25  C   UNL     1     -11.269   0.579 -21.689  0.00  0.00    +0.000 C 
ATOM     26  C   UNL     1     -10.484   4.026 -24.957  0.00  0.00    +0.000 C 
ATOM     27  C   UNL     1     -10.468   1.580 -25.372  0.00  0.00    +0.000 C 
ATOM     28  C   UNL     1     -10.214   2.960 -25.915  0.00  0.00    +0.000 C 
ATOM     29  C   UNL     1     -11.316   3.614 -22.470  0.00  0.00    +0.000 C 
ATOM     30  C   UNL     1     -11.718   1.628 -20.772  0.00  0.00    +0.000 C 
ATOM     31  C   UNL     1     -11.385  -0.754 -23.838  0.00  0.00    +0.000 C 
ATOM     32  C   UNL     1     -13.208   0.899 -23.315  0.00  0.00    +0.000 C 
ATOM     33  C   UNL     1     -11.652   2.841 -21.223  0.00  0.00    +0.000 C 
ATOM     34  C   UNL     1      -9.298   4.922 -24.627  0.00  0.00    +0.000 C 
ATOM     35  C   UNL     1     -11.805   1.456 -19.279  0.00  0.00    +0.000 C 
BRANCH  26  36
ATOM     36  O   UNL     1     -11.525   4.856 -25.402  0.00  0.00    +0.000 OA
ATOM     37  H   UNL     1     -11.021   5.567 -25.835  0.00  0.00    +0.000 HD
ENDBRANCH  26  36
ENDBRANCH  21  25
ENDBRANCH   3  20
TORSDOF 5
ENDMDL
