MODEL 1
REMARK VINA RESULT:      -4.0      0.000      0.000
REMARK  Name = 43806_Diaminocyclohexane.pdbqt.pdb
REMARK  2 active torsions:
REMARK  status: ('A' for Active; 'I' for Inactive)
REMARK    1  A    between atoms: C_1  and  N_7
REMARK    2  A    between atoms: C_2  and  N_10
REMARK                            x       y       z     vdW  Elec       q    Type
REMARK                         _______ _______ _______ _____ _____    ______ ____
ROOT
ATOM      1  C   UNL     1      11.067   1.627 -15.809  0.00  0.00    +0.000 A 
ATOM      2  C   UNL     1      11.550   0.324 -16.315  0.00  0.00    +0.000 A 
ATOM      3  C   UNL     1      10.805   2.613 -16.816  0.00  0.00    +0.000 A 
ATOM      4  C   UNL     1      11.655   0.224 -17.741  0.00  0.00    +0.000 A 
ATOM      5  C   UNL     1      10.904   2.581 -18.350  0.00  0.00    +0.000 A 
ATOM      6  C   UNL     1      11.383   1.226 -18.874  0.00  0.00    +0.000 A 
ENDROOT
BRANCH   1   7
ATOM      7  N   UNL     1      10.804   1.866 -14.440  0.00  0.00    +0.000 N 
ATOM      8  H   UNL     1      10.525   1.034 -13.930  0.00  0.00    +0.000 HD
ATOM      9  H   UNL     1      10.190   2.654 -14.260  0.00  0.00    +0.000 HD
ENDBRANCH   1   7
BRANCH   2  10
ATOM     10  N   UNL     1      11.957  -0.726 -15.457  0.00  0.00    +0.000 N 
ATOM     11  H   UNL     1      12.344  -0.402 -14.576  0.00  0.00    +0.000 HD
ATOM     12  H   UNL     1      12.540  -1.429 -15.900  0.00  0.00    +0.000 HD
ENDBRANCH   2  10
TORSDOF 2
ENDMDL
MODEL 2
REMARK VINA RESULT:      -4.0      0.015      2.286
REMARK  Name = 43806_Diaminocyclohexane.pdbqt.pdb
REMARK  2 active torsions:
REMARK  status: ('A' for Active; 'I' for Inactive)
REMARK    1  A    between atoms: C_1  and  N_7
REMARK    2  A    between atoms: C_2  and  N_10
REMARK                            x       y       z     vdW  Elec       q    Type
REMARK                         _______ _______ _______ _____ _____    ______ ____
ROOT
ATOM      1  C   UNL     1      11.552   0.326 -16.323  0.00  0.00    +0.000 A 
ATOM      2  C   UNL     1      11.072   1.633 -15.822  0.00  0.00    +0.000 A 
ATOM      3  C   UNL     1      11.653   0.219 -17.748  0.00  0.00    +0.000 A 
ATOM      4  C   UNL     1      10.809   2.614 -16.833  0.00  0.00    +0.000 A 
ATOM      5  C   UNL     1      11.381   1.217 -18.886  0.00  0.00    +0.000 A 
ATOM      6  C   UNL     1      10.905   2.575 -18.366  0.00  0.00    +0.000 A 
ENDROOT
BRANCH   1   7
ATOM      7  N   UNL     1      11.958  -0.720 -15.461  0.00  0.00    +0.000 N 
ATOM      8  H   UNL     1      12.575  -0.413 -14.715  0.00  0.00    +0.000 HD
ATOM      9  H   UNL     1      12.308  -1.546 -15.937  0.00  0.00    +0.000 HD
ENDBRANCH   1   7
BRANCH   2  10
ATOM     10  N   UNL     1      10.812   1.879 -14.453  0.00  0.00    +0.000 N 
ATOM     11  H   UNL     1       9.828   1.832 -14.212  0.00  0.00    +0.000 HD
ATOM     12  H   UNL     1      11.261   2.710 -14.082  0.00  0.00    +0.000 HD
ENDBRANCH   2  10
TORSDOF 2
ENDMDL
MODEL 3
REMARK VINA RESULT:      -3.8     12.217     13.402
REMARK  Name = 43806_Diaminocyclohexane.pdbqt.pdb
REMARK  2 active torsions:
REMARK  status: ('A' for Active; 'I' for Inactive)
REMARK    1  A    between atoms: C_1  and  N_7
REMARK    2  A    between atoms: C_2  and  N_10
REMARK                            x       y       z     vdW  Elec       q    Type
REMARK                         _______ _______ _______ _____ _____    ______ ____
ROOT
ATOM      1  C   UNL     1       9.385  -4.949  -5.410  0.00  0.00    +0.000 A 
ATOM      2  C   UNL     1       9.876  -5.481  -6.700  0.00  0.00    +0.000 A 
ATOM      3  C   UNL     1       9.734  -5.726  -4.257  0.00  0.00    +0.000 A 
ATOM      4  C   UNL     1      10.659  -6.678  -6.607  0.00  0.00    +0.000 A 
ATOM      5  C   UNL     1      10.554  -7.014  -4.084  0.00  0.00    +0.000 A 
ATOM      6  C   UNL     1      11.081  -7.552  -5.416  0.00  0.00    +0.000 A 
ENDROOT
BRANCH   1   7
ATOM      7  N   UNL     1       8.687  -3.723  -5.304  0.00  0.00    +0.000 N 
ATOM      8  H   UNL     1       8.990  -3.026  -5.978  0.00  0.00    +0.000 HD
ATOM      9  H   UNL     1       8.630  -3.350  -4.362  0.00  0.00    +0.000 HD
ENDBRANCH   1   7
BRANCH   2  10
ATOM     10  N   UNL     1       9.537  -4.901  -7.945  0.00  0.00    +0.000 N 
ATOM     11  H   UNL     1       8.655  -5.236  -8.321  0.00  0.00    +0.000 HD
ATOM     12  H   UNL     1      10.281  -4.917  -8.634  0.00  0.00    +0.000 HD
ENDBRANCH   2  10
TORSDOF 2
ENDMDL
MODEL 4
REMARK VINA RESULT:      -3.8     23.781     24.613
REMARK  Name = 43806_Diaminocyclohexane.pdbqt.pdb
REMARK  2 active torsions:
REMARK  status: ('A' for Active; 'I' for Inactive)
REMARK    1  A    between atoms: C_1  and  N_7
REMARK    2  A    between atoms: C_2  and  N_10
REMARK                            x       y       z     vdW  Elec       q    Type
REMARK                         _______ _______ _______ _____ _____    ______ ____
ROOT
ATOM      1  C   UNL     1     -10.567   6.015  -7.783  0.00  0.00    +0.000 A 
ATOM      2  C   UNL     1     -10.876   6.273  -9.207  0.00  0.00    +0.000 A 
ATOM      3  C   UNL     1     -11.041   7.009  -6.867  0.00  0.00    +0.000 A 
ATOM      4  C   UNL     1     -11.634   7.462  -9.461  0.00  0.00    +0.000 A 
ATOM      5  C   UNL     1     -11.844   8.305  -7.066  0.00  0.00    +0.000 A 
ATOM      6  C   UNL     1     -12.182   8.560  -8.536  0.00  0.00    +0.000 A 
ENDROOT
BRANCH   1   7
ATOM      7  N   UNL     1      -9.920   4.836  -7.343  0.00  0.00    +0.000 N 
ATOM      8  H   UNL     1     -10.257   3.995  -7.799  0.00  0.00    +0.000 HD
ATOM      9  H   UNL     1      -9.870   4.736  -6.334  0.00  0.00    +0.000 HD
ENDBRANCH   1   7
BRANCH   2  10
ATOM     10  N   UNL     1     -10.394   5.452 -10.255  0.00  0.00    +0.000 N 
ATOM     11  H   UNL     1      -9.454   5.103 -10.096  0.00  0.00    +0.000 HD
ATOM     12  H   UNL     1     -10.508   5.845 -11.183  0.00  0.00    +0.000 HD
ENDBRANCH   2  10
TORSDOF 2
ENDMDL
MODEL 5
REMARK VINA RESULT:      -3.7     12.032     13.370
REMARK  Name = 43806_Diaminocyclohexane.pdbqt.pdb
REMARK  2 active torsions:
REMARK  status: ('A' for Active; 'I' for Inactive)
REMARK    1  A    between atoms: C_1  and  N_7
REMARK    2  A    between atoms: C_2  and  N_10
REMARK                            x       y       z     vdW  Elec       q    Type
REMARK                         _______ _______ _______ _____ _____    ______ ____
ROOT
ATOM      1  C   UNL     1       9.897  -5.389  -6.856  0.00  0.00    +0.000 A 
ATOM      2  C   UNL     1       9.390  -4.769  -5.612  0.00  0.00    +0.000 A 
ATOM      3  C   UNL     1      10.613  -6.616  -6.679  0.00  0.00    +0.000 A 
ATOM      4  C   UNL     1       9.661  -5.504  -4.412  0.00  0.00    +0.000 A 
ATOM      5  C   UNL     1      10.949  -7.451  -5.432  0.00  0.00    +0.000 A 
ATOM      6  C   UNL     1      10.407  -6.822  -4.148  0.00  0.00    +0.000 A 
ENDROOT
BRANCH   1   7
ATOM      7  N   UNL     1       9.630  -4.855  -8.140  0.00  0.00    +0.000 N 
ATOM      8  H   UNL     1       8.821  -5.272  -8.591  0.00  0.00    +0.000 HD
ATOM      9  H   UNL     1      10.436  -4.812  -8.754  0.00  0.00    +0.000 HD
ENDBRANCH   1   7
BRANCH   2  10
ATOM     10  N   UNL     1       8.754  -3.506  -5.591  0.00  0.00    +0.000 N 
ATOM     11  H   UNL     1       9.012  -2.936  -4.791  0.00  0.00    +0.000 HD
ATOM     12  H   UNL     1       7.751  -3.537  -5.735  0.00  0.00    +0.000 HD
ENDBRANCH   2  10
TORSDOF 2
ENDMDL
MODEL 6
REMARK VINA RESULT:      -3.6      1.435      2.511
REMARK  Name = 43806_Diaminocyclohexane.pdbqt.pdb
REMARK  2 active torsions:
REMARK  status: ('A' for Active; 'I' for Inactive)
REMARK    1  A    between atoms: C_1  and  N_7
REMARK    2  A    between atoms: C_2  and  N_10
REMARK                            x       y       z     vdW  Elec       q    Type
REMARK                         _______ _______ _______ _____ _____    ______ ____
ROOT
ATOM      1  C   UNL     1      10.767   1.866 -17.192  0.00  0.00    +0.000 A 
ATOM      2  C   UNL     1      10.893   1.216 -15.869  0.00  0.00    +0.000 A 
ATOM      3  C   UNL     1      10.921   0.994 -18.318  0.00  0.00    +0.000 A 
ATOM      4  C   UNL     1      11.119  -0.199 -15.905  0.00  0.00    +0.000 A 
ATOM      5  C   UNL     1      11.174  -0.519 -18.432  0.00  0.00    +0.000 A 
ATOM      6  C   UNL     1      11.283  -1.195 -17.063  0.00  0.00    +0.000 A 
ENDROOT
BRANCH   1   7
ATOM      7  N   UNL     1      10.439   3.234 -17.344  0.00  0.00    +0.000 N 
ATOM      8  H   UNL     1      11.203   3.796 -17.705  0.00  0.00    +0.000 HD
ATOM      9  H   UNL     1      10.000   3.655 -16.531  0.00  0.00    +0.000 HD
ENDBRANCH   1   7
BRANCH   2  10
ATOM     10  N   UNL     1      10.873   1.943 -14.656  0.00  0.00    +0.000 N 
ATOM     11  H   UNL     1      11.248   2.883 -14.739  0.00  0.00    +0.000 HD
ATOM     12  H   UNL     1      11.257   1.444 -13.860  0.00  0.00    +0.000 HD
ENDBRANCH   2  10
TORSDOF 2
ENDMDL
MODEL 7
REMARK VINA RESULT:      -3.6     19.408     19.813
REMARK  Name = 43806_Diaminocyclohexane.pdbqt.pdb
REMARK  2 active torsions:
REMARK  status: ('A' for Active; 'I' for Inactive)
REMARK    1  A    between atoms: C_1  and  N_7
REMARK    2  A    between atoms: C_2  and  N_10
REMARK                            x       y       z     vdW  Elec       q    Type
REMARK                         _______ _______ _______ _____ _____    ______ ____
ROOT
ATOM      1  C   UNL     1       4.119   1.972   1.430  0.00  0.00    +0.000 A 
ATOM      2  C   UNL     1       3.203   0.822   1.590  0.00  0.00    +0.000 A 
ATOM      3  C   UNL     1       3.530   3.146   0.859  0.00  0.00    +0.000 A 
ATOM      4  C   UNL     1       1.850   1.059   1.181  0.00  0.00    +0.000 A 
ATOM      5  C   UNL     1       2.102   3.468   0.390  0.00  0.00    +0.000 A 
ATOM      6  C   UNL     1       1.149   2.285   0.575  0.00  0.00    +0.000 A 
ENDROOT
BRANCH   1   7
ATOM      7  N   UNL     1       5.461   1.948   1.879  0.00  0.00    +0.000 N 
ATOM      8  H   UNL     1       5.602   2.436   2.758  0.00  0.00    +0.000 HD
ATOM      9  H   UNL     1       6.145   2.211   1.177  0.00  0.00    +0.000 HD
ENDBRANCH   1   7
BRANCH   2  10
ATOM     10  N   UNL     1       3.639  -0.447   2.038  0.00  0.00    +0.000 N 
ATOM     11  H   UNL     1       4.563  -0.700   1.702  0.00  0.00    +0.000 HD
ATOM     12  H   UNL     1       2.965  -1.194   1.911  0.00  0.00    +0.000 HD
ENDBRANCH   2  10
TORSDOF 2
ENDMDL
MODEL 8
REMARK VINA RESULT:      -3.5     22.660     23.715
REMARK  Name = 43806_Diaminocyclohexane.pdbqt.pdb
REMARK  2 active torsions:
REMARK  status: ('A' for Active; 'I' for Inactive)
REMARK    1  A    between atoms: C_1  and  N_7
REMARK    2  A    between atoms: C_2  and  N_10
REMARK                            x       y       z     vdW  Elec       q    Type
REMARK                         _______ _______ _______ _____ _____    ______ ____
ROOT
ATOM      1  C   UNL     1      -5.580  -0.267   0.688  0.00  0.00    +0.000 A 
ATOM      2  C   UNL     1      -5.043   1.105   0.553  0.00  0.00    +0.000 A 
ATOM      3  C   UNL     1      -4.604  -1.314   0.615  0.00  0.00    +0.000 A 
ATOM      4  C   UNL     1      -3.621   1.190   0.401  0.00  0.00    +0.000 A 
ATOM      5  C   UNL     1      -3.076  -1.298   0.445  0.00  0.00    +0.000 A 
ATOM      6  C   UNL     1      -2.519   0.122   0.326  0.00  0.00    +0.000 A 
ENDROOT
BRANCH   1   7
ATOM      7  N   UNL     1      -6.945  -0.532   0.951  0.00  0.00    +0.000 N 
ATOM      8  H   UNL     1      -7.211  -0.365   1.916  0.00  0.00    +0.000 HD
ATOM      9  H   UNL     1      -7.273  -1.430   0.609  0.00  0.00    +0.000 HD
ENDBRANCH   1   7
BRANCH   2  10
ATOM     10  N   UNL     1      -5.874   2.248   0.496  0.00  0.00    +0.000 N 
ATOM     11  H   UNL     1      -5.868   2.710  -0.408  0.00  0.00    +0.000 HD
ATOM     12  H   UNL     1      -5.747   2.900   1.263  0.00  0.00    +0.000 HD
ENDBRANCH   2  10
TORSDOF 2
ENDMDL
MODEL 9
REMARK VINA RESULT:      -3.4     21.947     22.230
REMARK  Name = 43806_Diaminocyclohexane.pdbqt.pdb
REMARK  2 active torsions:
REMARK  status: ('A' for Active; 'I' for Inactive)
REMARK    1  A    between atoms: C_1  and  N_7
REMARK    2  A    between atoms: C_2  and  N_10
REMARK                            x       y       z     vdW  Elec       q    Type
REMARK                         _______ _______ _______ _____ _____    ______ ____
ROOT
ATOM      1  C   UNL     1     -10.287  -2.449 -18.624  0.00  0.00    +0.000 A 
ATOM      2  C   UNL     1     -10.614  -1.611 -17.449  0.00  0.00    +0.000 A 
ATOM      3  C   UNL     1     -10.452  -1.808 -19.895  0.00  0.00    +0.000 A 
ATOM      4  C   UNL     1     -11.017  -0.269 -17.751  0.00  0.00    +0.000 A 
ATOM      5  C   UNL     1     -10.886  -0.388 -20.293  0.00  0.00    +0.000 A 
ATOM      6  C   UNL     1     -11.204   0.485 -19.077  0.00  0.00    +0.000 A 
ENDROOT
BRANCH   1   7
ATOM      7  N   UNL     1      -9.773  -3.762 -18.507  0.00  0.00    +0.000 N 
ATOM      8  H   UNL     1     -10.170  -4.285 -17.733  0.00  0.00    +0.000 HD
ATOM      9  H   UNL     1      -8.760  -3.821 -18.534  0.00  0.00    +0.000 HD
ENDBRANCH   1   7
BRANCH   2  10
ATOM     10  N   UNL     1     -10.610  -2.113 -16.127  0.00  0.00    +0.000 N 
ATOM     11  H   UNL     1      -9.877  -1.718 -15.545  0.00  0.00    +0.000 HD
ATOM     12  H   UNL     1     -10.652  -3.125 -16.060  0.00  0.00    +0.000 HD
ENDBRANCH   2  10
TORSDOF 2
ENDMDL
