MODEL 1
REMARK VINA RESULT:      -6.8      0.000      0.000
REMARK  Name = 44234954_SipholenolL.pdbqt.pdb
REMARK  5 active torsions:
REMARK  status: ('A' for Active; 'I' for Inactive)
REMARK    1  A    between atoms: C_3  and  C_20
REMARK    2  A    between atoms: C_4  and  O_16
REMARK    3  A    between atoms: C_13  and  O_18
REMARK    4  A    between atoms: C_21  and  C_25
REMARK    5  A    between atoms: C_26  and  O_36
REMARK                            x       y       z     vdW  Elec       q    Type
REMARK                         _______ _______ _______ _____ _____    ______ ____
ROOT
ATOM      1  O   UNL     1       0.734  -1.633 -20.628  0.00  0.00    +0.000 OA
ATOM      2  C   UNL     1       3.059  -0.458 -20.706  0.00  0.00    +0.000 C 
ATOM      3  C   UNL     1       4.300  -0.260 -21.579  0.00  0.00    +0.000 C 
ATOM      4  C   UNL     1       4.136   0.090 -23.047  0.00  0.00    +0.000 C 
ATOM      5  C   UNL     1       1.833  -1.215 -21.385  0.00  0.00    +0.000 C 
ATOM      6  C   UNL     1       3.346  -1.352 -19.573  0.00  0.00    +0.000 C 
ATOM      7  C   UNL     1       2.841  -0.391 -23.493  0.00  0.00    +0.000 C 
ATOM      8  C   UNL     1       1.698  -1.030 -22.776  0.00  0.00    +0.000 C 
ATOM      9  C   UNL     1       2.559   0.914 -20.186  0.00  0.00    +0.000 C 
ATOM     10  C   UNL     1       2.752  -2.512 -18.815  0.00  0.00    +0.000 C 
ATOM     11  C   UNL     1       0.651  -3.032 -20.175  0.00  0.00    +0.000 C 
ATOM     12  C   UNL     1       4.379   1.572 -23.314  0.00  0.00    +0.000 C 
ATOM     13  C   UNL     1       1.592  -3.308 -18.955  0.00  0.00    +0.000 C 
ATOM     14  C   UNL     1      -0.822  -3.241 -19.732  0.00  0.00    +0.000 C 
ATOM     15  C   UNL     1       1.023  -4.018 -21.326  0.00  0.00    +0.000 C 
ENDROOT
BRANCH   4  16
ATOM     16  O   UNL     1       5.133  -0.583 -23.788  0.00  0.00    +0.000 OA
ATOM     17  H   UNL     1       5.738  -0.856 -23.074  0.00  0.00    +0.000 HD
ENDBRANCH   4  16
BRANCH  13  18
ATOM     18  O   UNL     1       1.445  -4.432 -18.151  0.00  0.00    +0.000 OA
ATOM     19  H   UNL     1       1.966  -4.374 -17.331  0.00  0.00    +0.000 HD
ENDBRANCH  13  18
BRANCH   3  20
ATOM     20  C   UNL     1       5.619  -0.339 -21.012  0.00  0.00    +0.000 C 
ATOM     21  C   UNL     1       7.012  -0.409 -20.378  0.00  0.00    +0.000 C 
BRANCH  21  25
ATOM     22  C   UNL     1       8.879   0.774 -19.044  0.00  0.00    +0.000 A 
ATOM     23  C   UNL     1      10.279   0.668 -18.323  0.00  0.00    +0.000 A 
ATOM     24  C   UNL     1       8.069   2.135 -19.094  0.00  0.00    +0.000 C 
ATOM     25  C   UNL     1       8.290  -0.472 -19.740  0.00  0.00    +0.000 A 
ATOM     26  C   UNL     1      11.039   1.769 -17.549  0.00  0.00    +0.000 C 
ATOM     27  C   UNL     1       8.909   3.102 -18.382  0.00  0.00    +0.000 C 
ATOM     28  C   UNL     1      10.238   2.970 -17.688  0.00  0.00    +0.000 C 
ATOM     29  C   UNL     1      10.835  -0.633 -18.499  0.00  0.00    +0.000 A 
ATOM     30  C   UNL     1       9.005  -1.777 -19.802  0.00  0.00    +0.000 A 
ATOM     31  C   UNL     1       6.727   1.970 -18.340  0.00  0.00    +0.000 C 
ATOM     32  C   UNL     1       7.897   2.593 -20.558  0.00  0.00    +0.000 C 
ATOM     33  C   UNL     1      10.161  -1.763 -19.221  0.00  0.00    +0.000 A 
ATOM     34  C   UNL     1      11.279   1.365 -16.101  0.00  0.00    +0.000 C 
ATOM     35  C   UNL     1       8.451  -3.066 -20.336  0.00  0.00    +0.000 C 
BRANCH  26  36
ATOM     36  O   UNL     1      12.299   1.972 -18.135  0.00  0.00    +0.000 OA
ATOM     37  H   UNL     1      12.820   1.269 -17.703  0.00  0.00    +0.000 HD
ENDBRANCH  26  36
ENDBRANCH  21  25
ENDBRANCH   3  20
TORSDOF 5
ENDMDL
MODEL 2
REMARK VINA RESULT:      -6.7     17.449     21.487
REMARK  Name = 44234954_SipholenolL.pdbqt.pdb
REMARK  5 active torsions:
REMARK  status: ('A' for Active; 'I' for Inactive)
REMARK    1  A    between atoms: C_3  and  C_20
REMARK    2  A    between atoms: C_4  and  O_16
REMARK    3  A    between atoms: C_13  and  O_18
REMARK    4  A    between atoms: C_21  and  C_25
REMARK    5  A    between atoms: C_26  and  O_36
REMARK                            x       y       z     vdW  Elec       q    Type
REMARK                         _______ _______ _______ _____ _____    ______ ____
ROOT
ATOM      1  O   UNL     1       2.431 -19.891  -5.831  0.00  0.00    +0.000 OA
ATOM      2  C   UNL     1       3.438 -19.200  -8.133  0.00  0.00    +0.000 C 
ATOM      3  C   UNL     1       4.299 -18.139  -8.822  0.00  0.00    +0.000 C 
ATOM      4  C   UNL     1       5.603 -17.702  -8.182  0.00  0.00    +0.000 C 
ATOM      5  C   UNL     1       3.345 -19.110  -6.546  0.00  0.00    +0.000 C 
ATOM      6  C   UNL     1       2.022 -19.055  -8.504  0.00  0.00    +0.000 C 
ATOM      7  C   UNL     1       5.520 -17.943  -6.754  0.00  0.00    +0.000 C 
ATOM      8  C   UNL     1       4.484 -18.592  -5.897  0.00  0.00    +0.000 C 
ATOM      9  C   UNL     1       3.944 -20.616  -8.514  0.00  0.00    +0.000 C 
ATOM     10  C   UNL     1       0.642 -19.076  -7.897  0.00  0.00    +0.000 C 
ATOM     11  C   UNL     1       1.150 -19.304  -5.402  0.00  0.00    +0.000 C 
ATOM     12  C   UNL     1       6.815 -18.340  -8.855  0.00  0.00    +0.000 C 
ATOM     13  C   UNL     1       0.130 -19.199  -6.585  0.00  0.00    +0.000 C 
ATOM     14  C   UNL     1       0.582 -20.276  -4.332  0.00  0.00    +0.000 C 
ATOM     15  C   UNL     1       1.360 -17.882  -4.795  0.00  0.00    +0.000 C 
ENDROOT
BRANCH   4  16
ATOM     16  O   UNL     1       5.765 -16.313  -8.383  0.00  0.00    +0.000 OA
ATOM     17  H   UNL     1       6.210 -16.059  -7.553  0.00  0.00    +0.000 HD
ENDBRANCH   4  16
BRANCH  13  18
ATOM     18  O   UNL     1      -1.229 -19.001  -6.369  0.00  0.00    +0.000 OA
ATOM     19  H   UNL     1      -1.589 -19.600  -5.692  0.00  0.00    +0.000 HD
ENDBRANCH  13  18
BRANCH   3  20
ATOM     20  C   UNL     1       3.918 -17.598 -10.099  0.00  0.00    +0.000 C 
ATOM     21  C   UNL     1       3.484 -17.041 -11.458  0.00  0.00    +0.000 C 
BRANCH  21  25
ATOM     22  C   UNL     1       2.554 -17.504 -13.821  0.00  0.00    +0.000 A 
ATOM     23  C   UNL     1       2.032 -16.919 -15.191  0.00  0.00    +0.000 A 
ATOM     24  C   UNL     1       2.623 -19.065 -13.555  0.00  0.00    +0.000 C 
ATOM     25  C   UNL     1       3.031 -16.537 -12.717  0.00  0.00    +0.000 A 
ATOM     26  C   UNL     1       1.487 -17.692 -16.413  0.00  0.00    +0.000 C 
ATOM     27  C   UNL     1       2.138 -19.682 -14.793  0.00  0.00    +0.000 C 
ATOM     28  C   UNL     1       1.630 -19.097 -16.084  0.00  0.00    +0.000 C 
ATOM     29  C   UNL     1       2.154 -15.498 -15.207  0.00  0.00    +0.000 A 
ATOM     30  C   UNL     1       3.064 -15.059 -12.896  0.00  0.00    +0.000 A 
ATOM     31  C   UNL     1       1.674 -19.438 -12.391  0.00  0.00    +0.000 C 
ATOM     32  C   UNL     1       4.087 -19.494 -13.315  0.00  0.00    +0.000 C 
ATOM     33  C   UNL     1       2.657 -14.669 -14.062  0.00  0.00    +0.000 A 
ATOM     34  C   UNL     1       0.055 -17.288 -16.733  0.00  0.00    +0.000 C 
ATOM     35  C   UNL     1       3.382 -14.044 -11.837  0.00  0.00    +0.000 C 
BRANCH  26  36
ATOM     36  O   UNL     1       2.264 -17.391 -17.544  0.00  0.00    +0.000 OA
ATOM     37  H   UNL     1       1.633 -17.591 -18.261  0.00  0.00    +0.000 HD
ENDBRANCH  26  36
ENDBRANCH  21  25
ENDBRANCH   3  20
TORSDOF 5
ENDMDL
MODEL 3
REMARK VINA RESULT:      -6.5     20.177     22.771
REMARK  Name = 44234954_SipholenolL.pdbqt.pdb
REMARK  5 active torsions:
REMARK  status: ('A' for Active; 'I' for Inactive)
REMARK    1  A    between atoms: C_3  and  C_20
REMARK    2  A    between atoms: C_4  and  O_16
REMARK    3  A    between atoms: C_13  and  O_18
REMARK    4  A    between atoms: C_21  and  C_25
REMARK    5  A    between atoms: C_26  and  O_36
REMARK                            x       y       z     vdW  Elec       q    Type
REMARK                         _______ _______ _______ _____ _____    ______ ____
ROOT
ATOM      1  O   UNL     1     -12.662  19.501 -15.669  0.00  0.00    +0.000 OA
ATOM      2  C   UNL     1     -10.445  18.598 -16.698  0.00  0.00    +0.000 C 
ATOM      3  C   UNL     1      -9.835  17.402 -17.432  0.00  0.00    +0.000 C 
ATOM      4  C   UNL     1     -10.566  16.800 -18.618  0.00  0.00    +0.000 C 
ATOM      5  C   UNL     1     -12.024  18.574 -16.499  0.00  0.00    +0.000 C 
ATOM      6  C   UNL     1      -9.988  18.650 -15.300  0.00  0.00    +0.000 C 
ATOM      7  C   UNL     1     -11.980  17.096 -18.487  0.00  0.00    +0.000 C 
ATOM      8  C   UNL     1     -12.755  17.916 -17.509  0.00  0.00    +0.000 C 
ATOM      9  C   UNL     1     -10.064  19.912 -17.428  0.00  0.00    +0.000 C 
ATOM     10  C   UNL     1     -10.507  18.890 -13.905  0.00  0.00    +0.000 C 
ATOM     11  C   UNL     1     -13.023  19.120 -14.293  0.00  0.00    +0.000 C 
ATOM     12  C   UNL     1      -9.955  17.234 -19.948  0.00  0.00    +0.000 C 
ATOM     13  C   UNL     1     -11.781  19.128 -13.340  0.00  0.00    +0.000 C 
ATOM     14  C   UNL     1     -14.032  20.198 -13.813  0.00  0.00    +0.000 C 
ATOM     15  C   UNL     1     -13.674  17.703 -14.255  0.00  0.00    +0.000 C 
ENDROOT
BRANCH   4  16
ATOM     16  O   UNL     1     -10.406  15.397 -18.585  0.00  0.00    +0.000 OA
ATOM     17  H   UNL     1     -10.904  15.176 -17.776  0.00  0.00    +0.000 HD
ENDBRANCH   4  16
BRANCH  13  18
ATOM     18  O   UNL     1     -11.915  19.136 -11.957  0.00  0.00    +0.000 OA
ATOM     19  H   UNL     1     -12.544  19.812 -11.648  0.00  0.00    +0.000 HD
ENDBRANCH  13  18
BRANCH   3  20
ATOM     20  C   UNL     1      -8.549  16.882 -17.052  0.00  0.00    +0.000 C 
ATOM     21  C   UNL     1      -7.184  16.301 -16.671  0.00  0.00    +0.000 C 
BRANCH  21  25
ATOM     22  C   UNL     1      -4.881  15.458 -17.477  0.00  0.00    +0.000 A 
ATOM     23  C   UNL     1      -3.471  14.858 -17.101  0.00  0.00    +0.000 A 
ATOM     24  C   UNL     1      -5.282  15.766 -18.979  0.00  0.00    +0.000 C 
ATOM     25  C   UNL     1      -5.910  15.733 -16.359  0.00  0.00    +0.000 A 
ATOM     26  C   UNL     1      -2.291  14.531 -18.045  0.00  0.00    +0.000 C 
ATOM     27  C   UNL     1      -4.114  15.367 -19.772  0.00  0.00    +0.000 C 
ATOM     28  C   UNL     1      -2.771  14.809 -19.384  0.00  0.00    +0.000 C 
ATOM     29  C   UNL     1      -3.397  14.592 -15.702  0.00  0.00    +0.000 A 
ATOM     30  C   UNL     1      -5.650  15.418 -14.927  0.00  0.00    +0.000 A 
ATOM     31  C   UNL     1      -5.523  17.285 -19.153  0.00  0.00    +0.000 C 
ATOM     32  C   UNL     1      -6.493  14.902 -19.390  0.00  0.00    +0.000 C 
ATOM     33  C   UNL     1      -4.487  14.892 -14.714  0.00  0.00    +0.000 A 
ATOM     34  C   UNL     1      -1.045  15.322 -17.671  0.00  0.00    +0.000 C 
ATOM     35  C   UNL     1      -6.534  15.774 -13.767  0.00  0.00    +0.000 C 
BRANCH  26  36
ATOM     36  O   UNL     1      -1.964  13.169 -17.934  0.00  0.00    +0.000 OA
ATOM     37  H   UNL     1      -2.678  12.854 -17.349  0.00  0.00    +0.000 HD
ENDBRANCH  26  36
ENDBRANCH  21  25
ENDBRANCH   3  20
TORSDOF 5
ENDMDL
MODEL 4
REMARK VINA RESULT:      -6.4     16.196     20.098
REMARK  Name = 44234954_SipholenolL.pdbqt.pdb
REMARK  5 active torsions:
REMARK  status: ('A' for Active; 'I' for Inactive)
REMARK    1  A    between atoms: C_3  and  C_20
REMARK    2  A    between atoms: C_4  and  O_16
REMARK    3  A    between atoms: C_13  and  O_18
REMARK    4  A    between atoms: C_21  and  C_25
REMARK    5  A    between atoms: C_26  and  O_36
REMARK                            x       y       z     vdW  Elec       q    Type
REMARK                         _______ _______ _______ _____ _____    ______ ____
ROOT
ATOM      1  O   UNL     1      12.538 -19.359 -10.897  0.00  0.00    +0.000 OA
ATOM      2  C   UNL     1      10.476 -18.653 -12.327  0.00  0.00    +0.000 C 
ATOM      3  C   UNL     1       9.969 -17.583 -13.297  0.00  0.00    +0.000 C 
ATOM      4  C   UNL     1      10.851 -17.139 -14.449  0.00  0.00    +0.000 C 
ATOM      5  C   UNL     1      12.015 -18.570 -11.927  0.00  0.00    +0.000 C 
ATOM      6  C   UNL     1       9.837 -18.517 -11.009  0.00  0.00    +0.000 C 
ATOM      7  C   UNL     1      12.236 -17.386 -14.092  0.00  0.00    +0.000 C 
ATOM      8  C   UNL     1      12.874 -18.046 -12.914  0.00  0.00    +0.000 C 
ATOM      9  C   UNL     1      10.198 -20.063 -12.909  0.00  0.00    +0.000 C 
ATOM     10  C   UNL     1      10.165 -18.550  -9.537  0.00  0.00    +0.000 C 
ATOM     11  C   UNL     1      12.711 -18.783  -9.553  0.00  0.00    +0.000 C 
ATOM     12  C   UNL     1      10.424 -17.766 -15.773  0.00  0.00    +0.000 C 
ATOM     13  C   UNL     1      11.353 -18.682  -8.781  0.00  0.00    +0.000 C 
ATOM     14  C   UNL     1      13.648 -19.763  -8.797  0.00  0.00    +0.000 C 
ATOM     15  C   UNL     1      13.350 -17.362  -9.630  0.00  0.00    +0.000 C 
ENDROOT
BRANCH   4  16
ATOM     16  O   UNL     1      10.688 -15.748 -14.636  0.00  0.00    +0.000 OA
ATOM     17  H   UNL     1      10.982 -15.412 -13.768  0.00  0.00    +0.000 HD
ENDBRANCH   4  16
BRANCH  13  18
ATOM     18  O   UNL     1      11.300 -18.494  -7.405  0.00  0.00    +0.000 OA
ATOM     19  H   UNL     1      11.932 -19.062  -6.929  0.00  0.00    +0.000 HD
ENDBRANCH  13  18
BRANCH   3  20
ATOM     20  C   UNL     1       8.644 -17.040 -13.167  0.00  0.00    +0.000 C 
ATOM     21  C   UNL     1       7.220 -16.489 -13.046  0.00  0.00    +0.000 C 
BRANCH  21  25
ATOM     22  C   UNL     1       4.932 -16.069 -14.166  0.00  0.00    +0.000 A 
ATOM     23  C   UNL     1       3.441 -15.573 -14.015  0.00  0.00    +0.000 A 
ATOM     24  C   UNL     1       5.499 -16.594 -15.549  0.00  0.00    +0.000 C 
ATOM     25  C   UNL     1       5.873 -16.022 -12.942  0.00  0.00    +0.000 A 
ATOM     26  C   UNL     1       2.329 -15.555 -15.089  0.00  0.00    +0.000 C 
ATOM     27  C   UNL     1       4.379 -16.476 -16.487  0.00  0.00    +0.000 C 
ATOM     28  C   UNL     1       2.958 -16.012 -16.312  0.00  0.00    +0.000 C 
ATOM     29  C   UNL     1       3.211 -15.072 -12.700  0.00  0.00    +0.000 A 
ATOM     30  C   UNL     1       5.451 -15.487 -11.618  0.00  0.00    +0.000 A 
ATOM     31  C   UNL     1       5.902 -18.082 -15.417  0.00  0.00    +0.000 C 
ATOM     32  C   UNL     1       6.655 -15.686 -16.024  0.00  0.00    +0.000 C 
ATOM     33  C   UNL     1       4.227 -15.066 -11.596  0.00  0.00    +0.000 A 
ATOM     34  C   UNL     1       1.136 -16.401 -14.667  0.00  0.00    +0.000 C 
ATOM     35  C   UNL     1       6.252 -15.529 -10.350  0.00  0.00    +0.000 C 
BRANCH  26  36
ATOM     36  O   UNL     1       1.863 -14.241 -15.260  0.00  0.00    +0.000 OA
ATOM     37  H   UNL     1       2.448 -13.929 -15.975  0.00  0.00    +0.000 HD
ENDBRANCH  26  36
ENDBRANCH  21  25
ENDBRANCH   3  20
TORSDOF 5
ENDMDL
MODEL 5
REMARK VINA RESULT:      -6.2     13.901     18.738
REMARK  Name = 44234954_SipholenolL.pdbqt.pdb
REMARK  5 active torsions:
REMARK  status: ('A' for Active; 'I' for Inactive)
REMARK    1  A    between atoms: C_3  and  C_20
REMARK    2  A    between atoms: C_4  and  O_16
REMARK    3  A    between atoms: C_13  and  O_18
REMARK    4  A    between atoms: C_21  and  C_25
REMARK    5  A    between atoms: C_26  and  O_36
REMARK                            x       y       z     vdW  Elec       q    Type
REMARK                         _______ _______ _______ _____ _____    ______ ____
ROOT
ATOM      1  O   UNL     1      17.382  -5.223  -9.408  0.00  0.00    +0.000 OA
ATOM      2  C   UNL     1      15.221  -6.373  -8.514  0.00  0.00    +0.000 C 
ATOM      3  C   UNL     1      13.697  -6.244  -8.466  0.00  0.00    +0.000 C 
ATOM      4  C   UNL     1      12.933  -5.919  -9.736  0.00  0.00    +0.000 C 
ATOM      5  C   UNL     1      15.989  -5.334  -9.444  0.00  0.00    +0.000 C 
ATOM      6  C   UNL     1      15.820  -6.070  -7.205  0.00  0.00    +0.000 C 
ATOM      7  C   UNL     1      13.825  -5.225 -10.646  0.00  0.00    +0.000 C 
ATOM      8  C   UNL     1      15.280  -4.896 -10.581  0.00  0.00    +0.000 C 
ATOM      9  C   UNL     1      15.613  -7.807  -8.956  0.00  0.00    +0.000 C 
ATOM     10  C   UNL     1      16.972  -5.317  -6.587  0.00  0.00    +0.000 C 
ATOM     11  C   UNL     1      18.007  -4.152  -8.613  0.00  0.00    +0.000 C 
ATOM     12  C   UNL     1      12.265  -7.154 -10.334  0.00  0.00    +0.000 C 
ATOM     13  C   UNL     1      17.996  -4.478  -7.082  0.00  0.00    +0.000 C 
ATOM     14  C   UNL     1      19.479  -4.075  -9.101  0.00  0.00    +0.000 C 
ATOM     15  C   UNL     1      17.282  -2.789  -8.840  0.00  0.00    +0.000 C 
ENDROOT
BRANCH   4  16
ATOM     16  O   UNL     1      11.868  -5.048  -9.415  0.00  0.00    +0.000 OA
ATOM     17  H   UNL     1      11.734  -5.263  -8.473  0.00  0.00    +0.000 HD
ENDBRANCH   4  16
BRANCH  13  18
ATOM     18  O   UNL     1      18.809  -3.802  -6.180  0.00  0.00    +0.000 OA
ATOM     19  H   UNL     1      18.589  -2.855  -6.119  0.00  0.00    +0.000 HD
ENDBRANCH  13  18
BRANCH   3  20
ATOM     20  C   UNL     1      12.976  -6.487  -7.246  0.00  0.00    +0.000 C 
ATOM     21  C   UNL     1      12.186  -6.718  -5.954  0.00  0.00    +0.000 C 
BRANCH  21  25
ATOM     22  C   UNL     1      11.865  -7.912  -3.688  0.00  0.00    +0.000 A 
ATOM     23  C   UNL     1      11.006  -8.079  -2.375  0.00  0.00    +0.000 A 
ATOM     24  C   UNL     1      13.174  -8.770  -3.941  0.00  0.00    +0.000 C 
ATOM     25  C   UNL     1      11.411  -6.906  -4.767  0.00  0.00    +0.000 A 
ATOM     26  C   UNL     1      11.283  -8.998  -1.163  0.00  0.00    +0.000 C 
ATOM     27  C   UNL     1      13.297  -9.631  -2.761  0.00  0.00    +0.000 C 
ATOM     28  C   UNL     1      12.468  -9.759  -1.511  0.00  0.00    +0.000 C 
ATOM     29  C   UNL     1       9.838  -7.262  -2.434  0.00  0.00    +0.000 A 
ATOM     30  C   UNL     1      10.163  -6.102  -4.649  0.00  0.00    +0.000 A 
ATOM     31  C   UNL     1      14.403  -7.833  -4.021  0.00  0.00    +0.000 C 
ATOM     32  C   UNL     1      12.992  -9.651  -5.195  0.00  0.00    +0.000 C 
ATOM     33  C   UNL     1       9.500  -6.331  -3.561  0.00  0.00    +0.000 A 
ATOM     34  C   UNL     1      11.435  -8.195   0.121  0.00  0.00    +0.000 C 
ATOM     35  C   UNL     1       9.720  -5.011  -5.580  0.00  0.00    +0.000 C 
BRANCH  26  36
ATOM     36  O   UNL     1      10.199  -9.872  -0.978  0.00  0.00    +0.000 OA
ATOM     37  H   UNL     1      10.626 -10.595  -0.484  0.00  0.00    +0.000 HD
ENDBRANCH  26  36
ENDBRANCH  21  25
ENDBRANCH   3  20
TORSDOF 5
ENDMDL
MODEL 6
REMARK VINA RESULT:      -6.1     17.664     21.107
REMARK  Name = 44234954_SipholenolL.pdbqt.pdb
REMARK  5 active torsions:
REMARK  status: ('A' for Active; 'I' for Inactive)
REMARK    1  A    between atoms: C_3  and  C_20
REMARK    2  A    between atoms: C_4  and  O_16
REMARK    3  A    between atoms: C_13  and  O_18
REMARK    4  A    between atoms: C_21  and  C_25
REMARK    5  A    between atoms: C_26  and  O_36
REMARK                            x       y       z     vdW  Elec       q    Type
REMARK                         _______ _______ _______ _____ _____    ______ ____
ROOT
ATOM      1  O   UNL     1       1.711 -19.995  -5.604  0.00  0.00    +0.000 OA
ATOM      2  C   UNL     1       3.159 -19.543  -7.724  0.00  0.00    +0.000 C 
ATOM      3  C   UNL     1       4.175 -18.571  -8.327  0.00  0.00    +0.000 C 
ATOM      4  C   UNL     1       5.353 -18.106  -7.490  0.00  0.00    +0.000 C 
ATOM      5  C   UNL     1       2.774 -19.305  -6.198  0.00  0.00    +0.000 C 
ATOM      6  C   UNL     1       1.844 -19.401  -8.369  0.00  0.00    +0.000 C 
ATOM      7  C   UNL     1       4.994 -18.213  -6.088  0.00  0.00    +0.000 C 
ATOM      8  C   UNL     1       3.791 -18.756  -5.391  0.00  0.00    +0.000 C 
ATOM      9  C   UNL     1       3.670 -20.999  -7.878  0.00  0.00    +0.000 C 
ATOM     10  C   UNL     1       0.375 -19.333  -8.035  0.00  0.00    +0.000 C 
ATOM     11  C   UNL     1       0.397 -19.341  -5.479  0.00  0.00    +0.000 C 
ATOM     12  C   UNL     1       6.643 -18.832  -7.863  0.00  0.00    +0.000 C 
ATOM     13  C   UNL     1      -0.378 -19.323  -6.839  0.00  0.00    +0.000 C 
ATOM     14  C   UNL     1      -0.399 -20.197  -4.457  0.00  0.00    +0.000 C 
ATOM     15  C   UNL     1       0.547 -17.874  -4.969  0.00  0.00    +0.000 C 
ENDROOT
BRANCH   4  16
ATOM     16  O   UNL     1       5.605 -16.746  -7.776  0.00  0.00    +0.000 OA
ATOM     17  H   UNL     1       5.897 -16.427  -6.902  0.00  0.00    +0.000 HD
ENDBRANCH   4  16
BRANCH  13  18
ATOM     18  O   UNL     1      -1.744 -19.074  -6.904  0.00  0.00    +0.000 OA
ATOM     19  H   UNL     1      -2.267 -19.891  -6.992  0.00  0.00    +0.000 HD
ENDBRANCH  13  18
BRANCH   3  20
ATOM     20  C   UNL     1       4.063 -18.141  -9.694  0.00  0.00    +0.000 C 
ATOM     21  C   UNL     1       3.964 -17.710 -11.161  0.00  0.00    +0.000 C 
BRANCH  21  25
ATOM     22  C   UNL     1       5.146 -16.885 -13.303  0.00  0.00    +0.000 A 
ATOM     23  C   UNL     1       5.037 -16.527 -14.835  0.00  0.00    +0.000 A 
ATOM     24  C   UNL     1       6.513 -16.755 -12.511  0.00  0.00    +0.000 C 
ATOM     25  C   UNL     1       3.886 -17.354 -12.543  0.00  0.00    +0.000 A 
ATOM     26  C   UNL     1       6.162 -16.066 -15.790  0.00  0.00    +0.000 C 
ATOM     27  C   UNL     1       7.477 -16.264 -13.501  0.00  0.00    +0.000 C 
ATOM     28  C   UNL     1       7.349 -15.943 -14.965  0.00  0.00    +0.000 C 
ATOM     29  C   UNL     1       3.687 -16.643 -15.282  0.00  0.00    +0.000 A 
ATOM     30  C   UNL     1       2.544 -17.447 -13.183  0.00  0.00    +0.000 A 
ATOM     31  C   UNL     1       6.960 -18.150 -12.010  0.00  0.00    +0.000 C 
ATOM     32  C   UNL     1       6.371 -15.714 -11.381  0.00  0.00    +0.000 C 
ATOM     33  C   UNL     1       2.539 -17.096 -14.429  0.00  0.00    +0.000 A 
ATOM     34  C   UNL     1       6.332 -17.031 -16.955  0.00  0.00    +0.000 C 
ATOM     35  C   UNL     1       1.303 -18.017 -12.561  0.00  0.00    +0.000 C 
BRANCH  26  36
ATOM     36  O   UNL     1       5.834 -14.814 -16.334  0.00  0.00    +0.000 OA
ATOM     37  H   UNL     1       6.321 -14.845 -17.178  0.00  0.00    +0.000 HD
ENDBRANCH  26  36
ENDBRANCH  21  25
ENDBRANCH   3  20
TORSDOF 5
ENDMDL
MODEL 7
REMARK VINA RESULT:      -6.0     18.701     22.873
REMARK  Name = 44234954_SipholenolL.pdbqt.pdb
REMARK  5 active torsions:
REMARK  status: ('A' for Active; 'I' for Inactive)
REMARK    1  A    between atoms: C_3  and  C_20
REMARK    2  A    between atoms: C_4  and  O_16
REMARK    3  A    between atoms: C_13  and  O_18
REMARK    4  A    between atoms: C_21  and  C_25
REMARK    5  A    between atoms: C_26  and  O_36
REMARK                            x       y       z     vdW  Elec       q    Type
REMARK                         _______ _______ _______ _____ _____    ______ ____
ROOT
ATOM      1  O   UNL     1       4.013 -19.420  -4.075  0.00  0.00    +0.000 OA
ATOM      2  C   UNL     1       4.067 -19.482  -6.680  0.00  0.00    +0.000 C 
ATOM      3  C   UNL     1       4.800 -18.923  -7.902  0.00  0.00    +0.000 C 
ATOM      4  C   UNL     1       6.318 -18.915  -7.925  0.00  0.00    +0.000 C 
ATOM      5  C   UNL     1       4.702 -19.143  -5.260  0.00  0.00    +0.000 C 
ATOM      6  C   UNL     1       2.733 -18.877  -6.541  0.00  0.00    +0.000 C 
ATOM      7  C   UNL     1       6.800 -18.905  -6.556  0.00  0.00    +0.000 C 
ATOM      8  C   UNL     1       6.104 -18.997  -5.239  0.00  0.00    +0.000 C 
ATOM      9  C   UNL     1       3.941 -21.023  -6.803  0.00  0.00    +0.000 C 
ATOM     10  C   UNL     1       1.810 -18.300  -5.498  0.00  0.00    +0.000 C 
ATOM     11  C   UNL     1       3.266 -18.347  -3.398  0.00  0.00    +0.000 C 
ATOM     12  C   UNL     1       6.885 -20.044  -8.780  0.00  0.00    +0.000 C 
ATOM     13  C   UNL     1       1.907 -18.040  -4.112  0.00  0.00    +0.000 C 
ATOM     14  C   UNL     1       2.974 -18.880  -1.969  0.00  0.00    +0.000 C 
ATOM     15  C   UNL     1       4.106 -17.034  -3.333  0.00  0.00    +0.000 C 
ENDROOT
BRANCH   4  16
ATOM     16  O   UNL     1       6.756 -17.727  -8.553  0.00  0.00    +0.000 OA
ATOM     17  H   UNL     1       7.523 -17.499  -7.995  0.00  0.00    +0.000 HD
ENDBRANCH   4  16
BRANCH  13  18
ATOM     18  O   UNL     1       0.893 -17.324  -3.487  0.00  0.00    +0.000 OA
ATOM     19  H   UNL     1       1.171 -16.425  -3.239  0.00  0.00    +0.000 HD
ENDBRANCH  13  18
BRANCH   3  20
ATOM     20  C   UNL     1       4.071 -18.465  -9.053  0.00  0.00    +0.000 C 
ATOM     21  C   UNL     1       3.271 -18.003 -10.275  0.00  0.00    +0.000 C 
BRANCH  21  25
ATOM     22  C   UNL     1       1.315 -18.479 -11.891  0.00  0.00    +0.000 A 
ATOM     23  C   UNL     1       0.446 -17.995 -13.116  0.00  0.00    +0.000 A 
ATOM     24  C   UNL     1       1.035 -19.859 -11.164  0.00  0.00    +0.000 C 
ATOM     25  C   UNL     1       2.485 -17.599 -11.398  0.00  0.00    +0.000 A 
ATOM     26  C   UNL     1      -0.776 -18.695 -13.755  0.00  0.00    +0.000 C 
ATOM     27  C   UNL     1      -0.098 -20.445 -11.888  0.00  0.00    +0.000 C 
ATOM     28  C   UNL     1      -0.920 -19.953 -13.048  0.00  0.00    +0.000 C 
ATOM     29  C   UNL     1       0.958 -16.772 -13.641  0.00  0.00    +0.000 A 
ATOM     30  C   UNL     1       2.866 -16.319 -12.056  0.00  0.00    +0.000 A 
ATOM     31  C   UNL     1       0.624 -19.599  -9.695  0.00  0.00    +0.000 C 
ATOM     32  C   UNL     1       2.260 -20.787 -11.303  0.00  0.00    +0.000 C 
ATOM     33  C   UNL     1       2.127 -16.019 -13.076  0.00  0.00    +0.000 A 
ATOM     34  C   UNL     1      -2.017 -17.816 -13.688  0.00  0.00    +0.000 C 
ATOM     35  C   UNL     1       3.894 -15.342 -11.565  0.00  0.00    +0.000 C 
BRANCH  26  36
ATOM     36  O   UNL     1      -0.518 -18.943 -15.113  0.00  0.00    +0.000 OA
ATOM     37  H   UNL     1       0.156 -18.265 -15.301  0.00  0.00    +0.000 HD
ENDBRANCH  26  36
ENDBRANCH  21  25
ENDBRANCH   3  20
TORSDOF 5
ENDMDL
MODEL 8
REMARK VINA RESULT:      -5.8     18.630     22.366
REMARK  Name = 44234954_SipholenolL.pdbqt.pdb
REMARK  5 active torsions:
REMARK  status: ('A' for Active; 'I' for Inactive)
REMARK    1  A    between atoms: C_3  and  C_20
REMARK    2  A    between atoms: C_4  and  O_16
REMARK    3  A    between atoms: C_13  and  O_18
REMARK    4  A    between atoms: C_21  and  C_25
REMARK    5  A    between atoms: C_26  and  O_36
REMARK                            x       y       z     vdW  Elec       q    Type
REMARK                         _______ _______ _______ _____ _____    ______ ____
ROOT
ATOM      1  O   UNL     1       1.184 -20.383  -4.578  0.00  0.00    +0.000 OA
ATOM      2  C   UNL     1       2.791 -20.058  -6.604  0.00  0.00    +0.000 C 
ATOM      3  C   UNL     1       4.149 -19.479  -7.007  0.00  0.00    +0.000 C 
ATOM      4  C   UNL     1       5.371 -19.773  -6.156  0.00  0.00    +0.000 C 
ATOM      5  C   UNL     1       2.465 -20.073  -5.046  0.00  0.00    +0.000 C 
ATOM      6  C   UNL     1       1.690 -19.226  -7.112  0.00  0.00    +0.000 C 
ATOM      7  C   UNL     1       4.931 -20.068  -4.805  0.00  0.00    +0.000 C 
ATOM      8  C   UNL     1       3.578 -20.217  -4.192  0.00  0.00    +0.000 C 
ATOM      9  C   UNL     1       2.656 -21.505  -7.145  0.00  0.00    +0.000 C 
ATOM     10  C   UNL     1       0.368 -18.640  -6.683  0.00  0.00    +0.000 C 
ATOM     11  C   UNL     1       0.258 -19.297  -4.215  0.00  0.00    +0.000 C 
ATOM     12  C   UNL     1       6.256 -20.849  -6.775  0.00  0.00    +0.000 C 
ATOM     13  C   UNL     1      -0.371 -18.618  -5.477  0.00  0.00    +0.000 C 
ATOM     14  C   UNL     1      -0.872 -19.971  -3.390  0.00  0.00    +0.000 C 
ATOM     15  C   UNL     1       0.980 -18.204  -3.366  0.00  0.00    +0.000 C 
ENDROOT
BRANCH   4  16
ATOM     16  O   UNL     1       6.181 -18.616  -6.110  0.00  0.00    +0.000 OA
ATOM     17  H   UNL     1       6.854 -18.891  -5.459  0.00  0.00    +0.000 HD
ENDBRANCH   4  16
BRANCH  13  18
ATOM     18  O   UNL     1      -1.503 -17.817  -5.395  0.00  0.00    +0.000 OA
ATOM     19  H   UNL     1      -1.518 -17.123  -6.078  0.00  0.00    +0.000 HD
ENDBRANCH  13  18
BRANCH   3  20
ATOM     20  C   UNL     1       4.294 -18.714  -8.216  0.00  0.00    +0.000 C 
ATOM     21  C   UNL     1       4.415 -17.906  -9.512  0.00  0.00    +0.000 C 
BRANCH  21  25
ATOM     22  C   UNL     1       3.455 -17.397 -11.854  0.00  0.00    +0.000 A 
ATOM     23  C   UNL     1       3.529 -16.527 -13.168  0.00  0.00    +0.000 A 
ATOM     24  C   UNL     1       2.372 -18.539 -11.670  0.00  0.00    +0.000 C 
ATOM     25  C   UNL     1       4.477 -17.149 -10.723  0.00  0.00    +0.000 A 
ATOM     26  C   UNL     1       2.603 -16.585 -14.404  0.00  0.00    +0.000 C 
ATOM     27  C   UNL     1       1.599 -18.532 -12.917  0.00  0.00    +0.000 C 
ATOM     28  C   UNL     1       1.682 -17.677 -14.153  0.00  0.00    +0.000 C 
ATOM     29  C   UNL     1       4.642 -15.637 -13.117  0.00  0.00    +0.000 A 
ATOM     30  C   UNL     1       5.570 -16.143 -10.827  0.00  0.00    +0.000 A 
ATOM     31  C   UNL     1       1.438 -18.187 -10.487  0.00  0.00    +0.000 C 
ATOM     32  C   UNL     1       3.069 -19.908 -11.515  0.00  0.00    +0.000 C 
ATOM     33  C   UNL     1       5.581 -15.505 -11.954  0.00  0.00    +0.000 A 
ATOM     34  C   UNL     1       1.909 -15.251 -14.642  0.00  0.00    +0.000 C 
ATOM     35  C   UNL     1       6.516 -15.745  -9.732  0.00  0.00    +0.000 C 
BRANCH  26  36
ATOM     36  O   UNL     1       3.365 -16.865 -15.550  0.00  0.00    +0.000 OA
ATOM     37  H   UNL     1       3.546 -17.814 -15.426  0.00  0.00    +0.000 HD
ENDBRANCH  26  36
ENDBRANCH  21  25
ENDBRANCH   3  20
TORSDOF 5
ENDMDL
MODEL 9
REMARK VINA RESULT:      -5.7     13.769     16.362
REMARK  Name = 44234954_SipholenolL.pdbqt.pdb
REMARK  5 active torsions:
REMARK  status: ('A' for Active; 'I' for Inactive)
REMARK    1  A    between atoms: C_3  and  C_20
REMARK    2  A    between atoms: C_4  and  O_16
REMARK    3  A    between atoms: C_13  and  O_18
REMARK    4  A    between atoms: C_21  and  C_25
REMARK    5  A    between atoms: C_26  and  O_36
REMARK                            x       y       z     vdW  Elec       q    Type
REMARK                         _______ _______ _______ _____ _____    ______ ____
ROOT
ATOM      1  O   UNL     1      12.242  12.693 -26.738  0.00  0.00    +0.000 OA
ATOM      2  C   UNL     1      13.237  13.651 -24.528  0.00  0.00    +0.000 C 
ATOM      3  C   UNL     1      14.518  14.208 -23.904  0.00  0.00    +0.000 C 
ATOM      4  C   UNL     1      15.324  15.252 -24.656  0.00  0.00    +0.000 C 
ATOM      5  C   UNL     1      13.273  13.388 -26.098  0.00  0.00    +0.000 C 
ATOM      6  C   UNL     1      12.948  12.299 -24.025  0.00  0.00    +0.000 C 
ATOM      7  C   UNL     1      15.050  15.113 -26.074  0.00  0.00    +0.000 C 
ATOM      8  C   UNL     1      14.105  14.249 -26.841  0.00  0.00    +0.000 C 
ATOM      9  C   UNL     1      12.048  14.598 -24.219  0.00  0.00    +0.000 C 
ATOM     10  C   UNL     1      12.500  10.941 -24.503  0.00  0.00    +0.000 C 
ATOM     11  C   UNL     1      12.405  11.260 -27.037  0.00  0.00    +0.000 C 
ATOM     12  C   UNL     1      15.094  16.657 -24.108  0.00  0.00    +0.000 C 
ATOM     13  C   UNL     1      12.209  10.371 -25.763  0.00  0.00    +0.000 C 
ATOM     14  C   UNL     1      11.293  10.919 -28.065  0.00  0.00    +0.000 C 
ATOM     15  C   UNL     1      13.816  10.969 -27.638  0.00  0.00    +0.000 C 
ENDROOT
BRANCH   4  16
ATOM     16  O   UNL     1      16.699  15.001 -24.448  0.00  0.00    +0.000 OA
ATOM     17  H   UNL     1      16.670  14.522 -23.598  0.00  0.00    +0.000 HD
ENDBRANCH   4  16
BRANCH  13  18
ATOM     18  O   UNL     1      11.981   9.003 -25.849  0.00  0.00    +0.000 OA
ATOM     19  H   UNL     1      12.248   8.531 -25.040  0.00  0.00    +0.000 HD
ENDBRANCH  13  18
BRANCH   3  20
ATOM     20  C   UNL     1      14.935  13.801 -22.590  0.00  0.00    +0.000 C 
ATOM     21  C   UNL     1      15.376  13.334 -21.199  0.00  0.00    +0.000 C 
BRANCH  21  25
ATOM     22  C   UNL     1      14.852  12.006 -19.048  0.00  0.00    +0.000 A 
ATOM     23  C   UNL     1      15.358  11.464 -17.656  0.00  0.00    +0.000 A 
ATOM     24  C   UNL     1      13.382  11.723 -19.569  0.00  0.00    +0.000 C 
ATOM     25  C   UNL     1      15.802  12.854 -19.922  0.00  0.00    +0.000 A 
ATOM     26  C   UNL     1      14.594  10.584 -16.639  0.00  0.00    +0.000 C 
ATOM     27  C   UNL     1      12.749  10.936 -18.505  0.00  0.00    +0.000 C 
ATOM     28  C   UNL     1      13.262  10.419 -17.188  0.00  0.00    +0.000 C 
ATOM     29  C   UNL     1      16.678  11.931 -17.387  0.00  0.00    +0.000 A 
ATOM     30  C   UNL     1      17.178  13.226 -19.492  0.00  0.00    +0.000 A 
ATOM     31  C   UNL     1      13.441  10.878 -20.864  0.00  0.00    +0.000 C 
ATOM     32  C   UNL     1      12.617  13.053 -19.738  0.00  0.00    +0.000 C 
ATOM     33  C   UNL     1      17.495  12.774 -18.321  0.00  0.00    +0.000 A 
ATOM     34  C   UNL     1      15.316   9.267 -16.393  0.00  0.00    +0.000 C 
ATOM     35  C   UNL     1      18.209  13.927 -20.328  0.00  0.00    +0.000 C 
BRANCH  26  36
ATOM     36  O   UNL     1      14.517  11.250 -15.405  0.00  0.00    +0.000 OA
ATOM     37  H   UNL     1      13.557  11.405 -15.338  0.00  0.00    +0.000 HD
ENDBRANCH  26  36
ENDBRANCH  21  25
ENDBRANCH   3  20
TORSDOF 5
ENDMDL
