MODEL 1
REMARK VINA RESULT:      -5.7      0.000      0.000
REMARK  Name = 442793_6gingerol.pdbqt.pdb
REMARK  7 active torsions:
REMARK  status: ('A' for Active; 'I' for Inactive)
REMARK    1  A    between atoms: C_1  and  C_3
REMARK    2  A    between atoms: C_5  and  O_6
REMARK    3  A    between atoms: C_5  and  C_8
REMARK    4  A    between atoms: C_9  and  C_10
REMARK    5  A    between atoms: C_13  and  C_14
REMARK    6  A    between atoms: C_17  and  O_20
REMARK    7  A    between atoms: C_19  and  O_22
REMARK                            x       y       z     vdW  Elec       q    Type
REMARK                         _______ _______ _______ _____ _____    ______ ____
ROOT
ATOM      1  C   UNL     1       5.235   1.915 -18.270  0.00  0.00    +0.000 C 
ATOM      2  C   UNL     1       6.758   1.956 -18.440  0.00  0.00    +0.000 C 
ENDROOT
BRANCH   2   3
ATOM      3  C   UNL     1       8.173   1.995 -18.595  0.00  0.00    +0.000 A 
ATOM      4  C   UNL     1       8.997   1.588 -17.547  0.00  0.00    +0.000 A 
ATOM      5  C   UNL     1       8.729   2.440 -19.791  0.00  0.00    +0.000 A 
ATOM      6  C   UNL     1      10.388   1.621 -17.683  0.00  0.00    +0.000 A 
ATOM      7  C   UNL     1      10.113   2.478 -19.941  0.00  0.00    +0.000 A 
ATOM      8  C   UNL     1      10.933   2.070 -18.890  0.00  0.00    +0.000 A 
BRANCH   6   9
ATOM      9  O   UNL     1      11.272   1.240 -16.704  0.00  0.00    +0.000 OA
ATOM     10  C   UNL     1      11.292   2.048 -15.557  0.00  0.00    +0.000 C 
ENDBRANCH   6   9
BRANCH   8  11
ATOM     11  O   UNL     1      12.291   2.110 -19.044  0.00  0.00    +0.000 OA
ATOM     12  H   UNL     1      12.666   2.702 -18.365  0.00  0.00    +0.000 HD
ENDBRANCH   8  11
ENDBRANCH   2   3
BRANCH   1  14
ATOM     13  O   UNL     1       3.237   2.717 -17.425  0.00  0.00    +0.000 OA
ATOM     14  C   UNL     1       3.803   1.876 -18.107  0.00  0.00    +0.000 C 
ATOM     15  C   UNL     1       3.046   0.839 -18.751  0.00  0.00    +0.000 C 
ATOM     16  C   UNL     1       2.298  -0.179 -19.381  0.00  0.00    +0.000 C 
BRANCH  16  17
ATOM     17  O   UNL     1       2.935  -0.933 -20.336  0.00  0.00    +0.000 OA
ATOM     18  H   UNL     1       3.467  -0.382 -20.937  0.00  0.00    +0.000 HD
ENDBRANCH  16  17
BRANCH  16  19
ATOM     19  C   UNL     1       0.943  -0.459 -19.078  0.00  0.00    +0.000 C 
ATOM     20  C   UNL     1      -0.522  -0.770 -18.755  0.00  0.00    +0.000 C 
BRANCH  20  21
ATOM     21  C   UNL     1      -1.987  -1.086 -18.435  0.00  0.00    +0.000 C 
ATOM     22  C   UNL     1      -3.451  -1.403 -18.114  0.00  0.00    +0.000 C 
ATOM     23  C   UNL     1      -4.913  -1.724 -17.787  0.00  0.00    +0.000 C 
ENDBRANCH  20  21
ENDBRANCH  16  19
ENDBRANCH   1  14
TORSDOF 7
ENDMDL
MODEL 2
REMARK VINA RESULT:      -5.7     20.620     23.940
REMARK  Name = 442793_6gingerol.pdbqt.pdb
REMARK  7 active torsions:
REMARK  status: ('A' for Active; 'I' for Inactive)
REMARK    1  A    between atoms: C_1  and  C_3
REMARK    2  A    between atoms: C_5  and  O_6
REMARK    3  A    between atoms: C_5  and  C_8
REMARK    4  A    between atoms: C_9  and  C_10
REMARK    5  A    between atoms: C_13  and  C_14
REMARK    6  A    between atoms: C_17  and  O_20
REMARK    7  A    between atoms: C_19  and  O_22
REMARK                            x       y       z     vdW  Elec       q    Type
REMARK                         _______ _______ _______ _____ _____    ______ ____
ROOT
ATOM      1  C   UNL     1      -6.550  -1.116   0.358  0.00  0.00    +0.000 C 
ATOM      2  C   UNL     1      -7.525  -1.941  -0.492  0.00  0.00    +0.000 C 
ENDROOT
BRANCH   2   3
ATOM      3  C   UNL     1      -8.428  -2.710  -1.279  0.00  0.00    +0.000 A 
ATOM      4  C   UNL     1      -9.455  -3.422  -0.661  0.00  0.00    +0.000 A 
ATOM      5  C   UNL     1      -8.284  -2.747  -2.663  0.00  0.00    +0.000 A 
ATOM      6  C   UNL     1     -10.349  -4.181  -1.421  0.00  0.00    +0.000 A 
ATOM      7  C   UNL     1      -9.168  -3.499  -3.432  0.00  0.00    +0.000 A 
ATOM      8  C   UNL     1     -10.193  -4.211  -2.810  0.00  0.00    +0.000 A 
BRANCH   6   9
ATOM      9  O   UNL     1     -11.386  -4.912  -0.894  0.00  0.00    +0.000 OA
ATOM     10  C   UNL     1     -11.150  -5.475   0.369  0.00  0.00    +0.000 C 
ENDBRANCH   6   9
BRANCH   8  11
ATOM     11  O   UNL     1     -11.058  -4.947  -3.571  0.00  0.00    +0.000 OA
ATOM     12  H   UNL     1     -10.542  -5.474  -4.209  0.00  0.00    +0.000 HD
ENDBRANCH   8  11
ENDBRANCH   2   3
BRANCH   1  14
ATOM     13  O   UNL     1      -6.042   0.324   2.094  0.00  0.00    +0.000 OA
ATOM     14  C   UNL     1      -5.632  -0.344   1.157  0.00  0.00    +0.000 C 
ATOM     15  C   UNL     1      -4.231  -0.363   0.841  0.00  0.00    +0.000 C 
ATOM     16  C   UNL     1      -2.853  -0.377   0.533  0.00  0.00    +0.000 C 
BRANCH  16  17
ATOM     17  O   UNL     1      -2.412  -1.333  -0.349  0.00  0.00    +0.000 OA
ATOM     18  H   UNL     1      -1.957  -2.063   0.107  0.00  0.00    +0.000 HD
ENDBRANCH  16  17
BRANCH  16  19
ATOM     19  C   UNL     1      -1.918   0.536   1.080  0.00  0.00    +0.000 C 
ATOM     20  C   UNL     1      -0.906   1.518   1.680  0.00  0.00    +0.000 C 
BRANCH  20  21
ATOM     21  C   UNL     1       0.103   2.498   2.286  0.00  0.00    +0.000 C 
ATOM     22  C   UNL     1       1.111   3.479   2.893  0.00  0.00    +0.000 C 
ATOM     23  C   UNL     1       2.115   4.461   3.506  0.00  0.00    +0.000 C 
ENDBRANCH  20  21
ENDBRANCH  16  19
ENDBRANCH   1  14
TORSDOF 7
ENDMDL
MODEL 3
REMARK VINA RESULT:      -5.5      0.779      2.040
REMARK  Name = 442793_6gingerol.pdbqt.pdb
REMARK  7 active torsions:
REMARK  status: ('A' for Active; 'I' for Inactive)
REMARK    1  A    between atoms: C_1  and  C_3
REMARK    2  A    between atoms: C_5  and  O_6
REMARK    3  A    between atoms: C_5  and  C_8
REMARK    4  A    between atoms: C_9  and  C_10
REMARK    5  A    between atoms: C_13  and  C_14
REMARK    6  A    between atoms: C_17  and  O_20
REMARK    7  A    between atoms: C_19  and  O_22
REMARK                            x       y       z     vdW  Elec       q    Type
REMARK                         _______ _______ _______ _____ _____    ______ ____
ROOT
ATOM      1  C   UNL     1       5.289   1.921 -18.372  0.00  0.00    +0.000 C 
ATOM      2  C   UNL     1       6.820   1.934 -18.473  0.00  0.00    +0.000 C 
ENDROOT
BRANCH   2   3
ATOM      3  C   UNL     1       8.241   1.948 -18.569  0.00  0.00    +0.000 A 
ATOM      4  C   UNL     1       8.855   2.517 -19.682  0.00  0.00    +0.000 A 
ATOM      5  C   UNL     1       9.010   1.392 -17.551  0.00  0.00    +0.000 A 
ATOM      6  C   UNL     1      10.249   2.537 -19.791  0.00  0.00    +0.000 A 
ATOM      7  C   UNL     1      10.400   1.406 -17.646  0.00  0.00    +0.000 A 
ATOM      8  C   UNL     1      11.010   1.976 -18.762  0.00  0.00    +0.000 A 
BRANCH   6   9
ATOM      9  O   UNL     1      10.935   3.076 -20.852  0.00  0.00    +0.000 OA
ATOM     10  C   UNL     1      10.823   2.377 -22.064  0.00  0.00    +0.000 C 
ENDBRANCH   6   9
BRANCH   8  11
ATOM     11  O   UNL     1      12.375   1.986 -18.850  0.00  0.00    +0.000 OA
ATOM     12  H   UNL     1      12.715   2.750 -18.347  0.00  0.00    +0.000 HD
ENDBRANCH   8  11
ENDBRANCH   2   3
BRANCH   1  14
ATOM     13  O   UNL     1       3.259   2.854 -17.776  0.00  0.00    +0.000 OA
ATOM     14  C   UNL     1       3.851   1.912 -18.279  0.00  0.00    +0.000 C 
ATOM     15  C   UNL     1       3.118   0.783 -18.781  0.00  0.00    +0.000 C 
ATOM     16  C   UNL     1       2.393  -0.325 -19.271  0.00  0.00    +0.000 C 
BRANCH  16  17
ATOM     17  O   UNL     1       3.071  -1.228 -20.054  0.00  0.00    +0.000 OA
ATOM     18  H   UNL     1       4.035  -1.149 -19.945  0.00  0.00    +0.000 HD
ENDBRANCH  16  17
BRANCH  16  19
ATOM     19  C   UNL     1       1.022  -0.550 -18.996  0.00  0.00    +0.000 C 
ATOM     20  C   UNL     1      -0.462  -0.797 -18.707  0.00  0.00    +0.000 C 
BRANCH  20  21
ATOM     21  C   UNL     1      -1.947  -1.047 -18.425  0.00  0.00    +0.000 C 
ATOM     22  C   UNL     1      -3.432  -1.297 -18.144  0.00  0.00    +0.000 C 
ATOM     23  C   UNL     1      -4.918  -1.547 -17.870  0.00  0.00    +0.000 C 
ENDBRANCH  20  21
ENDBRANCH  16  19
ENDBRANCH   1  14
TORSDOF 7
ENDMDL
MODEL 4
REMARK VINA RESULT:      -5.3      6.099      8.612
REMARK  Name = 442793_6gingerol.pdbqt.pdb
REMARK  7 active torsions:
REMARK  status: ('A' for Active; 'I' for Inactive)
REMARK    1  A    between atoms: C_1  and  C_3
REMARK    2  A    between atoms: C_5  and  O_6
REMARK    3  A    between atoms: C_5  and  C_8
REMARK    4  A    between atoms: C_9  and  C_10
REMARK    5  A    between atoms: C_13  and  C_14
REMARK    6  A    between atoms: C_17  and  O_20
REMARK    7  A    between atoms: C_19  and  O_22
REMARK                            x       y       z     vdW  Elec       q    Type
REMARK                         _______ _______ _______ _____ _____    ______ ____
ROOT
ATOM      1  C   UNL     1       1.805  -3.520 -19.031  0.00  0.00    +0.000 C 
ATOM      2  C   UNL     1       2.261  -2.081 -18.759  0.00  0.00    +0.000 C 
ENDROOT
BRANCH   2   3
ATOM      3  C   UNL     1       2.682  -0.745 -18.505  0.00  0.00    +0.000 A 
ATOM      4  C   UNL     1       2.055   0.316 -19.155  0.00  0.00    +0.000 A 
ATOM      5  C   UNL     1       3.719  -0.503 -17.608  0.00  0.00    +0.000 A 
ATOM      6  C   UNL     1       2.458   1.633 -18.917  0.00  0.00    +0.000 A 
ATOM      7  C   UNL     1       4.131   0.804 -17.360  0.00  0.00    +0.000 A 
ATOM      8  C   UNL     1       3.501   1.863 -18.014  0.00  0.00    +0.000 A 
BRANCH   6   9
ATOM      9  O   UNL     1       1.897   2.735 -19.514  0.00  0.00    +0.000 OA
ATOM     10  C   UNL     1       0.869   2.469 -20.431  0.00  0.00    +0.000 C 
ENDBRANCH   6   9
BRANCH   8  11
ATOM     11  O   UNL     1       3.910   3.144 -17.766  0.00  0.00    +0.000 OA
ATOM     12  H   UNL     1       3.457   3.742 -18.390  0.00  0.00    +0.000 HD
ENDBRANCH   8  11
ENDBRANCH   2   3
BRANCH   1  14
ATOM     13  O   UNL     1       0.586  -5.420 -18.529  0.00  0.00    +0.000 OA
ATOM     14  C   UNL     1       1.375  -4.872 -19.284  0.00  0.00    +0.000 C 
ATOM     15  C   UNL     1       1.883  -5.572 -20.431  0.00  0.00    +0.000 C 
ATOM     16  C   UNL     1       2.381  -6.266 -21.555  0.00  0.00    +0.000 C 
BRANCH  16  17
ATOM     17  O   UNL     1       3.048  -5.532 -22.506  0.00  0.00    +0.000 OA
ATOM     18  H   UNL     1       3.905  -5.932 -22.735  0.00  0.00    +0.000 HD
ENDBRANCH  16  17
BRANCH  16  19
ATOM     19  C   UNL     1       2.230  -7.661 -21.747  0.00  0.00    +0.000 C 
ATOM     20  C   UNL     1       2.077  -9.172 -21.952  0.00  0.00    +0.000 C 
BRANCH  20  21
ATOM     21  C   UNL     1       1.929 -10.683 -22.158  0.00  0.00    +0.000 C 
ATOM     22  C   UNL     1       1.783 -12.194 -22.367  0.00  0.00    +0.000 C 
ATOM     23  C   UNL     1       1.641 -13.704 -22.580  0.00  0.00    +0.000 C 
ENDBRANCH  20  21
ENDBRANCH  16  19
ENDBRANCH   1  14
TORSDOF 7
ENDMDL
MODEL 5
REMARK VINA RESULT:      -5.1     20.401     25.831
REMARK  Name = 442793_6gingerol.pdbqt.pdb
REMARK  7 active torsions:
REMARK  status: ('A' for Active; 'I' for Inactive)
REMARK    1  A    between atoms: C_1  and  C_3
REMARK    2  A    between atoms: C_5  and  O_6
REMARK    3  A    between atoms: C_5  and  C_8
REMARK    4  A    between atoms: C_9  and  C_10
REMARK    5  A    between atoms: C_13  and  C_14
REMARK    6  A    between atoms: C_17  and  O_20
REMARK    7  A    between atoms: C_19  and  O_22
REMARK                            x       y       z     vdW  Elec       q    Type
REMARK                         _______ _______ _______ _____ _____    ______ ____
ROOT
ATOM      1  C   UNL     1      -9.319  -3.579  -1.313  0.00  0.00    +0.000 C 
ATOM      2  C   UNL     1     -10.635  -4.332  -1.080  0.00  0.00    +0.000 C 
ENDROOT
BRANCH   2   3
ATOM      3  C   UNL     1     -11.858  -5.029  -0.865  0.00  0.00    +0.000 A 
ATOM      4  C   UNL     1     -11.982  -5.892   0.223  0.00  0.00    +0.000 A 
ATOM      5  C   UNL     1     -12.924  -4.848  -1.741  0.00  0.00    +0.000 A 
ATOM      6  C   UNL     1     -13.176  -6.584   0.446  0.00  0.00    +0.000 A 
ATOM      7  C   UNL     1     -14.118  -5.531  -1.530  0.00  0.00    +0.000 A 
ATOM      8  C   UNL     1     -14.239  -6.394  -0.441  0.00  0.00    +0.000 A 
BRANCH   6   9
ATOM      9  O   UNL     1     -13.383  -7.452   1.490  0.00  0.00    +0.000 OA
ATOM     10  C   UNL     1     -12.663  -8.655   1.431  0.00  0.00    +0.000 C 
ENDBRANCH   6   9
BRANCH   8  11
ATOM     11  O   UNL     1     -15.415  -7.061  -0.240  0.00  0.00    +0.000 OA
ATOM     12  H   UNL     1     -15.542  -7.696  -0.969  0.00  0.00    +0.000 HD
ENDBRANCH   8  11
ENDBRANCH   2   3
BRANCH   1  14
ATOM     13  O   UNL     1      -7.488  -2.988  -2.596  0.00  0.00    +0.000 OA
ATOM     14  C   UNL     1      -8.084  -2.871  -1.536  0.00  0.00    +0.000 C 
ATOM     15  C   UNL     1      -7.556  -2.028  -0.500  0.00  0.00    +0.000 C 
ATOM     16  C   UNL     1      -7.032  -1.200   0.517  0.00  0.00    +0.000 C 
BRANCH  16  17
ATOM     17  O   UNL     1      -7.856  -0.896   1.573  0.00  0.00    +0.000 OA
ATOM     18  H   UNL     1      -8.174   0.023   1.531  0.00  0.00    +0.000 HD
ENDBRANCH  16  17
BRANCH  16  19
ATOM     19  C   UNL     1      -5.716  -0.676   0.501  0.00  0.00    +0.000 C 
ATOM     20  C   UNL     1      -4.290  -0.116   0.477  0.00  0.00    +0.000 C 
BRANCH  20  21
ATOM     21  C   UNL     1      -2.863   0.440   0.448  0.00  0.00    +0.000 C 
ATOM     22  C   UNL     1      -1.436   0.998   0.418  0.00  0.00    +0.000 C 
ATOM     23  C   UNL     1      -0.012   1.562   0.385  0.00  0.00    +0.000 C 
ENDBRANCH  20  21
ENDBRANCH  16  19
ENDBRANCH   1  14
TORSDOF 7
ENDMDL
MODEL 6
REMARK VINA RESULT:      -5.1      3.589      6.446
REMARK  Name = 442793_6gingerol.pdbqt.pdb
REMARK  7 active torsions:
REMARK  status: ('A' for Active; 'I' for Inactive)
REMARK    1  A    between atoms: C_1  and  C_3
REMARK    2  A    between atoms: C_5  and  O_6
REMARK    3  A    between atoms: C_5  and  C_8
REMARK    4  A    between atoms: C_9  and  C_10
REMARK    5  A    between atoms: C_13  and  C_14
REMARK    6  A    between atoms: C_17  and  O_20
REMARK    7  A    between atoms: C_19  and  O_22
REMARK                            x       y       z     vdW  Elec       q    Type
REMARK                         _______ _______ _______ _____ _____    ______ ____
ROOT
ATOM      1  C   UNL     1       0.043  -1.512 -19.122  0.00  0.00    +0.000 C 
ATOM      2  C   UNL     1       1.376  -0.781 -18.915  0.00  0.00    +0.000 C 
ENDROOT
BRANCH   2   3
ATOM      3  C   UNL     1       2.614  -0.105 -18.723  0.00  0.00    +0.000 A 
ATOM      4  C   UNL     1       3.384   0.259 -19.826  0.00  0.00    +0.000 A 
ATOM      5  C   UNL     1       3.051   0.190 -17.435  0.00  0.00    +0.000 A 
ATOM      6  C   UNL     1       4.602   0.923 -19.654  0.00  0.00    +0.000 A 
ATOM      7  C   UNL     1       4.263   0.850 -17.248  0.00  0.00    +0.000 A 
ATOM      8  C   UNL     1       5.030   1.212 -18.355  0.00  0.00    +0.000 A 
BRANCH   6   9
ATOM      9  O   UNL     1       5.422   1.316 -20.683  0.00  0.00    +0.000 OA
ATOM     10  C   UNL     1       6.112   0.284 -21.337  0.00  0.00    +0.000 C 
ENDBRANCH   6   9
BRANCH   8  11
ATOM     11  O   UNL     1       6.219   1.861 -18.165  0.00  0.00    +0.000 OA
ATOM     12  H   UNL     1       6.805   1.291 -17.633  0.00  0.00    +0.000 HD
ENDBRANCH   8  11
ENDBRANCH   2   3
BRANCH   1  14
ATOM     13  O   UNL     1      -1.272  -3.163 -20.066  0.00  0.00    +0.000 OA
ATOM     14  C   UNL     1      -1.208  -2.202 -19.315  0.00  0.00    +0.000 C 
ATOM     15  C   UNL     1      -2.380  -1.748 -18.620  0.00  0.00    +0.000 C 
ATOM     16  C   UNL     1      -3.535  -1.304 -17.941  0.00  0.00    +0.000 C 
BRANCH  16  17
ATOM     17  O   UNL     1      -3.361  -0.399 -16.922  0.00  0.00    +0.000 OA
ATOM     18  H   UNL     1      -3.072   0.468 -17.254  0.00  0.00    +0.000 HD
ENDBRANCH  16  17
BRANCH  16  19
ATOM     19  C   UNL     1      -4.846  -1.738 -18.257  0.00  0.00    +0.000 C 
ATOM     20  C   UNL     1      -6.261  -2.218 -18.597  0.00  0.00    +0.000 C 
BRANCH  20  21
ATOM     21  C   UNL     1      -7.674  -2.703 -18.938  0.00  0.00    +0.000 C 
ATOM     22  C   UNL     1      -9.087  -3.188 -19.277  0.00  0.00    +0.000 C 
ATOM     23  C   UNL     1     -10.502  -3.672 -19.610  0.00  0.00    +0.000 C 
ENDBRANCH  20  21
ENDBRANCH  16  19
ENDBRANCH   1  14
TORSDOF 7
ENDMDL
MODEL 7
REMARK VINA RESULT:      -5.0      7.679     11.518
REMARK  Name = 442793_6gingerol.pdbqt.pdb
REMARK  7 active torsions:
REMARK  status: ('A' for Active; 'I' for Inactive)
REMARK    1  A    between atoms: C_1  and  C_3
REMARK    2  A    between atoms: C_5  and  O_6
REMARK    3  A    between atoms: C_5  and  C_8
REMARK    4  A    between atoms: C_9  and  C_10
REMARK    5  A    between atoms: C_13  and  C_14
REMARK    6  A    between atoms: C_17  and  O_20
REMARK    7  A    between atoms: C_19  and  O_22
REMARK                            x       y       z     vdW  Elec       q    Type
REMARK                         _______ _______ _______ _____ _____    ______ ____
ROOT
ATOM      1  C   UNL     1      -0.663   2.754 -20.298  0.00  0.00    +0.000 C 
ATOM      2  C   UNL     1      -1.377   1.570 -19.635  0.00  0.00    +0.000 C 
ENDROOT
BRANCH   2   3
ATOM      3  C   UNL     1      -2.041   0.472 -19.017  0.00  0.00    +0.000 A 
ATOM      4  C   UNL     1      -1.605  -0.829 -19.263  0.00  0.00    +0.000 A 
ATOM      5  C   UNL     1      -3.123   0.701 -18.172  0.00  0.00    +0.000 A 
ATOM      6  C   UNL     1      -2.247  -1.918 -18.665  0.00  0.00    +0.000 A 
ATOM      7  C   UNL     1      -3.771  -0.374 -17.569  0.00  0.00    +0.000 A 
ATOM      8  C   UNL     1      -3.332  -1.674 -17.818  0.00  0.00    +0.000 A 
BRANCH   6   9
ATOM      9  O   UNL     1      -1.884  -3.229 -18.852  0.00  0.00    +0.000 OA
ATOM     10  C   UNL     1      -0.803  -3.441 -19.722  0.00  0.00    +0.000 C 
ENDBRANCH   6   9
BRANCH   8  11
ATOM     11  O   UNL     1      -3.973  -2.725 -17.223  0.00  0.00    +0.000 OA
ATOM     12  H   UNL     1      -4.066  -3.444 -17.876  0.00  0.00    +0.000 HD
ENDBRANCH   8  11
ENDBRANCH   2   3
BRANCH   1  14
ATOM     13  O   UNL     1       1.104   4.230 -20.521  0.00  0.00    +0.000 OA
ATOM     14  C   UNL     1       0.006   3.870 -20.919  0.00  0.00    +0.000 C 
ATOM     15  C   UNL     1      -0.628   4.557 -22.009  0.00  0.00    +0.000 C 
ATOM     16  C   UNL     1      -1.249   5.237 -23.079  0.00  0.00    +0.000 C 
BRANCH  16  17
ATOM     17  O   UNL     1      -2.344   4.642 -23.656  0.00  0.00    +0.000 OA
ATOM     18  H   UNL     1      -2.094   3.880 -24.206  0.00  0.00    +0.000 HD
ENDBRANCH  16  17
BRANCH  16  19
ATOM     19  C   UNL     1      -0.805   6.486 -23.577  0.00  0.00    +0.000 C 
ATOM     20  C   UNL     1      -0.332   7.842 -24.113  0.00  0.00    +0.000 C 
BRANCH  20  21
ATOM     21  C   UNL     1       0.134   9.199 -24.648  0.00  0.00    +0.000 C 
ATOM     22  C   UNL     1       0.599  10.558 -25.181  0.00  0.00    +0.000 C 
ATOM     23  C   UNL     1       1.061  11.920 -25.709  0.00  0.00    +0.000 C 
ENDBRANCH  20  21
ENDBRANCH  16  19
ENDBRANCH   1  14
TORSDOF 7
ENDMDL
MODEL 8
REMARK VINA RESULT:      -4.8      2.966     10.797
REMARK  Name = 442793_6gingerol.pdbqt.pdb
REMARK  7 active torsions:
REMARK  status: ('A' for Active; 'I' for Inactive)
REMARK    1  A    between atoms: C_1  and  C_3
REMARK    2  A    between atoms: C_5  and  O_6
REMARK    3  A    between atoms: C_5  and  C_8
REMARK    4  A    between atoms: C_9  and  C_10
REMARK    5  A    between atoms: C_13  and  C_14
REMARK    6  A    between atoms: C_17  and  O_20
REMARK    7  A    between atoms: C_19  and  O_22
REMARK                            x       y       z     vdW  Elec       q    Type
REMARK                         _______ _______ _______ _____ _____    ______ ____
ROOT
ATOM      1  C   UNL     1       3.331   0.206 -18.914  0.00  0.00    +0.000 C 
ATOM      2  C   UNL     1       1.941  -0.436 -19.002  0.00  0.00    +0.000 C 
ENDROOT
BRANCH   2   3
ATOM      3  C   UNL     1       0.652  -1.034 -19.085  0.00  0.00    +0.000 A 
ATOM      4  C   UNL     1       0.523  -2.343 -19.545  0.00  0.00    +0.000 A 
ATOM      5  C   UNL     1      -0.475  -0.310 -18.707  0.00  0.00    +0.000 A 
ATOM      6  C   UNL     1      -0.736  -2.944 -19.634  0.00  0.00    +0.000 A 
ATOM      7  C   UNL     1      -1.736  -0.896 -18.790  0.00  0.00    +0.000 A 
ATOM      8  C   UNL     1      -1.860  -2.205 -19.252  0.00  0.00    +0.000 A 
BRANCH   6   9
ATOM      9  O   UNL     1      -0.954  -4.226 -20.076  0.00  0.00    +0.000 OA
ATOM     10  C   UNL     1      -0.121  -5.209 -19.518  0.00  0.00    +0.000 C 
ENDBRANCH   6   9
BRANCH   8  11
ATOM     11  O   UNL     1      -3.101  -2.775 -19.330  0.00  0.00    +0.000 OA
ATOM     12  H   UNL     1      -3.768  -2.065 -19.381  0.00  0.00    +0.000 HD
ENDBRANCH   8  11
ENDBRANCH   2   3
BRANCH   1  14
ATOM     13  O   UNL     1       4.758   1.988 -18.538  0.00  0.00    +0.000 OA
ATOM     14  C   UNL     1       4.639   0.808 -18.834  0.00  0.00    +0.000 C 
ATOM     15  C   UNL     1       5.801   0.011 -19.107  0.00  0.00    +0.000 C 
ATOM     16  C   UNL     1       6.948  -0.768 -19.377  0.00  0.00    +0.000 C 
BRANCH  16  17
ATOM     17  O   UNL     1       6.784  -2.131 -19.445  0.00  0.00    +0.000 OA
ATOM     18  H   UNL     1       6.934  -2.556 -18.583  0.00  0.00    +0.000 HD
ENDBRANCH  16  17
BRANCH  16  19
ATOM     19  C   UNL     1       8.238  -0.221 -19.581  0.00  0.00    +0.000 C 
ATOM     20  C   UNL     1       9.633   0.370 -19.811  0.00  0.00    +0.000 C 
BRANCH  20  21
ATOM     21  C   UNL     1      11.028   0.958 -20.046  0.00  0.00    +0.000 C 
ATOM     22  C   UNL     1      12.422   1.548 -20.283  0.00  0.00    +0.000 C 
ATOM     23  C   UNL     1      13.813   2.145 -20.520  0.00  0.00    +0.000 C 
ENDBRANCH  20  21
ENDBRANCH  16  19
ENDBRANCH   1  14
TORSDOF 7
ENDMDL
MODEL 9
REMARK VINA RESULT:      -4.8     20.756     23.285
REMARK  Name = 442793_6gingerol.pdbqt.pdb
REMARK  7 active torsions:
REMARK  status: ('A' for Active; 'I' for Inactive)
REMARK    1  A    between atoms: C_1  and  C_3
REMARK    2  A    between atoms: C_5  and  O_6
REMARK    3  A    between atoms: C_5  and  C_8
REMARK    4  A    between atoms: C_9  and  C_10
REMARK    5  A    between atoms: C_13  and  C_14
REMARK    6  A    between atoms: C_17  and  O_20
REMARK    7  A    between atoms: C_19  and  O_22
REMARK                            x       y       z     vdW  Elec       q    Type
REMARK                         _______ _______ _______ _____ _____    ______ ____
ROOT
ATOM      1  C   UNL     1      -8.562  -2.613  -1.224  0.00  0.00    +0.000 C 
ATOM      2  C   UNL     1      -7.576  -1.716  -0.465  0.00  0.00    +0.000 C 
ENDROOT
BRANCH   2   3
ATOM      3  C   UNL     1      -6.659  -0.886   0.241  0.00  0.00    +0.000 A 
ATOM      4  C   UNL     1      -5.309  -1.228   0.289  0.00  0.00    +0.000 A 
ATOM      5  C   UNL     1      -7.114   0.264   0.880  0.00  0.00    +0.000 A 
ATOM      6  C   UNL     1      -4.397  -0.424   0.978  0.00  0.00    +0.000 A 
ATOM      7  C   UNL     1      -6.216   1.074   1.570  0.00  0.00    +0.000 A 
ATOM      8  C   UNL     1      -4.866   0.728   1.616  0.00  0.00    +0.000 A 
BRANCH   6   9
ATOM      9  O   UNL     1      -3.052  -0.687   1.076  0.00  0.00    +0.000 OA
ATOM     10  C   UNL     1      -2.392  -0.931  -0.138  0.00  0.00    +0.000 C 
ENDBRANCH   6   9
BRANCH   8  11
ATOM     11  O   UNL     1      -3.990   1.528   2.296  0.00  0.00    +0.000 OA
ATOM     12  H   UNL     1      -3.097   1.142   2.227  0.00  0.00    +0.000 HD
ENDBRANCH   8  11
ENDBRANCH   2   3
BRANCH   1  14
ATOM     13  O   UNL     1      -9.260  -3.783  -3.092  0.00  0.00    +0.000 OA
ATOM     14  C   UNL     1      -9.487  -3.457  -1.937  0.00  0.00    +0.000 C 
ATOM     15  C   UNL     1     -10.679  -3.913  -1.278  0.00  0.00    +0.000 C 
ATOM     16  C   UNL     1     -11.854  -4.362  -0.636  0.00  0.00    +0.000 C 
BRANCH  16  17
ATOM     17  O   UNL     1     -11.935  -4.192   0.724  0.00  0.00    +0.000 OA
ATOM     18  H   UNL     1     -11.056  -4.190   1.141  0.00  0.00    +0.000 HD
ENDBRANCH  16  17
BRANCH  16  19
ATOM     19  C   UNL     1     -12.938  -4.967  -1.318  0.00  0.00    +0.000 C 
ATOM     20  C   UNL     1     -14.116  -5.624  -2.047  0.00  0.00    +0.000 C 
BRANCH  20  21
ATOM     21  C   UNL     1     -15.295  -6.281  -2.769  0.00  0.00    +0.000 C 
ATOM     22  C   UNL     1     -16.476  -6.938  -3.492  0.00  0.00    +0.000 C 
ATOM     23  C   UNL     1     -17.659  -7.587  -4.217  0.00  0.00    +0.000 C 
ENDBRANCH  20  21
ENDBRANCH  16  19
ENDBRANCH   1  14
TORSDOF 7
ENDMDL
