MODEL 1
REMARK VINA RESULT:      -6.5      0.000      0.000
REMARK  Name = 44423609_SipholenoneA.pdbqt.pdb
REMARK  4 active torsions:
REMARK  status: ('A' for Active; 'I' for Inactive)
REMARK    1  A    between atoms: C_3  and  C_19
REMARK    2  A    between atoms: C_5  and  O_17
REMARK    3  A    between atoms: C_20  and  C_24
REMARK    4  A    between atoms: C_25  and  O_35
REMARK                            x       y       z     vdW  Elec       q    Type
REMARK                         _______ _______ _______ _____ _____    ______ ____
ROOT
ATOM      1  O   UNL     1      -2.763  18.046 -16.467  0.00  0.00    +0.000 OA
ATOM      2  O   UNL     1      -4.729  15.020 -17.290  0.00  0.00    +0.000 OA
ATOM      3  C   UNL     1       0.814  17.453 -18.038  0.00  0.00    +0.000 C 
ATOM      4  C   UNL     1      -0.694  17.697 -18.006  0.00  0.00    +0.000 C 
ATOM      5  C   UNL     1       1.720  18.145 -17.034  0.00  0.00    +0.000 C 
ATOM      6  C   UNL     1      -1.372  17.997 -16.605  0.00  0.00    +0.000 C 
ATOM      7  C   UNL     1       0.910  18.663 -15.948  0.00  0.00    +0.000 C 
ATOM      8  C   UNL     1      -0.552  18.633 -15.651  0.00  0.00    +0.000 C 
ATOM      9  C   UNL     1      -1.425  16.486 -18.415  0.00  0.00    +0.000 C 
ATOM     10  C   UNL     1      -1.050  18.866 -18.966  0.00  0.00    +0.000 C 
ATOM     11  C   UNL     1       2.802  17.188 -16.521  0.00  0.00    +0.000 C 
ATOM     12  C   UNL     1      -2.689  15.719 -18.091  0.00  0.00    +0.000 C 
ATOM     13  C   UNL     1      -3.495  16.865 -15.994  0.00  0.00    +0.000 C 
ATOM     14  C   UNL     1      -3.781  15.781 -17.147  0.00  0.00    +0.000 C 
ATOM     15  C   UNL     1      -4.845  17.428 -15.443  0.00  0.00    +0.000 C 
ATOM     16  C   UNL     1      -2.714  16.170 -14.817  0.00  0.00    +0.000 C 
ENDROOT
BRANCH   5  17
ATOM     17  O   UNL     1       2.405  19.199 -17.661  0.00  0.00    +0.000 OA
ATOM     18  H   UNL     1       1.680  19.629 -18.152  0.00  0.00    +0.000 HD
ENDBRANCH   5  17
BRANCH   3  19
ATOM     19  C   UNL     1       1.394  16.779 -19.171  0.00  0.00    +0.000 C 
ATOM     20  C   UNL     1       2.016  16.055 -20.368  0.00  0.00    +0.000 C 
BRANCH  20  24
ATOM     21  C   UNL     1       5.127  14.664 -21.617  0.00  0.00    +0.000 C 
ATOM     22  C   UNL     1       4.039  15.704 -21.983  0.00  0.00    +0.000 C 
ATOM     23  C   UNL     1       5.182  13.240 -22.107  0.00  0.00    +0.000 C 
ATOM     24  C   UNL     1       2.609  15.380 -21.486  0.00  0.00    +0.000 C 
ATOM     25  C   UNL     1       6.418  12.505 -21.584  0.00  0.00    +0.000 C 
ATOM     26  C   UNL     1       6.292  14.865 -20.823  0.00  0.00    +0.000 C 
ATOM     27  C   UNL     1       7.056  13.571 -20.822  0.00  0.00    +0.000 C 
ATOM     28  C   UNL     1       3.936  12.683 -22.460  0.00  0.00    +0.000 C 
ATOM     29  C   UNL     1       1.856  14.287 -22.105  0.00  0.00    +0.000 C 
ATOM     30  C   UNL     1       4.481  17.096 -21.388  0.00  0.00    +0.000 C 
ATOM     31  C   UNL     1       4.031  15.886 -23.539  0.00  0.00    +0.000 C 
ATOM     32  C   UNL     1       2.534  13.232 -22.431  0.00  0.00    +0.000 C 
ATOM     33  C   UNL     1       7.241  11.900 -22.708  0.00  0.00    +0.000 C 
ATOM     34  C   UNL     1       0.362  14.128 -21.993  0.00  0.00    +0.000 C 
BRANCH  25  35
ATOM     35  O   UNL     1       6.040  11.451 -20.733  0.00  0.00    +0.000 OA
ATOM     36  H   UNL     1       6.848  10.908 -20.748  0.00  0.00    +0.000 HD
ENDBRANCH  25  35
ENDBRANCH  20  24
ENDBRANCH   3  19
TORSDOF 4
ENDMDL
MODEL 2
REMARK VINA RESULT:      -6.3     16.776     23.589
REMARK  Name = 44423609_SipholenoneA.pdbqt.pdb
REMARK  4 active torsions:
REMARK  status: ('A' for Active; 'I' for Inactive)
REMARK    1  A    between atoms: C_3  and  C_19
REMARK    2  A    between atoms: C_5  and  O_17
REMARK    3  A    between atoms: C_20  and  C_24
REMARK    4  A    between atoms: C_25  and  O_35
REMARK                            x       y       z     vdW  Elec       q    Type
REMARK                         _______ _______ _______ _____ _____    ______ ____
ROOT
ATOM      1  O   UNL     1      16.734  -6.683 -18.751  0.00  0.00    +0.000 OA
ATOM      2  O   UNL     1      17.628  -4.747 -15.727  0.00  0.00    +0.000 OA
ATOM      3  C   UNL     1      13.743  -4.721 -20.429  0.00  0.00    +0.000 C 
ATOM      4  C   UNL     1      15.170  -4.986 -19.953  0.00  0.00    +0.000 C 
ATOM      5  C   UNL     1      12.911  -5.850 -21.015  0.00  0.00    +0.000 C 
ATOM      6  C   UNL     1      15.509  -6.423 -19.374  0.00  0.00    +0.000 C 
ATOM      7  C   UNL     1      13.531  -7.116 -20.674  0.00  0.00    +0.000 C 
ATOM      8  C   UNL     1      14.749  -7.488 -19.896  0.00  0.00    +0.000 C 
ATOM      9  C   UNL     1      15.499  -4.135 -18.798  0.00  0.00    +0.000 C 
ATOM     10  C   UNL     1      16.165  -4.694 -21.112  0.00  0.00    +0.000 C 
ATOM     11  C   UNL     1      11.464  -5.780 -20.517  0.00  0.00    +0.000 C 
ATOM     12  C   UNL     1      16.268  -4.182 -17.494  0.00  0.00    +0.000 C 
ATOM     13  C   UNL     1      16.839  -6.630 -17.289  0.00  0.00    +0.000 C 
ATOM     14  C   UNL     1      17.014  -5.139 -16.712  0.00  0.00    +0.000 C 
ATOM     15  C   UNL     1      18.101  -7.487 -16.948  0.00  0.00    +0.000 C 
ATOM     16  C   UNL     1      15.576  -7.293 -16.623  0.00  0.00    +0.000 C 
ENDROOT
BRANCH   5  17
ATOM     17  O   UNL     1      12.845  -5.713 -22.412  0.00  0.00    +0.000 OA
ATOM     18  H   UNL     1      11.983  -5.271 -22.517  0.00  0.00    +0.000 HD
ENDBRANCH   5  17
BRANCH   3  19
ATOM     19  C   UNL     1      13.286  -3.361 -20.559  0.00  0.00    +0.000 C 
ATOM     20  C   UNL     1      12.793  -1.917 -20.687  0.00  0.00    +0.000 C 
BRANCH  20  24
ATOM     21  C   UNL     1      10.553   0.530 -19.215  0.00  0.00    +0.000 C 
ATOM     22  C   UNL     1      10.843  -0.184 -20.559  0.00  0.00    +0.000 C 
ATOM     23  C   UNL     1      11.067   1.888 -18.812  0.00  0.00    +0.000 C 
ATOM     24  C   UNL     1      12.322  -0.567 -20.807  0.00  0.00    +0.000 C 
ATOM     25  C   UNL     1      10.550   2.308 -17.435  0.00  0.00    +0.000 C 
ATOM     26  C   UNL     1       9.712   0.084 -18.155  0.00  0.00    +0.000 C 
ATOM     27  C   UNL     1       9.713   1.161 -17.107  0.00  0.00    +0.000 C 
ATOM     28  C   UNL     1      12.272   2.277 -19.434  0.00  0.00    +0.000 C 
ATOM     29  C   UNL     1      13.307   0.480 -21.085  0.00  0.00    +0.000 C 
ATOM     30  C   UNL     1       9.963  -1.492 -20.611  0.00  0.00    +0.000 C 
ATOM     31  C   UNL     1      10.328   0.727 -21.725  0.00  0.00    +0.000 C 
ATOM     32  C   UNL     1      13.170   1.588 -20.426  0.00  0.00    +0.000 C 
ATOM     33  C   UNL     1       9.852   3.657 -17.474  0.00  0.00    +0.000 C 
ATOM     34  C   UNL     1      14.651   0.223 -21.715  0.00  0.00    +0.000 C 
BRANCH  25  35
ATOM     35  O   UNL     1      11.614   2.417 -16.522  0.00  0.00    +0.000 OA
ATOM     36  H   UNL     1      11.129   2.412 -15.678  0.00  0.00    +0.000 HD
ENDBRANCH  25  35
ENDBRANCH  20  24
ENDBRANCH   3  19
TORSDOF 4
ENDMDL
MODEL 3
REMARK VINA RESULT:      -6.2     15.746     20.859
REMARK  Name = 44423609_SipholenoneA.pdbqt.pdb
REMARK  4 active torsions:
REMARK  status: ('A' for Active; 'I' for Inactive)
REMARK    1  A    between atoms: C_3  and  C_19
REMARK    2  A    between atoms: C_5  and  O_17
REMARK    3  A    between atoms: C_20  and  C_24
REMARK    4  A    between atoms: C_25  and  O_35
REMARK                            x       y       z     vdW  Elec       q    Type
REMARK                         _______ _______ _______ _____ _____    ______ ____
ROOT
ATOM      1  O   UNL     1      13.445  -4.197 -19.978  0.00  0.00    +0.000 OA
ATOM      2  O   UNL     1      11.071  -6.935 -20.729  0.00  0.00    +0.000 OA
ATOM      3  C   UNL     1      11.405  -0.850 -20.481  0.00  0.00    +0.000 C 
ATOM      4  C   UNL     1      11.808  -2.178 -19.843  0.00  0.00    +0.000 C 
ATOM      5  C   UNL     1      12.469   0.092 -21.019  0.00  0.00    +0.000 C 
ATOM      6  C   UNL     1      13.115  -2.897 -20.379  0.00  0.00    +0.000 C 
ATOM      7  C   UNL     1      13.717  -0.635 -21.154  0.00  0.00    +0.000 C 
ATOM      8  C   UNL     1      14.116  -2.048 -20.889  0.00  0.00    +0.000 C 
ATOM      9  C   UNL     1      10.793  -3.211 -20.107  0.00  0.00    +0.000 C 
ATOM     10  C   UNL     1      11.967  -1.988 -18.308  0.00  0.00    +0.000 C 
ATOM     11  C   UNL     1      12.031   0.711 -22.351  0.00  0.00    +0.000 C 
ATOM     12  C   UNL     1      10.683  -4.691 -20.407  0.00  0.00    +0.000 C 
ATOM     13  C   UNL     1      13.084  -5.339 -20.825  0.00  0.00    +0.000 C 
ATOM     14  C   UNL     1      11.558  -5.814 -20.647  0.00  0.00    +0.000 C 
ATOM     15  C   UNL     1      14.055  -6.483 -20.387  0.00  0.00    +0.000 C 
ATOM     16  C   UNL     1      13.344  -5.003 -22.341  0.00  0.00    +0.000 C 
ENDROOT
BRANCH   5  17
ATOM     17  O   UNL     1      12.640   1.169 -20.132  0.00  0.00    +0.000 OA
ATOM     18  H   UNL     1      13.474   0.922 -19.693  0.00  0.00    +0.000 HD
ENDBRANCH   5  17
BRANCH   3  19
ATOM     19  C   UNL     1      10.050  -0.383 -20.338  0.00  0.00    +0.000 C 
ATOM     20  C   UNL     1       8.606   0.104 -20.195  0.00  0.00    +0.000 C 
BRANCH  20  24
ATOM     21  C   UNL     1       5.162  -1.011 -19.926  0.00  0.00    +0.000 C 
ATOM     22  C   UNL     1       6.076  -0.123 -20.807  0.00  0.00    +0.000 C 
ATOM     23  C   UNL     1       4.291  -0.527 -18.796  0.00  0.00    +0.000 C 
ATOM     24  C   UNL     1       7.252   0.564 -20.071  0.00  0.00    +0.000 C 
ATOM     25  C   UNL     1       3.485  -1.666 -18.168  0.00  0.00    +0.000 C 
ATOM     26  C   UNL     1       4.923  -2.409 -20.052  0.00  0.00    +0.000 C 
ATOM     27  C   UNL     1       3.912  -2.781 -19.004  0.00  0.00    +0.000 C 
ATOM     28  C   UNL     1       4.728   0.662 -18.174  0.00  0.00    +0.000 C 
ATOM     29  C   UNL     1       6.984   1.662 -19.141  0.00  0.00    +0.000 C 
ATOM     30  C   UNL     1       6.657  -1.025 -21.963  0.00  0.00    +0.000 C 
ATOM     31  C   UNL     1       5.187   0.958 -21.511  0.00  0.00    +0.000 C 
ATOM     32  C   UNL     1       5.920   1.551 -18.409  0.00  0.00    +0.000 C 
ATOM     33  C   UNL     1       1.995  -1.371 -18.154  0.00  0.00    +0.000 C 
ATOM     34  C   UNL     1       8.028   2.645 -18.678  0.00  0.00    +0.000 C 
BRANCH  25  35
ATOM     35  O   UNL     1       3.881  -1.872 -16.834  0.00  0.00    +0.000 OA
ATOM     36  H   UNL     1       3.110  -1.515 -16.360  0.00  0.00    +0.000 HD
ENDBRANCH  25  35
ENDBRANCH  20  24
ENDBRANCH   3  19
TORSDOF 4
ENDMDL
MODEL 4
REMARK VINA RESULT:      -6.1      5.184      9.419
REMARK  Name = 44423609_SipholenoneA.pdbqt.pdb
REMARK  4 active torsions:
REMARK  status: ('A' for Active; 'I' for Inactive)
REMARK    1  A    between atoms: C_3  and  C_19
REMARK    2  A    between atoms: C_5  and  O_17
REMARK    3  A    between atoms: C_20  and  C_24
REMARK    4  A    between atoms: C_25  and  O_35
REMARK                            x       y       z     vdW  Elec       q    Type
REMARK                         _______ _______ _______ _____ _____    ______ ____
ROOT
ATOM      1  O   UNL     1     -10.564  20.442 -14.887  0.00  0.00    +0.000 OA
ATOM      2  O   UNL     1     -11.878  17.584 -16.836  0.00  0.00    +0.000 OA
ATOM      3  C   UNL     1      -7.016  19.298 -13.577  0.00  0.00    +0.000 C 
ATOM      4  C   UNL     1      -8.085  19.709 -14.588  0.00  0.00    +0.000 C 
ATOM      5  C   UNL     1      -6.940  19.986 -12.224  0.00  0.00    +0.000 C 
ATOM      6  C   UNL     1      -9.477  20.226 -14.032  0.00  0.00    +0.000 C 
ATOM      7  C   UNL     1      -8.180  20.700 -11.989  0.00  0.00    +0.000 C 
ATOM      8  C   UNL     1      -9.438  20.862 -12.776  0.00  0.00    +0.000 C 
ATOM      9  C   UNL     1      -8.517  18.551 -15.388  0.00  0.00    +0.000 C 
ATOM     10  C   UNL     1      -7.513  20.806 -15.530  0.00  0.00    +0.000 C 
ATOM     11  C   UNL     1      -6.654  18.973 -11.110  0.00  0.00    +0.000 C 
ATOM     12  C   UNL     1      -9.762  17.966 -16.019  0.00  0.00    +0.000 C 
ATOM     13  C   UNL     1     -11.590  19.405 -15.045  0.00  0.00    +0.000 C 
ATOM     14  C   UNL     1     -11.177  18.246 -16.081  0.00  0.00    +0.000 C 
ATOM     15  C   UNL     1     -12.850  20.168 -15.569  0.00  0.00    +0.000 C 
ATOM     16  C   UNL     1     -11.931  18.753 -13.653  0.00  0.00    +0.000 C 
ENDROOT
BRANCH   5  17
ATOM     17  O   UNL     1      -5.862  20.887 -12.211  0.00  0.00    +0.000 OA
ATOM     18  H   UNL     1      -5.606  20.861 -11.271  0.00  0.00    +0.000 HD
ENDBRANCH   5  17
BRANCH   3  19
ATOM     19  C   UNL     1      -5.932  18.451 -14.005  0.00  0.00    +0.000 C 
ATOM     20  C   UNL     1      -4.780  17.545 -14.447  0.00  0.00    +0.000 C 
BRANCH  20  24
ATOM     21  C   UNL     1      -3.714  15.198 -17.002  0.00  0.00    +0.000 C 
ATOM     22  C   UNL     1      -3.924  15.299 -15.471  0.00  0.00    +0.000 C 
ATOM     23  C   UNL     1      -2.408  15.401 -17.726  0.00  0.00    +0.000 C 
ATOM     24  C   UNL     1      -3.694  16.701 -14.855  0.00  0.00    +0.000 C 
ATOM     25  C   UNL     1      -2.551  15.181 -19.233  0.00  0.00    +0.000 C 
ATOM     26  C   UNL     1      -4.674  14.837 -17.991  0.00  0.00    +0.000 C 
ATOM     27  C   UNL     1      -3.961  14.821 -19.314  0.00  0.00    +0.000 C 
ATOM     28  C   UNL     1      -1.483  16.233 -17.062  0.00  0.00    +0.000 C 
ATOM     29  C   UNL     1      -2.336  17.239 -14.763  0.00  0.00    +0.000 C 
ATOM     30  C   UNL     1      -5.400  14.841 -15.154  0.00  0.00    +0.000 C 
ATOM     31  C   UNL     1      -2.990  14.254 -14.773  0.00  0.00    +0.000 C 
ATOM     32  C   UNL     1      -1.546  16.983 -15.758  0.00  0.00    +0.000 C 
ATOM     33  C   UNL     1      -1.565  14.151 -19.757  0.00  0.00    +0.000 C 
ATOM     34  C   UNL     1      -1.943  18.378 -13.858  0.00  0.00    +0.000 C 
BRANCH  25  35
ATOM     35  O   UNL     1      -2.310  16.379 -19.930  0.00  0.00    +0.000 OA
ATOM     36  H   UNL     1      -2.318  17.019 -19.197  0.00  0.00    +0.000 HD
ENDBRANCH  25  35
ENDBRANCH  20  24
ENDBRANCH   3  19
TORSDOF 4
ENDMDL
MODEL 5
REMARK VINA RESULT:      -5.9     16.690     23.331
REMARK  Name = 44423609_SipholenoneA.pdbqt.pdb
REMARK  4 active torsions:
REMARK  status: ('A' for Active; 'I' for Inactive)
REMARK    1  A    between atoms: C_3  and  C_19
REMARK    2  A    between atoms: C_5  and  O_17
REMARK    3  A    between atoms: C_20  and  C_24
REMARK    4  A    between atoms: C_25  and  O_35
REMARK                            x       y       z     vdW  Elec       q    Type
REMARK                         _______ _______ _______ _____ _____    ______ ____
ROOT
ATOM      1  O   UNL     1      16.650  -6.465 -18.542  0.00  0.00    +0.000 OA
ATOM      2  O   UNL     1      17.530  -5.530 -15.071  0.00  0.00    +0.000 OA
ATOM      3  C   UNL     1      13.466  -4.310 -19.452  0.00  0.00    +0.000 C 
ATOM      4  C   UNL     1      14.926  -4.601 -19.110  0.00  0.00    +0.000 C 
ATOM      5  C   UNL     1      12.691  -5.255 -20.356  0.00  0.00    +0.000 C 
ATOM      6  C   UNL     1      15.385  -6.116 -19.028  0.00  0.00    +0.000 C 
ATOM      7  C   UNL     1      13.409  -6.511 -20.450  0.00  0.00    +0.000 C 
ATOM      8  C   UNL     1      14.680  -7.015 -19.852  0.00  0.00    +0.000 C 
ATOM      9  C   UNL     1      15.242  -4.140 -17.748  0.00  0.00    +0.000 C 
ATOM     10  C   UNL     1      15.851  -3.878 -20.130  0.00  0.00    +0.000 C 
ATOM     11  C   UNL     1      11.263  -5.460 -19.838  0.00  0.00    +0.000 C 
ATOM     12  C   UNL     1      16.064  -4.539 -16.541  0.00  0.00    +0.000 C 
ATOM     13  C   UNL     1      16.809  -6.873 -17.141  0.00  0.00    +0.000 C 
ATOM     14  C   UNL     1      16.905  -5.634 -16.119  0.00  0.00    +0.000 C 
ATOM     15  C   UNL     1      18.140  -7.693 -17.114  0.00  0.00    +0.000 C 
ATOM     16  C   UNL     1      15.623  -7.810 -16.703  0.00  0.00    +0.000 C 
ENDROOT
BRANCH   5  17
ATOM     17  O   UNL     1      12.559  -4.685 -21.634  0.00  0.00    +0.000 OA
ATOM     18  H   UNL     1      11.622  -4.419 -21.626  0.00  0.00    +0.000 HD
ENDBRANCH   5  17
BRANCH   3  19
ATOM     19  C   UNL     1      12.912  -3.020 -19.132  0.00  0.00    +0.000 C 
ATOM     20  C   UNL     1      12.322  -1.652 -18.779  0.00  0.00    +0.000 C 
BRANCH  20  24
ATOM     21  C   UNL     1       9.854   0.806 -19.801  0.00  0.00    +0.000 C 
ATOM     22  C   UNL     1      11.372   0.665 -19.525  0.00  0.00    +0.000 C 
ATOM     23  C   UNL     1       8.824   1.304 -18.820  0.00  0.00    +0.000 C 
ATOM     24  C   UNL     1      11.762  -0.374 -18.445  0.00  0.00    +0.000 C 
ATOM     25  C   UNL     1       7.426   1.357 -19.438  0.00  0.00    +0.000 C 
ATOM     26  C   UNL     1       9.165   0.562 -21.024  0.00  0.00    +0.000 C 
ATOM     27  C   UNL     1       7.720   0.906 -20.793  0.00  0.00    +0.000 C 
ATOM     28  C   UNL     1       9.158   1.120 -17.462  0.00  0.00    +0.000 C 
ATOM     29  C   UNL     1      11.472  -0.100 -17.036  0.00  0.00    +0.000 C 
ATOM     30  C   UNL     1      12.076   0.277 -20.881  0.00  0.00    +0.000 C 
ATOM     31  C   UNL     1      11.937   2.073 -19.135  0.00  0.00    +0.000 C 
ATOM     32  C   UNL     1      10.351   0.501 -16.785  0.00  0.00    +0.000 C 
ATOM     33  C   UNL     1       6.798   2.734 -19.312  0.00  0.00    +0.000 C 
ATOM     34  C   UNL     1      12.131  -0.819 -15.888  0.00  0.00    +0.000 C 
BRANCH  25  35
ATOM     35  O   UNL     1       6.568   0.448 -18.794  0.00  0.00    +0.000 OA
ATOM     36  H   UNL     1       6.452  -0.218 -19.493  0.00  0.00    +0.000 HD
ENDBRANCH  25  35
ENDBRANCH  20  24
ENDBRANCH   3  19
TORSDOF 4
ENDMDL
MODEL 6
REMARK VINA RESULT:      -5.7      5.352     12.543
REMARK  Name = 44423609_SipholenoneA.pdbqt.pdb
REMARK  4 active torsions:
REMARK  status: ('A' for Active; 'I' for Inactive)
REMARK    1  A    between atoms: C_3  and  C_19
REMARK    2  A    between atoms: C_5  and  O_17
REMARK    3  A    between atoms: C_20  and  C_24
REMARK    4  A    between atoms: C_25  and  O_35
REMARK                            x       y       z     vdW  Elec       q    Type
REMARK                         _______ _______ _______ _____ _____    ______ ____
ROOT
ATOM      1  O   UNL     1      -3.410  16.686 -17.994  0.00  0.00    +0.000 OA
ATOM      2  O   UNL     1       0.237  16.521 -17.387  0.00  0.00    +0.000 OA
ATOM      3  C   UNL     1      -5.036  17.543 -14.496  0.00  0.00    +0.000 C 
ATOM      4  C   UNL     1      -4.212  17.761 -15.764  0.00  0.00    +0.000 C 
ATOM      5  C   UNL     1      -6.349  16.781 -14.561  0.00  0.00    +0.000 C 
ATOM      6  C   UNL     1      -4.274  16.651 -16.893  0.00  0.00    +0.000 C 
ATOM      7  C   UNL     1      -6.410  16.057 -15.816  0.00  0.00    +0.000 C 
ATOM      8  C   UNL     1      -5.478  15.924 -16.973  0.00  0.00    +0.000 C 
ATOM      9  C   UNL     1      -2.772  17.763 -15.453  0.00  0.00    +0.000 C 
ATOM     10  C   UNL     1      -4.604  19.119 -16.410  0.00  0.00    +0.000 C 
ATOM     11  C   UNL     1      -6.496  15.840 -13.360  0.00  0.00    +0.000 C 
ATOM     12  C   UNL     1      -1.451  17.309 -16.037  0.00  0.00    +0.000 C 
ATOM     13  C   UNL     1      -2.181  15.886 -17.987  0.00  0.00    +0.000 C 
ATOM     14  C   UNL     1      -0.970  16.575 -17.184  0.00  0.00    +0.000 C 
ATOM     15  C   UNL     1      -1.800  15.727 -19.495  0.00  0.00    +0.000 C 
ATOM     16  C   UNL     1      -2.456  14.461 -17.378  0.00  0.00    +0.000 C 
ENDROOT
BRANCH   5  17
ATOM     17  O   UNL     1      -7.424  17.683 -14.478  0.00  0.00    +0.000 OA
ATOM     18  H   UNL     1      -6.953  18.535 -14.445  0.00  0.00    +0.000 HD
ENDBRANCH   5  17
BRANCH   3  19
ATOM     19  C   UNL     1      -4.699  18.277 -13.303  0.00  0.00    +0.000 C 
ATOM     20  C   UNL     1      -4.329  19.052 -12.036  0.00  0.00    +0.000 C 
BRANCH  20  24
ATOM     21  C   UNL     1      -5.472  19.873  -8.690  0.00  0.00    +0.000 C 
ATOM     22  C   UNL     1      -5.030  20.548 -10.012  0.00  0.00    +0.000 C 
ATOM     23  C   UNL     1      -4.588  19.611  -7.497  0.00  0.00    +0.000 C 
ATOM     24  C   UNL     1      -3.981  19.769 -10.843  0.00  0.00    +0.000 C 
ATOM     25  C   UNL     1      -5.361  18.968  -6.345  0.00  0.00    +0.000 C 
ATOM     26  C   UNL     1      -6.780  19.440  -8.328  0.00  0.00    +0.000 C 
ATOM     27  C   UNL     1      -6.698  18.913  -6.923  0.00  0.00    +0.000 C 
ATOM     28  C   UNL     1      -3.215  19.479  -7.792  0.00  0.00    +0.000 C 
ATOM     29  C   UNL     1      -2.601  19.673 -10.363  0.00  0.00    +0.000 C 
ATOM     30  C   UNL     1      -6.317  20.769 -10.896  0.00  0.00    +0.000 C 
ATOM     31  C   UNL     1      -4.487  21.979  -9.679  0.00  0.00    +0.000 C 
ATOM     32  C   UNL     1      -2.445  19.533  -9.084  0.00  0.00    +0.000 C 
ATOM     33  C   UNL     1      -5.221  19.756  -5.053  0.00  0.00    +0.000 C 
ATOM     34  C   UNL     1      -1.432  19.298 -11.237  0.00  0.00    +0.000 C 
BRANCH  25  35
ATOM     35  O   UNL     1      -4.881  17.670  -6.094  0.00  0.00    +0.000 OA
ATOM     36  H   UNL     1      -5.345  17.169  -6.787  0.00  0.00    +0.000 HD
ENDBRANCH  25  35
ENDBRANCH  20  24
ENDBRANCH   3  19
TORSDOF 4
ENDMDL
MODEL 7
REMARK VINA RESULT:      -5.6     33.217     35.733
REMARK  Name = 44423609_SipholenoneA.pdbqt.pdb
REMARK  4 active torsions:
REMARK  status: ('A' for Active; 'I' for Inactive)
REMARK    1  A    between atoms: C_3  and  C_19
REMARK    2  A    between atoms: C_5  and  O_17
REMARK    3  A    between atoms: C_20  and  C_24
REMARK    4  A    between atoms: C_25  and  O_35
REMARK                            x       y       z     vdW  Elec       q    Type
REMARK                         _______ _______ _______ _____ _____    ______ ____
ROOT
ATOM      1  O   UNL     1      -0.586 -21.162  -7.177  0.00  0.00    +0.000 OA
ATOM      2  O   UNL     1      -0.404 -18.372  -4.754  0.00  0.00    +0.000 OA
ATOM      3  C   UNL     1       0.701 -19.682 -10.607  0.00  0.00    +0.000 C 
ATOM      4  C   UNL     1       0.771 -20.158  -9.157  0.00  0.00    +0.000 C 
ATOM      5  C   UNL     1      -0.149 -20.434 -11.617  0.00  0.00    +0.000 C 
ATOM      6  C   UNL     1      -0.506 -20.869  -8.543  0.00  0.00    +0.000 C 
ATOM      7  C   UNL     1      -1.065 -21.304 -10.904  0.00  0.00    +0.000 C 
ATOM      8  C   UNL     1      -1.316 -21.569  -9.458  0.00  0.00    +0.000 C 
ATOM      9  C   UNL     1       0.920 -19.014  -8.242  0.00  0.00    +0.000 C 
ATOM     10  C   UNL     1       1.980 -21.120  -8.985  0.00  0.00    +0.000 C 
ATOM     11  C   UNL     1      -0.895 -19.462 -12.537  0.00  0.00    +0.000 C 
ATOM     12  C   UNL     1       0.471 -18.546  -6.874  0.00  0.00    +0.000 C 
ATOM     13  C   UNL     1      -1.290 -20.248  -6.271  0.00  0.00    +0.000 C 
ATOM     14  C   UNL     1      -0.401 -18.989  -5.811  0.00  0.00    +0.000 C 
ATOM     15  C   UNL     1      -1.660 -21.124  -5.030  0.00  0.00    +0.000 C 
ATOM     16  C   UNL     1      -2.616 -19.725  -6.939  0.00  0.00    +0.000 C 
ENDROOT
BRANCH   5  17
ATOM     17  O   UNL     1       0.679 -21.200 -12.456  0.00  0.00    +0.000 OA
ATOM     18  H   UNL     1       1.183 -21.717 -11.802  0.00  0.00    +0.000 HD
ENDBRANCH   5  17
BRANCH   3  19
ATOM     19  C   UNL     1       1.637 -18.687 -11.067  0.00  0.00    +0.000 C 
ATOM     20  C   UNL     1       2.639 -17.635 -11.547  0.00  0.00    +0.000 C 
BRANCH  20  24
ATOM     21  C   UNL     1       6.161 -17.049 -12.203  0.00  0.00    +0.000 C 
ATOM     22  C   UNL     1       4.986 -16.502 -11.355  0.00  0.00    +0.000 C 
ATOM     23  C   UNL     1       6.607 -16.510 -13.538  0.00  0.00    +0.000 C 
ATOM     24  C   UNL     1       3.580 -16.646 -11.988  0.00  0.00    +0.000 C 
ATOM     25  C   UNL     1       7.828 -17.258 -14.076  0.00  0.00    +0.000 C 
ATOM     26  C   UNL     1       7.066 -18.096 -11.865  0.00  0.00    +0.000 C 
ATOM     27  C   UNL     1       8.060 -18.201 -12.988  0.00  0.00    +0.000 C 
ATOM     28  C   UNL     1       5.604 -15.855 -14.281  0.00  0.00    +0.000 C 
ATOM     29  C   UNL     1       3.213 -15.815 -13.137  0.00  0.00    +0.000 C 
ATOM     30  C   UNL     1       4.998 -17.255  -9.969  0.00  0.00    +0.000 C 
ATOM     31  C   UNL     1       5.269 -14.997 -11.029  0.00  0.00    +0.000 C 
ATOM     32  C   UNL     1       4.146 -15.595 -14.010  0.00  0.00    +0.000 C 
ATOM     33  C   UNL     1       8.976 -16.319 -14.404  0.00  0.00    +0.000 C 
ATOM     34  C   UNL     1       1.794 -15.579 -13.584  0.00  0.00    +0.000 C 
BRANCH  25  35
ATOM     35  O   UNL     1       7.502 -17.946 -15.259  0.00  0.00    +0.000 OA
ATOM     36  H   UNL     1       6.531 -17.925 -15.218  0.00  0.00    +0.000 HD
ENDBRANCH  25  35
ENDBRANCH  20  24
ENDBRANCH   3  19
TORSDOF 4
ENDMDL
MODEL 8
REMARK VINA RESULT:      -5.6     25.203     28.493
REMARK  Name = 44423609_SipholenoneA.pdbqt.pdb
REMARK  4 active torsions:
REMARK  status: ('A' for Active; 'I' for Inactive)
REMARK    1  A    between atoms: C_3  and  C_19
REMARK    2  A    between atoms: C_5  and  O_17
REMARK    3  A    between atoms: C_20  and  C_24
REMARK    4  A    between atoms: C_25  and  O_35
REMARK                            x       y       z     vdW  Elec       q    Type
REMARK                         _______ _______ _______ _____ _____    ______ ____
ROOT
ATOM      1  O   UNL     1      17.254  -6.403 -17.608  0.00  0.00    +0.000 OA
ATOM      2  O   UNL     1      13.612  -5.750 -17.652  0.00  0.00    +0.000 OA
ATOM      3  C   UNL     1      18.383  -5.902 -13.854  0.00  0.00    +0.000 C 
ATOM      4  C   UNL     1      17.677  -6.549 -15.044  0.00  0.00    +0.000 C 
ATOM      5  C   UNL     1      19.779  -5.325 -14.017  0.00  0.00    +0.000 C 
ATOM      6  C   UNL     1      17.994  -5.991 -16.494  0.00  0.00    +0.000 C 
ATOM      7  C   UNL     1      20.062  -5.170 -15.431  0.00  0.00    +0.000 C 
ATOM      8  C   UNL     1      19.280  -5.445 -16.672  0.00  0.00    +0.000 C 
ATOM      9  C   UNL     1      16.223  -6.325 -14.972  0.00  0.00    +0.000 C 
ATOM     10  C   UNL     1      17.965  -8.077 -15.049  0.00  0.00    +0.000 C 
ATOM     11  C   UNL     1      19.913  -3.995 -13.267  0.00  0.00    +0.000 C 
ATOM     12  C   UNL     1      15.038  -6.049 -15.871  0.00  0.00    +0.000 C 
ATOM     13  C   UNL     1      16.139  -5.582 -18.091  0.00  0.00    +0.000 C 
ATOM     14  C   UNL     1      14.774  -5.804 -17.270  0.00  0.00    +0.000 C 
ATOM     15  C   UNL     1      15.943  -6.013 -19.581  0.00  0.00    +0.000 C 
ATOM     16  C   UNL     1      16.522  -4.055 -18.049  0.00  0.00    +0.000 C 
ENDROOT
BRANCH   5  17
ATOM     17  O   UNL     1      20.720  -6.191 -13.435  0.00  0.00    +0.000 OA
ATOM     18  H   UNL     1      20.433  -6.184 -12.504  0.00  0.00    +0.000 HD
ENDBRANCH   5  17
BRANCH   3  19
ATOM     19  C   UNL     1      17.833  -6.071 -12.533  0.00  0.00    +0.000 C 
ATOM     20  C   UNL     1      17.250  -6.264 -11.131  0.00  0.00    +0.000 C 
BRANCH  20  24
ATOM     21  C   UNL     1      14.327  -5.604  -9.083  0.00  0.00    +0.000 C 
ATOM     22  C   UNL     1      15.856  -5.356  -9.117  0.00  0.00    +0.000 C 
ATOM     23  C   UNL     1      13.635  -6.730  -8.358  0.00  0.00    +0.000 C 
ATOM     24  C   UNL     1      16.696  -6.449  -9.821  0.00  0.00    +0.000 C 
ATOM     25  C   UNL     1      12.114  -6.649  -8.498  0.00  0.00    +0.000 C 
ATOM     26  C   UNL     1      13.301  -4.801  -9.658  0.00  0.00    +0.000 C 
ATOM     27  C   UNL     1      11.988  -5.432  -9.291  0.00  0.00    +0.000 C 
ATOM     28  C   UNL     1      14.421  -7.885  -8.165  0.00  0.00    +0.000 C 
ATOM     29  C   UNL     1      16.864  -7.757  -9.184  0.00  0.00    +0.000 C 
ATOM     30  C   UNL     1      16.106  -3.978  -9.842  0.00  0.00    +0.000 C 
ATOM     31  C   UNL     1      16.360  -5.165  -7.646  0.00  0.00    +0.000 C 
ATOM     32  C   UNL     1      15.833  -8.230  -8.559  0.00  0.00    +0.000 C 
ATOM     33  C   UNL     1      11.416  -6.645  -7.149  0.00  0.00    +0.000 C 
ATOM     34  C   UNL     1      17.944  -8.740  -9.557  0.00  0.00    +0.000 C 
BRANCH  25  35
ATOM     35  O   UNL     1      11.626  -7.755  -9.216  0.00  0.00    +0.000 OA
ATOM     36  H   UNL     1      11.790  -8.471  -8.578  0.00  0.00    +0.000 HD
ENDBRANCH  25  35
ENDBRANCH  20  24
ENDBRANCH   3  19
TORSDOF 4
ENDMDL
MODEL 9
REMARK VINA RESULT:      -5.5      8.302     12.716
REMARK  Name = 44423609_SipholenoneA.pdbqt.pdb
REMARK  4 active torsions:
REMARK  status: ('A' for Active; 'I' for Inactive)
REMARK    1  A    between atoms: C_3  and  C_19
REMARK    2  A    between atoms: C_5  and  O_17
REMARK    3  A    between atoms: C_20  and  C_24
REMARK    4  A    between atoms: C_25  and  O_35
REMARK                            x       y       z     vdW  Elec       q    Type
REMARK                         _______ _______ _______ _____ _____    ______ ____
ROOT
ATOM      1  O   UNL     1     -11.341  14.061 -24.614  0.00  0.00    +0.000 OA
ATOM      2  O   UNL     1      -8.200  14.022 -26.571  0.00  0.00    +0.000 OA
ATOM      3  C   UNL     1     -10.237  14.360 -20.832  0.00  0.00    +0.000 C 
ATOM      4  C   UNL     1     -10.436  14.788 -22.285  0.00  0.00    +0.000 C 
ATOM      5  C   UNL     1     -11.303  13.541 -20.124  0.00  0.00    +0.000 C 
ATOM      6  C   UNL     1     -11.272  13.834 -23.235  0.00  0.00    +0.000 C 
ATOM      7  C   UNL     1     -12.204  12.986 -21.115  0.00  0.00    +0.000 C 
ATOM      8  C   UNL     1     -12.265  13.057 -22.604  0.00  0.00    +0.000 C 
ATOM      9  C   UNL     1      -9.148  14.830 -22.996  0.00  0.00    +0.000 C 
ATOM     10  C   UNL     1     -11.096  16.195 -22.325  0.00  0.00    +0.000 C 
ATOM     11  C   UNL     1     -10.669  12.445 -19.262  0.00  0.00    +0.000 C 
ATOM     12  C   UNL     1      -8.554  14.530 -24.356  0.00  0.00    +0.000 C 
ATOM     13  C   UNL     1     -10.445  13.337 -25.522  0.00  0.00    +0.000 C 
ATOM     14  C   UNL     1      -8.975  13.981 -25.623  0.00  0.00    +0.000 C 
ATOM     15  C   UNL     1     -11.153  13.398 -26.914  0.00  0.00    +0.000 C 
ATOM     16  C   UNL     1     -10.316  11.831 -25.081  0.00  0.00    +0.000 C 
ENDROOT
BRANCH   5  17
ATOM     17  O   UNL     1     -12.020  14.363 -19.237  0.00  0.00    +0.000 OA
ATOM     18  H   UNL     1     -11.301  14.895 -18.851  0.00  0.00    +0.000 HD
ENDBRANCH   5  17
BRANCH   3  19
ATOM     19  C   UNL     1      -9.169  14.950 -20.066  0.00  0.00    +0.000 C 
ATOM     20  C   UNL     1      -8.034  15.586 -19.259  0.00  0.00    +0.000 C 
BRANCH  20  24
ATOM     21  C   UNL     1      -7.268  17.419 -16.222  0.00  0.00    +0.000 C 
ATOM     22  C   UNL     1      -7.129  17.525 -17.761  0.00  0.00    +0.000 C 
ATOM     23  C   UNL     1      -6.208  16.917 -15.276  0.00  0.00    +0.000 C 
ATOM     24  C   UNL     1      -6.963  16.182 -18.512  0.00  0.00    +0.000 C 
ATOM     25  C   UNL     1      -6.664  16.989 -13.817  0.00  0.00    +0.000 C 
ATOM     26  C   UNL     1      -8.370  17.827 -15.416  0.00  0.00    +0.000 C 
ATOM     27  C   UNL     1      -7.989  17.574 -13.985  0.00  0.00    +0.000 C 
ATOM     28  C   UNL     1      -5.281  16.018 -15.844  0.00  0.00    +0.000 C 
ATOM     29  C   UNL     1      -5.711  15.433 -18.393  0.00  0.00    +0.000 C 
ATOM     30  C   UNL     1      -8.411  18.261 -18.312  0.00  0.00    +0.000 C 
ATOM     31  C   UNL     1      -5.920  18.467 -18.085  0.00  0.00    +0.000 C 
ATOM     32  C   UNL     1      -5.146  15.439 -17.226  0.00  0.00    +0.000 C 
ATOM     33  C   UNL     1      -5.691  17.772 -12.952  0.00  0.00    +0.000 C 
ATOM     34  C   UNL     1      -5.284  14.351 -19.351  0.00  0.00    +0.000 C 
BRANCH  25  35
ATOM     35  O   UNL     1      -6.763  15.698 -13.268  0.00  0.00    +0.000 OA
ATOM     36  H   UNL     1      -6.654  15.153 -14.067  0.00  0.00    +0.000 HD
ENDBRANCH  25  35
ENDBRANCH  20  24
ENDBRANCH   3  19
TORSDOF 4
ENDMDL
