MODEL 1
REMARK VINA RESULT:      -5.7      0.000      0.000
REMARK  Name = 445154_Resveratrol.pdbqt.pdb
REMARK  5 active torsions:
REMARK  status: ('A' for Active; 'I' for Inactive)
REMARK    1  A    between atoms: C_1  and  C_11
REMARK    2  A    between atoms: C_4  and  O_7
REMARK    3  A    between atoms: C_5  and  O_9
REMARK    4  A    between atoms: C_12  and  C_13
REMARK    5  A    between atoms: C_18  and  O_19
REMARK                            x       y       z     vdW  Elec       q    Type
REMARK                         _______ _______ _______ _____ _____    ______ ____
ROOT
ATOM      1  C   UNL     1      -8.474  -2.742  -1.344  0.00  0.00    +0.000 A 
ATOM      2  C   UNL     1      -9.353  -3.536  -0.610  0.00  0.00    +0.000 A 
ATOM      3  C   UNL     1      -8.597  -2.654  -2.730  0.00  0.00    +0.000 A 
ATOM      4  C   UNL     1      -9.606  -3.365  -3.374  0.00  0.00    +0.000 A 
ATOM      5  C   UNL     1     -10.355  -4.239  -1.272  0.00  0.00    +0.000 A 
ATOM      6  C   UNL     1     -10.491  -4.161  -2.654  0.00  0.00    +0.000 A 
ENDROOT
BRANCH   4   7
ATOM      7  O   UNL     1      -9.751  -3.298  -4.729  0.00  0.00    +0.000 OA
ATOM      8  H   UNL     1      -8.909  -3.565  -5.138  0.00  0.00    +0.000 HD
ENDBRANCH   4   7
BRANCH   5   9
ATOM      9  O   UNL     1     -11.205  -5.010  -0.533  0.00  0.00    +0.000 OA
ATOM     10  H   UNL     1     -10.667  -5.611   0.013  0.00  0.00    +0.000 HD
ENDBRANCH   5   9
BRANCH   1  11
ATOM     11  C   UNL     1      -7.443  -2.017  -0.676  0.00  0.00    +0.000 C 
ATOM     12  C   UNL     1      -6.574  -1.406  -0.114  0.00  0.00    +0.000 C 
BRANCH  12  13
ATOM     13  C   UNL     1      -5.543  -0.682   0.554  0.00  0.00    +0.000 A 
ATOM     14  C   UNL     1      -4.286  -1.262   0.726  0.00  0.00    +0.000 A 
ATOM     15  C   UNL     1      -5.793   0.603   1.033  0.00  0.00    +0.000 A 
ATOM     16  C   UNL     1      -3.278  -0.557   1.377  0.00  0.00    +0.000 A 
ATOM     17  C   UNL     1      -4.788   1.311   1.685  0.00  0.00    +0.000 A 
ATOM     18  C   UNL     1      -3.537   0.725   1.852  0.00  0.00    +0.000 A 
BRANCH  18  19
ATOM     19  O   UNL     1      -2.568   1.438   2.494  0.00  0.00    +0.000 OA
ATOM     20  H   UNL     1      -2.824   2.377   2.487  0.00  0.00    +0.000 HD
ENDBRANCH  18  19
ENDBRANCH  12  13
ENDBRANCH   1  11
TORSDOF 5
ENDMDL
MODEL 2
REMARK VINA RESULT:      -5.1     24.171     26.761
REMARK  Name = 445154_Resveratrol.pdbqt.pdb
REMARK  5 active torsions:
REMARK  status: ('A' for Active; 'I' for Inactive)
REMARK    1  A    between atoms: C_1  and  C_11
REMARK    2  A    between atoms: C_4  and  O_7
REMARK    3  A    between atoms: C_5  and  O_9
REMARK    4  A    between atoms: C_12  and  C_13
REMARK    5  A    between atoms: C_18  and  O_19
REMARK                            x       y       z     vdW  Elec       q    Type
REMARK                         _______ _______ _______ _____ _____    ______ ____
ROOT
ATOM      1  C   UNL     1      10.876  10.126 -12.556  0.00  0.00    +0.000 A 
ATOM      2  C   UNL     1      11.085  11.219 -11.716  0.00  0.00    +0.000 A 
ATOM      3  C   UNL     1      10.332   8.946 -12.050  0.00  0.00    +0.000 A 
ATOM      4  C   UNL     1       9.999   8.869 -10.700  0.00  0.00    +0.000 A 
ATOM      5  C   UNL     1      10.746  11.122 -10.371  0.00  0.00    +0.000 A 
ATOM      6  C   UNL     1      10.202   9.952  -9.851  0.00  0.00    +0.000 A 
ENDROOT
BRANCH   4   7
ATOM      7  O   UNL     1       9.465   7.727 -10.178  0.00  0.00    +0.000 OA
ATOM      8  H   UNL     1       8.616   7.557 -10.624  0.00  0.00    +0.000 HD
ENDBRANCH   4   7
BRANCH   5   9
ATOM      9  O   UNL     1      10.960  12.205  -9.567  0.00  0.00    +0.000 OA
ATOM     10  H   UNL     1      11.688  11.987  -8.957  0.00  0.00    +0.000 HD
ENDBRANCH   5   9
BRANCH   1  11
ATOM     11  C   UNL     1      11.219  10.213 -13.938  0.00  0.00    +0.000 C 
ATOM     12  C   UNL     1      11.509  10.285 -15.102  0.00  0.00    +0.000 C 
BRANCH  12  13
ATOM     13  C   UNL     1      11.852  10.372 -16.483  0.00  0.00    +0.000 A 
ATOM     14  C   UNL     1      10.846  10.381 -17.449  0.00  0.00    +0.000 A 
ATOM     15  C   UNL     1      13.191  10.446 -16.864  0.00  0.00    +0.000 A 
ATOM     16  C   UNL     1      11.178  10.465 -18.798  0.00  0.00    +0.000 A 
ATOM     17  C   UNL     1      13.528  10.530 -18.212  0.00  0.00    +0.000 A 
ATOM     18  C   UNL     1      12.518  10.539 -19.169  0.00  0.00    +0.000 A 
BRANCH  18  19
ATOM     19  O   UNL     1      12.872  10.622 -20.484  0.00  0.00    +0.000 OA
ATOM     20  H   UNL     1      12.510   9.847 -20.948  0.00  0.00    +0.000 HD
ENDBRANCH  18  19
ENDBRANCH  12  13
ENDBRANCH   1  11
TORSDOF 5
ENDMDL
MODEL 3
REMARK VINA RESULT:      -5.1     24.193     26.746
REMARK  Name = 445154_Resveratrol.pdbqt.pdb
REMARK  5 active torsions:
REMARK  status: ('A' for Active; 'I' for Inactive)
REMARK    1  A    between atoms: C_1  and  C_11
REMARK    2  A    between atoms: C_4  and  O_7
REMARK    3  A    between atoms: C_5  and  O_9
REMARK    4  A    between atoms: C_12  and  C_13
REMARK    5  A    between atoms: C_18  and  O_19
REMARK                            x       y       z     vdW  Elec       q    Type
REMARK                         _______ _______ _______ _____ _____    ______ ____
ROOT
ATOM      1  C   UNL     1      10.894  10.141 -12.567  0.00  0.00    +0.000 A 
ATOM      2  C   UNL     1      10.345   8.965 -12.057  0.00  0.00    +0.000 A 
ATOM      3  C   UNL     1      11.106  11.237 -11.732  0.00  0.00    +0.000 A 
ATOM      4  C   UNL     1      10.766  11.146 -10.384  0.00  0.00    +0.000 A 
ATOM      5  C   UNL     1      10.012   8.896 -10.708  0.00  0.00    +0.000 A 
ATOM      6  C   UNL     1      10.219   9.980  -9.861  0.00  0.00    +0.000 A 
ENDROOT
BRANCH   4   7
ATOM      7  O   UNL     1      10.964  12.203  -9.543  0.00  0.00    +0.000 OA
ATOM      8  H   UNL     1      10.116  12.671  -9.440  0.00  0.00    +0.000 HD
ENDBRANCH   4   7
BRANCH   5   9
ATOM      9  O   UNL     1       9.476   7.734 -10.230  0.00  0.00    +0.000 OA
ATOM     10  H   UNL     1       8.542   7.700 -10.503  0.00  0.00    +0.000 HD
ENDBRANCH   5   9
BRANCH   1  11
ATOM     11  C   UNL     1      11.238  10.225 -13.949  0.00  0.00    +0.000 C 
ATOM     12  C   UNL     1      11.529  10.296 -15.112  0.00  0.00    +0.000 C 
BRANCH  12  13
ATOM     13  C   UNL     1      11.874  10.379 -16.493  0.00  0.00    +0.000 A 
ATOM     14  C   UNL     1      13.214  10.451 -16.872  0.00  0.00    +0.000 A 
ATOM     15  C   UNL     1      10.871  10.388 -17.462  0.00  0.00    +0.000 A 
ATOM     16  C   UNL     1      13.554  10.532 -18.219  0.00  0.00    +0.000 A 
ATOM     17  C   UNL     1      11.206  10.469 -18.810  0.00  0.00    +0.000 A 
ATOM     18  C   UNL     1      12.545  10.541 -19.179  0.00  0.00    +0.000 A 
BRANCH  18  19
ATOM     19  O   UNL     1      12.849  10.620 -20.507  0.00  0.00    +0.000 OA
ATOM     20  H   UNL     1      12.942   9.715 -20.852  0.00  0.00    +0.000 HD
ENDBRANCH  18  19
ENDBRANCH  12  13
ENDBRANCH   1  11
TORSDOF 5
ENDMDL
MODEL 4
REMARK VINA RESULT:      -5.0     22.056     22.979
REMARK  Name = 445154_Resveratrol.pdbqt.pdb
REMARK  5 active torsions:
REMARK  status: ('A' for Active; 'I' for Inactive)
REMARK    1  A    between atoms: C_1  and  C_11
REMARK    2  A    between atoms: C_4  and  O_7
REMARK    3  A    between atoms: C_5  and  O_9
REMARK    4  A    between atoms: C_12  and  C_13
REMARK    5  A    between atoms: C_18  and  O_19
REMARK                            x       y       z     vdW  Elec       q    Type
REMARK                         _______ _______ _______ _____ _____    ______ ____
ROOT
ATOM      1  C   UNL     1       4.355   0.337 -18.728  0.00  0.00    +0.000 A 
ATOM      2  C   UNL     1       3.322   1.179 -19.139  0.00  0.00    +0.000 A 
ATOM      3  C   UNL     1       4.069  -0.936 -18.235  0.00  0.00    +0.000 A 
ATOM      4  C   UNL     1       2.745  -1.359 -18.158  0.00  0.00    +0.000 A 
ATOM      5  C   UNL     1       2.005   0.737 -19.053  0.00  0.00    +0.000 A 
ATOM      6  C   UNL     1       1.704  -0.530 -18.565  0.00  0.00    +0.000 A 
ENDROOT
BRANCH   4   7
ATOM      7  O   UNL     1       2.436  -2.599 -17.681  0.00  0.00    +0.000 OA
ATOM      8  H   UNL     1       3.124  -3.220 -17.980  0.00  0.00    +0.000 HD
ENDBRANCH   4   7
BRANCH   5   9
ATOM      9  O   UNL     1       1.010   1.578 -19.461  0.00  0.00    +0.000 OA
ATOM     10  H   UNL     1       0.259   1.473 -18.851  0.00  0.00    +0.000 HD
ENDBRANCH   5   9
BRANCH   1  11
ATOM     11  C   UNL     1       5.709   0.778 -18.810  0.00  0.00    +0.000 C 
ATOM     12  C   UNL     1       6.849   1.150 -18.879  0.00  0.00    +0.000 C 
BRANCH  12  13
ATOM     13  C   UNL     1       8.203   1.591 -18.960  0.00  0.00    +0.000 A 
ATOM     14  C   UNL     1       9.035   1.490 -17.845  0.00  0.00    +0.000 A 
ATOM     15  C   UNL     1       8.691   2.121 -20.154  0.00  0.00    +0.000 A 
ATOM     16  C   UNL     1      10.356   1.918 -17.922  0.00  0.00    +0.000 A 
ATOM     17  C   UNL     1      10.013   2.552 -20.235  0.00  0.00    +0.000 A 
ATOM     18  C   UNL     1      10.835   2.447 -19.117  0.00  0.00    +0.000 A 
BRANCH  18  19
ATOM     19  O   UNL     1      12.127   2.876 -19.221  0.00  0.00    +0.000 OA
ATOM     20  H   UNL     1      12.672   2.130 -19.525  0.00  0.00    +0.000 HD
ENDBRANCH  18  19
ENDBRANCH  12  13
ENDBRANCH   1  11
TORSDOF 5
ENDMDL
MODEL 5
REMARK VINA RESULT:      -5.0     18.391     20.980
REMARK  Name = 445154_Resveratrol.pdbqt.pdb
REMARK  5 active torsions:
REMARK  status: ('A' for Active; 'I' for Inactive)
REMARK    1  A    between atoms: C_1  and  C_11
REMARK    2  A    between atoms: C_4  and  O_7
REMARK    3  A    between atoms: C_5  and  O_9
REMARK    4  A    between atoms: C_12  and  C_13
REMARK    5  A    between atoms: C_18  and  O_19
REMARK                            x       y       z     vdW  Elec       q    Type
REMARK                         _______ _______ _______ _____ _____    ______ ____
ROOT
ATOM      1  C   UNL     1      10.830  -6.556  -5.823  0.00  0.00    +0.000 A 
ATOM      2  C   UNL     1      11.037  -6.311  -7.180  0.00  0.00    +0.000 A 
ATOM      3  C   UNL     1      10.025  -5.702  -5.070  0.00  0.00    +0.000 A 
ATOM      4  C   UNL     1       9.430  -4.603  -5.685  0.00  0.00    +0.000 A 
ATOM      5  C   UNL     1      10.434  -5.207  -7.775  0.00  0.00    +0.000 A 
ATOM      6  C   UNL     1       9.628  -4.346  -7.037  0.00  0.00    +0.000 A 
ENDROOT
BRANCH   4   7
ATOM      7  O   UNL     1       8.637  -3.750  -4.973  0.00  0.00    +0.000 OA
ATOM      8  H   UNL     1       8.610  -2.898  -5.443  0.00  0.00    +0.000 HD
ENDBRANCH   4   7
BRANCH   5   9
ATOM      9  O   UNL     1      10.651  -4.987  -9.105  0.00  0.00    +0.000 OA
ATOM     10  H   UNL     1      10.265  -5.732  -9.599  0.00  0.00    +0.000 HD
ENDBRANCH   5   9
BRANCH   1  11
ATOM     11  C   UNL     1      11.443  -7.684  -5.201  0.00  0.00    +0.000 C 
ATOM     12  C   UNL     1      11.959  -8.634  -4.678  0.00  0.00    +0.000 C 
BRANCH  12  13
ATOM     13  C   UNL     1      12.573  -9.761  -4.057  0.00  0.00    +0.000 A 
ATOM     14  C   UNL     1      13.722  -9.589  -3.284  0.00  0.00    +0.000 A 
ATOM     15  C   UNL     1      12.024 -11.033  -4.224  0.00  0.00    +0.000 A 
ATOM     16  C   UNL     1      14.322 -10.688  -2.676  0.00  0.00    +0.000 A 
ATOM     17  C   UNL     1      12.623 -12.134  -3.618  0.00  0.00    +0.000 A 
ATOM     18  C   UNL     1      13.768 -11.953  -2.849  0.00  0.00    +0.000 A 
BRANCH  18  19
ATOM     19  O   UNL     1      14.336 -13.047  -2.265  0.00  0.00    +0.000 OA
ATOM     20  H   UNL     1      13.743 -13.807  -2.400  0.00  0.00    +0.000 HD
ENDBRANCH  18  19
ENDBRANCH  12  13
ENDBRANCH   1  11
TORSDOF 5
ENDMDL
MODEL 6
REMARK VINA RESULT:      -5.0     14.062     15.364
REMARK  Name = 445154_Resveratrol.pdbqt.pdb
REMARK  5 active torsions:
REMARK  status: ('A' for Active; 'I' for Inactive)
REMARK    1  A    between atoms: C_1  and  C_11
REMARK    2  A    between atoms: C_4  and  O_7
REMARK    3  A    between atoms: C_5  and  O_9
REMARK    4  A    between atoms: C_12  and  C_13
REMARK    5  A    between atoms: C_18  and  O_19
REMARK                            x       y       z     vdW  Elec       q    Type
REMARK                         _______ _______ _______ _____ _____    ______ ____
ROOT
ATOM      1  C   UNL     1     -11.936   7.512  -8.624  0.00  0.00    +0.000 A 
ATOM      2  C   UNL     1     -11.972   7.023  -9.929  0.00  0.00    +0.000 A 
ATOM      3  C   UNL     1     -11.254   6.809  -7.631  0.00  0.00    +0.000 A 
ATOM      4  C   UNL     1     -10.611   5.618  -7.954  0.00  0.00    +0.000 A 
ATOM      5  C   UNL     1     -11.323   5.831 -10.231  0.00  0.00    +0.000 A 
ATOM      6  C   UNL     1     -10.638   5.119  -9.252  0.00  0.00    +0.000 A 
ENDROOT
BRANCH   4   7
ATOM      7  O   UNL     1      -9.935   4.910  -7.002  0.00  0.00    +0.000 OA
ATOM      8  H   UNL     1     -10.111   5.320  -6.137  0.00  0.00    +0.000 HD
ENDBRANCH   4   7
BRANCH   5   9
ATOM      9  O   UNL     1     -11.372   5.372 -11.517  0.00  0.00    +0.000 OA
ATOM     10  H   UNL     1     -11.775   6.066 -12.068  0.00  0.00    +0.000 HD
ENDBRANCH   5   9
BRANCH   1  11
ATOM     11  C   UNL     1     -12.598   8.733  -8.301  0.00  0.00    +0.000 C 
ATOM     12  C   UNL     1     -13.156   9.761  -8.029  0.00  0.00    +0.000 C 
BRANCH  12  13
ATOM     13  C   UNL     1     -13.818  10.983  -7.706  0.00  0.00    +0.000 A 
ATOM     14  C   UNL     1     -13.220  12.202  -8.024  0.00  0.00    +0.000 A 
ATOM     15  C   UNL     1     -15.061  10.955  -7.074  0.00  0.00    +0.000 A 
ATOM     16  C   UNL     1     -13.864  13.395  -7.710  0.00  0.00    +0.000 A 
ATOM     17  C   UNL     1     -15.708  12.146  -6.758  0.00  0.00    +0.000 A 
ATOM     18  C   UNL     1     -15.103  13.358  -7.079  0.00  0.00    +0.000 A 
BRANCH  18  19
ATOM     19  O   UNL     1     -15.757  14.512  -6.760  0.00  0.00    +0.000 OA
ATOM     20  H   UNL     1     -16.706  14.313  -6.678  0.00  0.00    +0.000 HD
ENDBRANCH  18  19
ENDBRANCH  12  13
ENDBRANCH   1  11
TORSDOF 5
ENDMDL
MODEL 7
REMARK VINA RESULT:      -5.0     23.745     24.674
REMARK  Name = 445154_Resveratrol.pdbqt.pdb
REMARK  5 active torsions:
REMARK  status: ('A' for Active; 'I' for Inactive)
REMARK    1  A    between atoms: C_1  and  C_11
REMARK    2  A    between atoms: C_4  and  O_7
REMARK    3  A    between atoms: C_5  and  O_9
REMARK    4  A    between atoms: C_12  and  C_13
REMARK    5  A    between atoms: C_18  and  O_19
REMARK                            x       y       z     vdW  Elec       q    Type
REMARK                         _______ _______ _______ _____ _____    ______ ____
ROOT
ATOM      1  C   UNL     1       6.293   0.938 -18.911  0.00  0.00    +0.000 A 
ATOM      2  C   UNL     1       5.492   1.904 -18.304  0.00  0.00    +0.000 A 
ATOM      3  C   UNL     1       5.786  -0.337 -19.161  0.00  0.00    +0.000 A 
ATOM      4  C   UNL     1       4.475  -0.636 -18.799  0.00  0.00    +0.000 A 
ATOM      5  C   UNL     1       4.185   1.585 -17.949  0.00  0.00    +0.000 A 
ATOM      6  C   UNL     1       3.665   0.318 -18.192  0.00  0.00    +0.000 A 
ENDROOT
BRANCH   4   7
ATOM      7  O   UNL     1       3.953  -1.875 -19.031  0.00  0.00    +0.000 OA
ATOM      8  H   UNL     1       4.352  -2.497 -18.397  0.00  0.00    +0.000 HD
ENDBRANCH   4   7
BRANCH   5   9
ATOM      9  O   UNL     1       3.420   2.548 -17.356  0.00  0.00    +0.000 OA
ATOM     10  H   UNL     1       2.513   2.202 -17.274  0.00  0.00    +0.000 HD
ENDBRANCH   5   9
BRANCH   1  11
ATOM     11  C   UNL     1       7.634   1.252 -19.279  0.00  0.00    +0.000 C 
ATOM     12  C   UNL     1       8.765   1.516 -19.588  0.00  0.00    +0.000 C 
BRANCH  12  13
ATOM     13  C   UNL     1      10.107   1.829 -19.955  0.00  0.00    +0.000 A 
ATOM     14  C   UNL     1      10.371   2.400 -21.200  0.00  0.00    +0.000 A 
ATOM     15  C   UNL     1      11.151   1.565 -19.070  0.00  0.00    +0.000 A 
ATOM     16  C   UNL     1      11.679   2.707 -21.561  0.00  0.00    +0.000 A 
ATOM     17  C   UNL     1      12.461   1.870 -19.427  0.00  0.00    +0.000 A 
ATOM     18  C   UNL     1      12.715   2.439 -20.671  0.00  0.00    +0.000 A 
BRANCH  18  19
ATOM     19  O   UNL     1      14.007   2.729 -20.999  0.00  0.00    +0.000 OA
ATOM     20  H   UNL     1      14.052   2.880 -21.959  0.00  0.00    +0.000 HD
ENDBRANCH  18  19
ENDBRANCH  12  13
ENDBRANCH   1  11
TORSDOF 5
ENDMDL
MODEL 8
REMARK VINA RESULT:      -4.9     18.119     20.654
REMARK  Name = 445154_Resveratrol.pdbqt.pdb
REMARK  5 active torsions:
REMARK  status: ('A' for Active; 'I' for Inactive)
REMARK    1  A    between atoms: C_1  and  C_11
REMARK    2  A    between atoms: C_4  and  O_7
REMARK    3  A    between atoms: C_5  and  O_9
REMARK    4  A    between atoms: C_12  and  C_13
REMARK    5  A    between atoms: C_18  and  O_19
REMARK                            x       y       z     vdW  Elec       q    Type
REMARK                         _______ _______ _______ _____ _____    ______ ____
ROOT
ATOM      1  C   UNL     1      10.735  -6.526  -5.654  0.00  0.00    +0.000 A 
ATOM      2  C   UNL     1       9.927  -5.603  -4.991  0.00  0.00    +0.000 A 
ATOM      3  C   UNL     1      11.015  -6.367  -7.011  0.00  0.00    +0.000 A 
ATOM      4  C   UNL     1      10.481  -5.279  -7.697  0.00  0.00    +0.000 A 
ATOM      5  C   UNL     1       9.403  -4.524  -5.695  0.00  0.00    +0.000 A 
ATOM      6  C   UNL     1       9.673  -4.350  -7.049  0.00  0.00    +0.000 A 
ENDROOT
BRANCH   4   7
ATOM      7  O   UNL     1      10.738  -5.097  -9.025  0.00  0.00    +0.000 OA
ATOM      8  H   UNL     1      11.650  -5.391  -9.201  0.00  0.00    +0.000 HD
ENDBRANCH   4   7
BRANCH   5   9
ATOM      9  O   UNL     1       8.614  -3.633  -5.025  0.00  0.00    +0.000 OA
ATOM     10  H   UNL     1       9.193  -2.950  -4.640  0.00  0.00    +0.000 HD
ENDBRANCH   5   9
BRANCH   1  11
ATOM     11  C   UNL     1      11.278  -7.638  -4.945  0.00  0.00    +0.000 C 
ATOM     12  C   UNL     1      11.735  -8.574  -4.347  0.00  0.00    +0.000 C 
BRANCH  12  13
ATOM     13  C   UNL     1      12.278  -9.685  -3.636  0.00  0.00    +0.000 A 
ATOM     14  C   UNL     1      12.306 -10.945  -4.233  0.00  0.00    +0.000 A 
ATOM     15  C   UNL     1      12.779  -9.509  -2.347  0.00  0.00    +0.000 A 
ATOM     16  C   UNL     1      12.835 -12.031  -3.542  0.00  0.00    +0.000 A 
ATOM     17  C   UNL     1      13.309 -10.592  -1.652  0.00  0.00    +0.000 A 
ATOM     18  C   UNL     1      13.332 -11.846  -2.255  0.00  0.00    +0.000 A 
BRANCH  18  19
ATOM     19  O   UNL     1      13.857 -12.892  -1.555  0.00  0.00    +0.000 OA
ATOM     20  H   UNL     1      14.760 -13.054  -1.878  0.00  0.00    +0.000 HD
ENDBRANCH  18  19
ENDBRANCH  12  13
ENDBRANCH   1  11
TORSDOF 5
ENDMDL
MODEL 9
REMARK VINA RESULT:      -4.9     18.644     20.087
REMARK  Name = 445154_Resveratrol.pdbqt.pdb
REMARK  5 active torsions:
REMARK  status: ('A' for Active; 'I' for Inactive)
REMARK    1  A    between atoms: C_1  and  C_11
REMARK    2  A    between atoms: C_4  and  O_7
REMARK    3  A    between atoms: C_5  and  O_9
REMARK    4  A    between atoms: C_12  and  C_13
REMARK    5  A    between atoms: C_18  and  O_19
REMARK                            x       y       z     vdW  Elec       q    Type
REMARK                         _______ _______ _______ _____ _____    ______ ____
ROOT
ATOM      1  C   UNL     1      -1.538  -0.941 -18.726  0.00  0.00    +0.000 A 
ATOM      2  C   UNL     1      -2.311  -2.085 -18.922  0.00  0.00    +0.000 A 
ATOM      3  C   UNL     1      -2.151   0.281 -18.452  0.00  0.00    +0.000 A 
ATOM      4  C   UNL     1      -3.539   0.350 -18.375  0.00  0.00    +0.000 A 
ATOM      5  C   UNL     1      -3.698  -1.995 -18.842  0.00  0.00    +0.000 A 
ATOM      6  C   UNL     1      -4.323  -0.783 -18.568  0.00  0.00    +0.000 A 
ENDROOT
BRANCH   4   7
ATOM      7  O   UNL     1      -4.165   1.533 -18.108  0.00  0.00    +0.000 OA
ATOM      8  H   UNL     1      -4.816   1.698 -18.814  0.00  0.00    +0.000 HD
ENDBRANCH   4   7
BRANCH   5   9
ATOM      9  O   UNL     1      -4.434  -3.128 -19.038  0.00  0.00    +0.000 OA
ATOM     10  H   UNL     1      -5.180  -2.904 -19.622  0.00  0.00    +0.000 HD
ENDBRANCH   5   9
BRANCH   1  11
ATOM     11  C   UNL     1      -0.117  -1.020 -18.806  0.00  0.00    +0.000 C 
ATOM     12  C   UNL     1       1.081  -1.086 -18.873  0.00  0.00    +0.000 C 
BRANCH  12  13
ATOM     13  C   UNL     1       2.503  -1.165 -18.953  0.00  0.00    +0.000 A 
ATOM     14  C   UNL     1       3.193  -2.087 -18.166  0.00  0.00    +0.000 A 
ATOM     15  C   UNL     1       3.199  -0.320 -19.817  0.00  0.00    +0.000 A 
ATOM     16  C   UNL     1       4.580  -2.166 -18.242  0.00  0.00    +0.000 A 
ATOM     17  C   UNL     1       4.587  -0.396 -19.896  0.00  0.00    +0.000 A 
ATOM     18  C   UNL     1       5.267  -1.319 -19.107  0.00  0.00    +0.000 A 
BRANCH  18  19
ATOM     19  O   UNL     1       6.627  -1.375 -19.202  0.00  0.00    +0.000 OA
ATOM     20  H   UNL     1       6.899  -0.868 -19.986  0.00  0.00    +0.000 HD
ENDBRANCH  18  19
ENDBRANCH  12  13
ENDBRANCH   1  11
TORSDOF 5
ENDMDL
