MODEL 1
REMARK VINA RESULT:      -6.7      0.000      0.000
REMARK  Name = 448438_Violaxanthin.pdbqt.pdb
REMARK  16 active torsions:
REMARK  status: ('A' for Active; 'I' for Inactive)
REMARK    1  A    between atoms: C_1  and  C_5
REMARK    2  A    between atoms: C_2  and  C_27
REMARK    3  A    between atoms: C_3  and  C_5
REMARK    4  A    between atoms: C_3  and  C_7
REMARK    5  A    between atoms: C_6  and  C_10
REMARK    6  A    between atoms: C_8  and  C_10
REMARK    7  A    between atoms: C_8  and  C_12
REMARK    8  A    between atoms: C_11  and  C_14
REMARK    9  A    between atoms: C_19  and  O_23
REMARK   10  A    between atoms: C_25  and  C_27
REMARK   11  A    between atoms: C_25  and  C_29
REMARK   12  A    between atoms: C_28  and  C_32
REMARK   13  A    between atoms: C_30  and  C_32
REMARK   14  A    between atoms: C_30  and  C_34
REMARK   15  A    between atoms: C_33  and  C_36
REMARK   16  A    between atoms: C_41  and  O_45
REMARK                            x       y       z     vdW  Elec       q    Type
REMARK                         _______ _______ _______ _____ _____    ______ ____
ROOT
ATOM      1  C   UNL     1     -13.140   2.979  -0.113  0.00  0.00    +0.000 C 
ATOM      2  C   UNL     1     -13.308   4.166  -0.159  0.00  0.00    +0.000 C 
ENDROOT
BRANCH   2   3
ATOM      3  C   UNL     1     -13.523   5.682  -0.220  0.00  0.00    +0.000 C 
BRANCH   3   4
ATOM      4  C   UNL     1     -13.706   6.964  -0.274  0.00  0.00    +0.000 C 
ATOM      5  C   UNL     1     -14.301   7.682   0.900  0.00  0.00    +0.000 C 
BRANCH   4   7
ATOM      6  C   UNL     1     -13.156   8.274  -2.471  0.00  0.00    +0.000 C 
ATOM      7  C   UNL     1     -13.409   7.672  -1.462  0.00  0.00    +0.000 C 
BRANCH   6   8
ATOM      8  C   UNL     1     -12.835   9.043  -3.758  0.00  0.00    +0.000 C 
BRANCH   8   9
ATOM      9  C   UNL     1     -12.567   9.693  -4.848  0.00  0.00    +0.000 C 
ATOM     10  C   UNL     1     -12.262  11.158  -4.788  0.00  0.00    +0.000 C 
BRANCH   9  12
ATOM     11  C   UNL     1     -12.328   8.403  -7.115  0.00  0.00    +0.000 C 
ATOM     12  C   UNL     1     -12.441   8.992  -6.073  0.00  0.00    +0.000 C 
BRANCH  11  14
ATOM     13  O   UNL     1     -10.859   7.987  -8.937  0.00  0.00    +0.000 OA
ATOM     14  C   UNL     1     -12.177   7.709  -8.385  0.00  0.00    +0.000 C 
ATOM     15  C   UNL     1     -11.079   6.635  -8.539  0.00  0.00    +0.000 C 
ATOM     16  C   UNL     1     -13.368   7.691  -9.401  0.00  0.00    +0.000 C 
ATOM     17  C   UNL     1     -11.187   5.756  -9.657  0.00  0.00    +0.000 C 
ATOM     18  C   UNL     1     -13.042   6.709 -10.445  0.00  0.00    +0.000 C 
ATOM     19  C   UNL     1     -12.105   5.693 -10.718  0.00  0.00    +0.000 C 
ATOM     20  C   UNL     1     -10.181   6.188  -7.381  0.00  0.00    +0.000 C 
ATOM     21  C   UNL     1     -14.606   7.227  -8.597  0.00  0.00    +0.000 C 
ATOM     22  C   UNL     1     -13.506   9.129  -9.945  0.00  0.00    +0.000 C 
BRANCH  19  23
ATOM     23  O   UNL     1     -11.714   5.375 -11.983  0.00  0.00    +0.000 OA
ATOM     24  H   UNL     1     -12.455   5.088 -12.546  0.00  0.00    +0.000 HD
ENDBRANCH  19  23
ENDBRANCH  11  14
ENDBRANCH   9  12
ENDBRANCH   8   9
ENDBRANCH   6   8
ENDBRANCH   4   7
ENDBRANCH   3   4
ENDBRANCH   2   3
BRANCH   1  25
ATOM     25  C   UNL     1     -12.925   1.461  -0.053  0.00  0.00    +0.000 C 
BRANCH  25  26
ATOM     26  C   UNL     1     -12.743   0.179  -0.002  0.00  0.00    +0.000 C 
ATOM     27  C   UNL     1     -13.907  -0.730   0.255  0.00  0.00    +0.000 C 
BRANCH  26  29
ATOM     28  C   UNL     1     -10.361  -0.825  -0.396  0.00  0.00    +0.000 C 
ATOM     29  C   UNL     1     -11.454  -0.362  -0.215  0.00  0.00    +0.000 C 
BRANCH  28  30
ATOM     30  C   UNL     1      -8.967  -1.423  -0.626  0.00  0.00    +0.000 C 
BRANCH  30  31
ATOM     31  C   UNL     1      -7.791  -1.931  -0.824  0.00  0.00    +0.000 C 
ATOM     32  C   UNL     1      -7.601  -2.988  -1.869  0.00  0.00    +0.000 C 
BRANCH  31  34
ATOM     33  C   UNL     1      -5.740  -1.044   0.544  0.00  0.00    +0.000 C 
ATOM     34  C   UNL     1      -6.680  -1.453  -0.086  0.00  0.00    +0.000 C 
BRANCH  33  36
ATOM     35  O   UNL     1      -3.913  -1.664   1.938  0.00  0.00    +0.000 OA
ATOM     36  C   UNL     1      -4.607  -0.548   1.311  0.00  0.00    +0.000 C 
ATOM     37  C   UNL     1      -3.177  -0.980   0.925  0.00  0.00    +0.000 C 
ATOM     38  C   UNL     1      -4.777   0.744   2.187  0.00  0.00    +0.000 C 
ATOM     39  C   UNL     1      -2.099  -0.217   1.464  0.00  0.00    +0.000 C 
ATOM     40  C   UNL     1      -3.434   1.169   2.589  0.00  0.00    +0.000 C 
ATOM     41  C   UNL     1      -2.079   0.880   2.341  0.00  0.00    +0.000 C 
ATOM     42  C   UNL     1      -2.855  -1.859  -0.286  0.00  0.00    +0.000 C 
ATOM     43  C   UNL     1      -5.685   0.344   3.372  0.00  0.00    +0.000 C 
ATOM     44  C   UNL     1      -5.438   1.794   1.257  0.00  0.00    +0.000 C 
BRANCH  41  45
ATOM     45  O   UNL     1      -1.145   1.869   2.264  0.00  0.00    +0.000 OA
ATOM     46  H   UNL     1      -0.234   1.523   2.281  0.00  0.00    +0.000 HD
ENDBRANCH  41  45
ENDBRANCH  33  36
ENDBRANCH  31  34
ENDBRANCH  30  31
ENDBRANCH  28  30
ENDBRANCH  26  29
ENDBRANCH  25  26
ENDBRANCH   1  25
TORSDOF 16
ENDMDL
MODEL 2
REMARK VINA RESULT:      -6.4      9.167     18.036
REMARK  Name = 448438_Violaxanthin.pdbqt.pdb
REMARK  16 active torsions:
REMARK  status: ('A' for Active; 'I' for Inactive)
REMARK    1  A    between atoms: C_1  and  C_5
REMARK    2  A    between atoms: C_2  and  C_27
REMARK    3  A    between atoms: C_3  and  C_5
REMARK    4  A    between atoms: C_3  and  C_7
REMARK    5  A    between atoms: C_6  and  C_10
REMARK    6  A    between atoms: C_8  and  C_10
REMARK    7  A    between atoms: C_8  and  C_12
REMARK    8  A    between atoms: C_11  and  C_14
REMARK    9  A    between atoms: C_19  and  O_23
REMARK   10  A    between atoms: C_25  and  C_27
REMARK   11  A    between atoms: C_25  and  C_29
REMARK   12  A    between atoms: C_28  and  C_32
REMARK   13  A    between atoms: C_30  and  C_32
REMARK   14  A    between atoms: C_30  and  C_34
REMARK   15  A    between atoms: C_33  and  C_36
REMARK   16  A    between atoms: C_41  and  O_45
REMARK                            x       y       z     vdW  Elec       q    Type
REMARK                         _______ _______ _______ _____ _____    ______ ____
ROOT
ATOM      1  C   UNL     1     -14.102  12.322 -17.607  0.00  0.00    +0.000 C 
ATOM      2  C   UNL     1     -14.908  12.227 -16.724  0.00  0.00    +0.000 C 
ENDROOT
BRANCH   2   3
ATOM      3  C   UNL     1     -15.939  12.105 -15.596  0.00  0.00    +0.000 C 
BRANCH   3   4
ATOM      4  C   UNL     1     -16.809  12.000 -14.641  0.00  0.00    +0.000 C 
ATOM      5  C   UNL     1     -17.835  13.075 -14.446  0.00  0.00    +0.000 C 
BRANCH   4   7
ATOM      6  C   UNL     1     -16.693   9.981 -12.982  0.00  0.00    +0.000 C 
ATOM      7  C   UNL     1     -16.747  10.909 -13.744  0.00  0.00    +0.000 C 
BRANCH   6   8
ATOM      8  C   UNL     1     -16.626   8.796 -12.010  0.00  0.00    +0.000 C 
BRANCH   8   9
ATOM      9  C   UNL     1     -16.566   7.796 -11.187  0.00  0.00    +0.000 C 
ATOM     10  C   UNL     1     -17.665   6.779 -11.167  0.00  0.00    +0.000 C 
BRANCH   9  12
ATOM     11  C   UNL     1     -14.414   7.437  -9.738  0.00  0.00    +0.000 C 
ATOM     12  C   UNL     1     -15.404   7.600 -10.399  0.00  0.00    +0.000 C 
BRANCH  11  14
ATOM     13  O   UNL     1     -13.004   5.823  -8.709  0.00  0.00    +0.000 OA
ATOM     14  C   UNL     1     -13.201   7.244  -8.957  0.00  0.00    +0.000 C 
ATOM     15  C   UNL     1     -12.031   6.435  -9.556  0.00  0.00    +0.000 C 
ATOM     16  C   UNL     1     -12.891   8.208  -7.763  0.00  0.00    +0.000 C 
ATOM     17  C   UNL     1     -10.763   6.561  -8.914  0.00  0.00    +0.000 C 
ATOM     18  C   UNL     1     -11.505   7.958  -7.344  0.00  0.00    +0.000 C 
ATOM     19  C   UNL     1     -10.353   7.268  -7.772  0.00  0.00    +0.000 C 
ATOM     20  C   UNL     1     -12.040   5.889 -10.987  0.00  0.00    +0.000 C 
ATOM     21  C   UNL     1     -13.030   9.643  -8.327  0.00  0.00    +0.000 C 
ATOM     22  C   UNL     1     -13.924   7.892  -6.660  0.00  0.00    +0.000 C 
BRANCH  19  23
ATOM     23  O   UNL     1      -9.440   6.754  -6.903  0.00  0.00    +0.000 OA
ATOM     24  H   UNL     1      -9.510   5.787  -6.811  0.00  0.00    +0.000 HD
ENDBRANCH  19  23
ENDBRANCH  11  14
ENDBRANCH   9  12
ENDBRANCH   8   9
ENDBRANCH   6   8
ENDBRANCH   4   7
ENDBRANCH   3   4
ENDBRANCH   2   3
BRANCH   1  25
ATOM     25  C   UNL     1     -13.071  12.444 -18.736  0.00  0.00    +0.000 C 
BRANCH  25  26
ATOM     26  C   UNL     1     -12.200  12.547 -19.690  0.00  0.00    +0.000 C 
ATOM     27  C   UNL     1     -12.493  11.954 -21.035  0.00  0.00    +0.000 C 
BRANCH  26  29
ATOM     28  C   UNL     1      -9.958  13.830 -19.278  0.00  0.00    +0.000 C 
ATOM     29  C   UNL     1     -10.987  13.240 -19.469  0.00  0.00    +0.000 C 
BRANCH  28  30
ATOM     30  C   UNL     1      -8.647  14.585 -19.028  0.00  0.00    +0.000 C 
BRANCH  30  31
ATOM     31  C   UNL     1      -7.541  15.228 -18.819  0.00  0.00    +0.000 C 
ATOM     32  C   UNL     1      -6.553  15.398 -19.933  0.00  0.00    +0.000 C 
BRANCH  31  34
ATOM     33  C   UNL     1      -7.072  16.298 -16.474  0.00  0.00    +0.000 C 
ATOM     34  C   UNL     1      -7.289  15.809 -17.551  0.00  0.00    +0.000 C 
BRANCH  33  36
ATOM     35  O   UNL     1      -6.864  15.855 -14.143  0.00  0.00    +0.000 OA
ATOM     36  C   UNL     1      -6.804  16.886 -15.170  0.00  0.00    +0.000 C 
ATOM     37  C   UNL     1      -5.574  16.423 -14.362  0.00  0.00    +0.000 C 
ATOM     38  C   UNL     1      -7.449  18.271 -14.803  0.00  0.00    +0.000 C 
ATOM     39  C   UNL     1      -5.157  17.251 -13.277  0.00  0.00    +0.000 C 
ATOM     40  C   UNL     1      -6.779  18.749 -13.592  0.00  0.00    +0.000 C 
ATOM     41  C   UNL     1      -5.688  18.443 -12.756  0.00  0.00    +0.000 C 
ATOM     42  C   UNL     1      -4.549  15.413 -14.884  0.00  0.00    +0.000 C 
ATOM     43  C   UNL     1      -8.960  18.003 -14.615  0.00  0.00    +0.000 C 
ATOM     44  C   UNL     1      -7.153  19.201 -16.007  0.00  0.00    +0.000 C 
BRANCH  41  45
ATOM     45  O   UNL     1      -4.910  19.423 -12.217  0.00  0.00    +0.000 OA
ATOM     46  H   UNL     1      -4.010  19.112 -12.010  0.00  0.00    +0.000 HD
ENDBRANCH  41  45
ENDBRANCH  33  36
ENDBRANCH  31  34
ENDBRANCH  30  31
ENDBRANCH  28  30
ENDBRANCH  26  29
ENDBRANCH  25  26
ENDBRANCH   1  25
TORSDOF 16
ENDMDL
MODEL 3
REMARK VINA RESULT:      -6.3      7.943     16.575
REMARK  Name = 448438_Violaxanthin.pdbqt.pdb
REMARK  16 active torsions:
REMARK  status: ('A' for Active; 'I' for Inactive)
REMARK    1  A    between atoms: C_1  and  C_5
REMARK    2  A    between atoms: C_2  and  C_27
REMARK    3  A    between atoms: C_3  and  C_5
REMARK    4  A    between atoms: C_3  and  C_7
REMARK    5  A    between atoms: C_6  and  C_10
REMARK    6  A    between atoms: C_8  and  C_10
REMARK    7  A    between atoms: C_8  and  C_12
REMARK    8  A    between atoms: C_11  and  C_14
REMARK    9  A    between atoms: C_19  and  O_23
REMARK   10  A    between atoms: C_25  and  C_27
REMARK   11  A    between atoms: C_25  and  C_29
REMARK   12  A    between atoms: C_28  and  C_32
REMARK   13  A    between atoms: C_30  and  C_32
REMARK   14  A    between atoms: C_30  and  C_34
REMARK   15  A    between atoms: C_33  and  C_36
REMARK   16  A    between atoms: C_41  and  O_45
REMARK                            x       y       z     vdW  Elec       q    Type
REMARK                         _______ _______ _______ _____ _____    ______ ____
ROOT
ATOM      1  C   UNL     1      -1.701   0.823   1.506  0.00  0.00    +0.000 C 
ATOM      2  C   UNL     1      -0.838   1.572   1.142  0.00  0.00    +0.000 C 
ENDROOT
BRANCH   2   3
ATOM      3  C   UNL     1       0.266   2.528   0.674  0.00  0.00    +0.000 C 
BRANCH   3   4
ATOM      4  C   UNL     1       1.200   3.334   0.278  0.00  0.00    +0.000 C 
ATOM      5  C   UNL     1       0.926   4.304  -0.833  0.00  0.00    +0.000 C 
BRANCH   4   7
ATOM      6  C   UNL     1       3.591   3.183   1.326  0.00  0.00    +0.000 C 
ATOM      7  C   UNL     1       2.493   3.252   0.845  0.00  0.00    +0.000 C 
BRANCH   6   8
ATOM      8  C   UNL     1       4.995   3.092   1.939  0.00  0.00    +0.000 C 
BRANCH   8   9
ATOM      9  C   UNL     1       6.181   3.013   2.456  0.00  0.00    +0.000 C 
ATOM     10  C   UNL     1       6.452   2.033   3.557  0.00  0.00    +0.000 C 
BRANCH   9  12
ATOM     11  C   UNL     1       8.153   4.391   1.421  0.00  0.00    +0.000 C 
ATOM     12  C   UNL     1       7.246   3.762   1.897  0.00  0.00    +0.000 C 
BRANCH  11  14
ATOM     13  O   UNL     1       9.677   4.497  -0.400  0.00  0.00    +0.000 OA
ATOM     14  C   UNL     1       9.265   5.131   0.844  0.00  0.00    +0.000 C 
ATOM     15  C   UNL     1       9.101   5.795  -0.540  0.00  0.00    +0.000 C 
ATOM     16  C   UNL     1      10.413   5.649   1.775  0.00  0.00    +0.000 C 
ATOM     17  C   UNL     1      10.069   6.777  -0.905  0.00  0.00    +0.000 C 
ATOM     18  C   UNL     1      11.235   6.577   0.985  0.00  0.00    +0.000 C 
ATOM     19  C   UNL     1      11.218   7.253  -0.251  0.00  0.00    +0.000 C 
ATOM     20  C   UNL     1       7.779   5.794  -1.314  0.00  0.00    +0.000 C 
ATOM     21  C   UNL     1       9.715   6.404   2.932  0.00  0.00    +0.000 C 
ATOM     22  C   UNL     1      11.192   4.404   2.250  0.00  0.00    +0.000 C 
BRANCH  19  23
ATOM     23  O   UNL     1      12.354   7.560  -0.937  0.00  0.00    +0.000 OA
ATOM     24  H   UNL     1      12.675   6.821  -1.484  0.00  0.00    +0.000 HD
ENDBRANCH  19  23
ENDBRANCH  11  14
ENDBRANCH   9  12
ENDBRANCH   8   9
ENDBRANCH   6   8
ENDBRANCH   4   7
ENDBRANCH   3   4
ENDBRANCH   2   3
BRANCH   1  25
ATOM     25  C   UNL     1      -2.805  -0.135   1.973  0.00  0.00    +0.000 C 
BRANCH  25  26
ATOM     26  C   UNL     1      -3.737  -0.943   2.368  0.00  0.00    +0.000 C 
ATOM     27  C   UNL     1      -3.628  -1.612   3.705  0.00  0.00    +0.000 C 
BRANCH  26  29
ATOM     28  C   UNL     1      -5.829  -1.366   0.856  0.00  0.00    +0.000 C 
ATOM     29  C   UNL     1      -4.867  -1.174   1.550  0.00  0.00    +0.000 C 
BRANCH  28  30
ATOM     30  C   UNL     1      -7.059  -1.605  -0.029  0.00  0.00    +0.000 C 
BRANCH  30  31
ATOM     31  C   UNL     1      -8.100  -1.802  -0.775  0.00  0.00    +0.000 C 
ATOM     32  C   UNL     1      -7.934  -2.346  -2.161  0.00  0.00    +0.000 C 
BRANCH  31  34
ATOM     33  C   UNL     1     -10.499  -1.333   0.169  0.00  0.00    +0.000 C 
ATOM     34  C   UNL     1      -9.396  -1.549  -0.261  0.00  0.00    +0.000 C 
BRANCH  33  36
ATOM     35  O   UNL     1     -12.748  -2.112   0.230  0.00  0.00    +0.000 OA
ATOM     36  C   UNL     1     -11.835  -1.072   0.684  0.00  0.00    +0.000 C 
ATOM     37  C   UNL     1     -12.498  -2.092   1.634  0.00  0.00    +0.000 C 
ATOM     38  C   UNL     1     -12.392   0.396   0.672  0.00  0.00    +0.000 C 
ATOM     39  C   UNL     1     -13.632  -1.647   2.378  0.00  0.00    +0.000 C 
ATOM     40  C   UNL     1     -13.595   0.405   1.507  0.00  0.00    +0.000 C 
ATOM     41  C   UNL     1     -14.314  -0.419   2.395  0.00  0.00    +0.000 C 
ATOM     42  C   UNL     1     -11.800  -3.356   2.142  0.00  0.00    +0.000 C 
ATOM     43  C   UNL     1     -12.659   0.741  -0.811  0.00  0.00    +0.000 C 
ATOM     44  C   UNL     1     -11.275   1.271   1.297  0.00  0.00    +0.000 C 
BRANCH  41  45
ATOM     45  O   UNL     1     -14.896   0.087   3.517  0.00  0.00    +0.000 OA
ATOM     46  H   UNL     1     -14.873  -0.541   4.263  0.00  0.00    +0.000 HD
ENDBRANCH  41  45
ENDBRANCH  33  36
ENDBRANCH  31  34
ENDBRANCH  30  31
ENDBRANCH  28  30
ENDBRANCH  26  29
ENDBRANCH  25  26
ENDBRANCH   1  25
TORSDOF 16
ENDMDL
MODEL 4
REMARK VINA RESULT:      -6.2     10.493     18.429
REMARK  Name = 448438_Violaxanthin.pdbqt.pdb
REMARK  16 active torsions:
REMARK  status: ('A' for Active; 'I' for Inactive)
REMARK    1  A    between atoms: C_1  and  C_5
REMARK    2  A    between atoms: C_2  and  C_27
REMARK    3  A    between atoms: C_3  and  C_5
REMARK    4  A    between atoms: C_3  and  C_7
REMARK    5  A    between atoms: C_6  and  C_10
REMARK    6  A    between atoms: C_8  and  C_10
REMARK    7  A    between atoms: C_8  and  C_12
REMARK    8  A    between atoms: C_11  and  C_14
REMARK    9  A    between atoms: C_19  and  O_23
REMARK   10  A    between atoms: C_25  and  C_27
REMARK   11  A    between atoms: C_25  and  C_29
REMARK   12  A    between atoms: C_28  and  C_32
REMARK   13  A    between atoms: C_30  and  C_32
REMARK   14  A    between atoms: C_30  and  C_34
REMARK   15  A    between atoms: C_33  and  C_36
REMARK   16  A    between atoms: C_41  and  O_45
REMARK                            x       y       z     vdW  Elec       q    Type
REMARK                         _______ _______ _______ _____ _____    ______ ____
ROOT
ATOM      1  C   UNL     1     -13.078   2.678 -20.640  0.00  0.00    +0.000 C 
ATOM      2  C   UNL     1     -12.523   1.736 -21.132  0.00  0.00    +0.000 C 
ENDROOT
BRANCH   2   3
ATOM      3  C   UNL     1     -11.815   0.531 -21.762  0.00  0.00    +0.000 C 
BRANCH   3   4
ATOM      4  C   UNL     1     -11.217  -0.489 -22.293  0.00  0.00    +0.000 C 
ATOM      5  C   UNL     1     -11.713  -1.052 -23.591  0.00  0.00    +0.000 C 
BRANCH   4   7
ATOM      6  C   UNL     1      -9.232  -1.641 -21.039  0.00  0.00    +0.000 C 
ATOM      7  C   UNL     1     -10.144  -1.112 -21.615  0.00  0.00    +0.000 C 
BRANCH   6   8
ATOM      8  C   UNL     1      -8.068  -2.318 -20.304  0.00  0.00    +0.000 C 
BRANCH   8   9
ATOM      9  C   UNL     1      -7.084  -2.893 -19.684  0.00  0.00    +0.000 C 
ATOM     10  C   UNL     1      -7.212  -4.318 -19.241  0.00  0.00    +0.000 C 
BRANCH   9  12
ATOM     11  C   UNL     1      -4.800  -1.639 -19.422  0.00  0.00    +0.000 C 
ATOM     12  C   UNL     1      -5.849  -2.213 -19.538  0.00  0.00    +0.000 C 
BRANCH  11  14
ATOM     13  O   UNL     1      -2.489  -1.904 -18.932  0.00  0.00    +0.000 OA
ATOM     14  C   UNL     1      -3.523  -0.950 -19.305  0.00  0.00    +0.000 C 
ATOM     15  C   UNL     1      -2.358  -1.344 -20.238  0.00  0.00    +0.000 C 
ATOM     16  C   UNL     1      -3.464   0.450 -18.608  0.00  0.00    +0.000 C 
ATOM     17  C   UNL     1      -1.264  -0.433 -20.325  0.00  0.00    +0.000 C 
ATOM     18  C   UNL     1      -2.135   1.019 -18.874  0.00  0.00    +0.000 C 
ATOM     19  C   UNL     1      -0.998   0.783 -19.673  0.00  0.00    +0.000 C 
ATOM     20  C   UNL     1      -2.500  -2.376 -21.360  0.00  0.00    +0.000 C 
ATOM     21  C   UNL     1      -4.559   1.310 -19.283  0.00  0.00    +0.000 C 
ATOM     22  C   UNL     1      -3.728   0.207 -17.106  0.00  0.00    +0.000 C 
BRANCH  19  23
ATOM     23  O   UNL     1       0.260   1.121 -19.279  0.00  0.00    +0.000 OA
ATOM     24  H   UNL     1       0.270   1.645 -18.457  0.00  0.00    +0.000 HD
ENDBRANCH  19  23
ENDBRANCH  11  14
ENDBRANCH   9  12
ENDBRANCH   8   9
ENDBRANCH   6   8
ENDBRANCH   4   7
ENDBRANCH   3   4
ENDBRANCH   2   3
BRANCH   1  25
ATOM     25  C   UNL     1     -13.787   3.883 -20.009  0.00  0.00    +0.000 C 
BRANCH  25  26
ATOM     26  C   UNL     1     -14.386   4.901 -19.477  0.00  0.00    +0.000 C 
ATOM     27  C   UNL     1     -14.725   6.093 -20.321  0.00  0.00    +0.000 C 
BRANCH  26  29
ATOM     28  C   UNL     1     -15.044   4.853 -16.946  0.00  0.00    +0.000 C 
ATOM     29  C   UNL     1     -14.743   4.877 -18.109  0.00  0.00    +0.000 C 
BRANCH  28  30
ATOM     30  C   UNL     1     -15.426   4.815 -15.461  0.00  0.00    +0.000 C 
BRANCH  30  31
ATOM     31  C   UNL     1     -15.751   4.780 -14.207  0.00  0.00    +0.000 C 
ATOM     32  C   UNL     1     -16.935   3.974 -13.765  0.00  0.00    +0.000 C 
BRANCH  31  34
ATOM     33  C   UNL     1     -14.291   6.042 -12.435  0.00  0.00    +0.000 C 
ATOM     34  C   UNL     1     -14.960   5.464 -13.251  0.00  0.00    +0.000 C 
BRANCH  33  36
ATOM     35  O   UNL     1     -12.821   7.878 -12.061  0.00  0.00    +0.000 OA
ATOM     36  C   UNL     1     -13.481   6.736 -11.444  0.00  0.00    +0.000 C 
ATOM     37  C   UNL     1     -13.807   8.200 -11.082  0.00  0.00    +0.000 C 
ATOM     38  C   UNL     1     -12.620   5.899 -10.432  0.00  0.00    +0.000 C 
ATOM     39  C   UNL     1     -13.230   8.718  -9.884  0.00  0.00    +0.000 C 
ATOM     40  C   UNL     1     -12.167   6.822  -9.389  0.00  0.00    +0.000 C 
ATOM     41  C   UNL     1     -12.359   8.144  -8.944  0.00  0.00    +0.000 C 
ATOM     42  C   UNL     1     -15.000   8.969 -11.655  0.00  0.00    +0.000 C 
ATOM     43  C   UNL     1     -11.470   5.278 -11.257  0.00  0.00    +0.000 C 
ATOM     44  C   UNL     1     -13.582   4.831  -9.850  0.00  0.00    +0.000 C 
BRANCH  41  45
ATOM     45  O   UNL     1     -12.404   8.446  -7.616  0.00  0.00    +0.000 OA
ATOM     46  H   UNL     1     -11.661   8.057  -7.121  0.00  0.00    +0.000 HD
ENDBRANCH  41  45
ENDBRANCH  33  36
ENDBRANCH  31  34
ENDBRANCH  30  31
ENDBRANCH  28  30
ENDBRANCH  26  29
ENDBRANCH  25  26
ENDBRANCH   1  25
TORSDOF 16
ENDMDL
MODEL 5
REMARK VINA RESULT:      -6.1     10.306     20.211
REMARK  Name = 448438_Violaxanthin.pdbqt.pdb
REMARK  16 active torsions:
REMARK  status: ('A' for Active; 'I' for Inactive)
REMARK    1  A    between atoms: C_1  and  C_5
REMARK    2  A    between atoms: C_2  and  C_27
REMARK    3  A    between atoms: C_3  and  C_5
REMARK    4  A    between atoms: C_3  and  C_7
REMARK    5  A    between atoms: C_6  and  C_10
REMARK    6  A    between atoms: C_8  and  C_10
REMARK    7  A    between atoms: C_8  and  C_12
REMARK    8  A    between atoms: C_11  and  C_14
REMARK    9  A    between atoms: C_19  and  O_23
REMARK   10  A    between atoms: C_25  and  C_27
REMARK   11  A    between atoms: C_25  and  C_29
REMARK   12  A    between atoms: C_28  and  C_32
REMARK   13  A    between atoms: C_30  and  C_32
REMARK   14  A    between atoms: C_30  and  C_34
REMARK   15  A    between atoms: C_33  and  C_36
REMARK   16  A    between atoms: C_41  and  O_45
REMARK                            x       y       z     vdW  Elec       q    Type
REMARK                         _______ _______ _______ _____ _____    ______ ____
ROOT
ATOM      1  C   UNL     1       3.082   2.877   1.973  0.00  0.00    +0.000 C 
ATOM      2  C   UNL     1       4.022   2.783   2.713  0.00  0.00    +0.000 C 
ENDROOT
BRANCH   2   3
ATOM      3  C   UNL     1       5.221   2.664   3.660  0.00  0.00    +0.000 C 
BRANCH   3   4
ATOM      4  C   UNL     1       6.237   2.565   4.459  0.00  0.00    +0.000 C 
ATOM      5  C   UNL     1       6.407   3.551   5.576  0.00  0.00    +0.000 C 
BRANCH   4   7
ATOM      6  C   UNL     1       8.052   0.727   4.045  0.00  0.00    +0.000 C 
ATOM      7  C   UNL     1       7.218   1.571   4.235  0.00  0.00    +0.000 C 
BRANCH   6   8
ATOM      8  C   UNL     1       9.115  -0.351   3.801  0.00  0.00    +0.000 C 
BRANCH   8   9
ATOM      9  C   UNL     1      10.017  -1.260   3.592  0.00  0.00    +0.000 C 
ATOM     10  C   UNL     1       9.626  -2.706   3.565  0.00  0.00    +0.000 C 
BRANCH   9  12
ATOM     11  C   UNL     1      12.464  -0.546   2.991  0.00  0.00    +0.000 C 
ATOM     12  C   UNL     1      11.342  -0.877   3.270  0.00  0.00    +0.000 C 
BRANCH  11  14
ATOM     13  O   UNL     1      14.728  -1.247   2.814  0.00  0.00    +0.000 OA
ATOM     14  C   UNL     1      13.812  -0.130   2.636  0.00  0.00    +0.000 C 
ATOM     15  C   UNL     1      14.539  -0.825   1.464  0.00  0.00    +0.000 C 
ATOM     16  C   UNL     1      14.331   1.275   3.091  0.00  0.00    +0.000 C 
ATOM     17  C   UNL     1      15.692  -0.169   0.940  0.00  0.00    +0.000 C 
ATOM     18  C   UNL     1      15.587   1.535   2.373  0.00  0.00    +0.000 C 
ATOM     19  C   UNL     1      16.357   1.010   1.316  0.00  0.00    +0.000 C 
ATOM     20  C   UNL     1      13.875  -1.885   0.582  0.00  0.00    +0.000 C 
ATOM     21  C   UNL     1      13.247   2.291   2.657  0.00  0.00    +0.000 C 
ATOM     22  C   UNL     1      14.512   1.204   4.623  0.00  0.00    +0.000 C 
BRANCH  19  23
ATOM     23  O   UNL     1      17.714   1.108   1.276  0.00  0.00    +0.000 OA
ATOM     24  H   UNL     1      18.023   1.821   0.688  0.00  0.00    +0.000 HD
ENDBRANCH  19  23
ENDBRANCH  11  14
ENDBRANCH   9  12
ENDBRANCH   8   9
ENDBRANCH   6   8
ENDBRANCH   4   7
ENDBRANCH   3   4
ENDBRANCH   2   3
BRANCH   1  25
ATOM     25  C   UNL     1       1.882   2.997   1.026  0.00  0.00    +0.000 C 
BRANCH  25  26
ATOM     26  C   UNL     1       0.868   3.097   0.226  0.00  0.00    +0.000 C 
ATOM     27  C   UNL     1       0.748   4.286  -0.681  0.00  0.00    +0.000 C 
BRANCH  26  29
ATOM     28  C   UNL     1      -0.938   1.207   0.161  0.00  0.00    +0.000 C 
ATOM     29  C   UNL     1      -0.110   2.077   0.189  0.00  0.00    +0.000 C 
BRANCH  28  30
ATOM     30  C   UNL     1      -1.991   0.092   0.127  0.00  0.00    +0.000 C 
BRANCH  30  31
ATOM     31  C   UNL     1      -2.884  -0.847   0.095  0.00  0.00    +0.000 C 
ATOM     32  C   UNL     1      -2.479  -2.251  -0.239  0.00  0.00    +0.000 C 
BRANCH  31  34
ATOM     33  C   UNL     1      -5.373  -0.301   0.702  0.00  0.00    +0.000 C 
ATOM     34  C   UNL     1      -4.231  -0.554   0.422  0.00  0.00    +0.000 C 
BRANCH  33  36
ATOM     35  O   UNL     1      -7.408   0.643  -0.099  0.00  0.00    +0.000 OA
ATOM     36  C   UNL     1      -6.754   0.013   1.039  0.00  0.00    +0.000 C 
ATOM     37  C   UNL     1      -7.902  -0.649   0.249  0.00  0.00    +0.000 C 
ATOM     38  C   UNL     1      -7.083   0.617   2.451  0.00  0.00    +0.000 C 
ATOM     39  C   UNL     1      -9.206  -0.592   0.823  0.00  0.00    +0.000 C 
ATOM     40  C   UNL     1      -8.536   0.544   2.621  0.00  0.00    +0.000 C 
ATOM     41  C   UNL     1      -9.680   0.003   2.005  0.00  0.00    +0.000 C 
ATOM     42  C   UNL     1      -7.683  -1.696  -0.847  0.00  0.00    +0.000 C 
ATOM     43  C   UNL     1      -6.528   2.060   2.440  0.00  0.00    +0.000 C 
ATOM     44  C   UNL     1      -6.357  -0.294   3.474  0.00  0.00    +0.000 C 
BRANCH  41  45
ATOM     45  O   UNL     1     -10.698  -0.526   2.739  0.00  0.00    +0.000 OA
ATOM     46  H   UNL     1     -10.712  -1.500   2.710  0.00  0.00    +0.000 HD
ENDBRANCH  41  45
ENDBRANCH  33  36
ENDBRANCH  31  34
ENDBRANCH  30  31
ENDBRANCH  28  30
ENDBRANCH  26  29
ENDBRANCH  25  26
ENDBRANCH   1  25
TORSDOF 16
ENDMDL
MODEL 6
REMARK VINA RESULT:      -6.1     23.972     27.976
REMARK  Name = 448438_Violaxanthin.pdbqt.pdb
REMARK  16 active torsions:
REMARK  status: ('A' for Active; 'I' for Inactive)
REMARK    1  A    between atoms: C_1  and  C_5
REMARK    2  A    between atoms: C_2  and  C_27
REMARK    3  A    between atoms: C_3  and  C_5
REMARK    4  A    between atoms: C_3  and  C_7
REMARK    5  A    between atoms: C_6  and  C_10
REMARK    6  A    between atoms: C_8  and  C_10
REMARK    7  A    between atoms: C_8  and  C_12
REMARK    8  A    between atoms: C_11  and  C_14
REMARK    9  A    between atoms: C_19  and  O_23
REMARK   10  A    between atoms: C_25  and  C_27
REMARK   11  A    between atoms: C_25  and  C_29
REMARK   12  A    between atoms: C_28  and  C_32
REMARK   13  A    between atoms: C_30  and  C_32
REMARK   14  A    between atoms: C_30  and  C_34
REMARK   15  A    between atoms: C_33  and  C_36
REMARK   16  A    between atoms: C_41  and  O_45
REMARK                            x       y       z     vdW  Elec       q    Type
REMARK                         _______ _______ _______ _____ _____    ______ ____
ROOT
ATOM      1  C   UNL     1       8.924   6.447 -24.805  0.00  0.00    +0.000 C 
ATOM      2  C   UNL     1       9.440   7.526 -24.898  0.00  0.00    +0.000 C 
ENDROOT
BRANCH   2   3
ATOM      3  C   UNL     1      10.099   8.905 -25.015  0.00  0.00    +0.000 C 
BRANCH   3   4
ATOM      4  C   UNL     1      10.657  10.071 -25.116  0.00  0.00    +0.000 C 
ATOM      5  C   UNL     1      10.384  10.926 -26.316  0.00  0.00    +0.000 C 
BRANCH   4   7
ATOM      6  C   UNL     1      12.352  10.872 -23.292  0.00  0.00    +0.000 C 
ATOM      7  C   UNL     1      11.574  10.504 -24.130  0.00  0.00    +0.000 C 
BRANCH   6   8
ATOM      8  C   UNL     1      13.344  11.343 -22.221  0.00  0.00    +0.000 C 
BRANCH   8   9
ATOM      9  C   UNL     1      14.185  11.743 -21.318  0.00  0.00    +0.000 C 
ATOM     10  C   UNL     1      15.414  12.497 -21.724  0.00  0.00    +0.000 C 
BRANCH   9  12
ATOM     11  C   UNL     1      13.620  11.421 -18.781  0.00  0.00    +0.000 C 
ATOM     12  C   UNL     1      13.878  11.573 -19.945  0.00  0.00    +0.000 C 
BRANCH  11  14
ATOM     13  O   UNL     1      12.234  12.103 -16.975  0.00  0.00    +0.000 OA
ATOM     14  C   UNL     1      13.312  11.212 -17.374  0.00  0.00    +0.000 C 
ATOM     15  C   UNL     1      11.908  10.714 -16.968  0.00  0.00    +0.000 C 
ATOM     16  C   UNL     1      14.481  11.029 -16.348  0.00  0.00    +0.000 C 
ATOM     17  C   UNL     1      11.762  10.203 -15.645  0.00  0.00    +0.000 C 
ATOM     18  C   UNL     1      13.888  10.569 -15.084  0.00  0.00    +0.000 C 
ATOM     19  C   UNL     1      12.664  10.095 -14.573  0.00  0.00    +0.000 C 
ATOM     20  C   UNL     1      10.830  10.336 -17.988  0.00  0.00    +0.000 C 
ATOM     21  C   UNL     1      15.400   9.933 -16.939  0.00  0.00    +0.000 C 
ATOM     22  C   UNL     1      15.179  12.400 -16.225  0.00  0.00    +0.000 C 
BRANCH  19  23
ATOM     23  O   UNL     1      12.272  10.309 -13.286  0.00  0.00    +0.000 OA
ATOM     24  H   UNL     1      11.777  11.140 -13.176  0.00  0.00    +0.000 HD
ENDBRANCH  19  23
ENDBRANCH  11  14
ENDBRANCH   9  12
ENDBRANCH   8   9
ENDBRANCH   6   8
ENDBRANCH   4   7
ENDBRANCH   3   4
ENDBRANCH   2   3
BRANCH   1  25
ATOM     25  C   UNL     1       8.263   5.068 -24.688  0.00  0.00    +0.000 C 
BRANCH  25  26
ATOM     26  C   UNL     1       7.705   3.902 -24.589  0.00  0.00    +0.000 C 
ATOM     27  C   UNL     1       7.172   3.224 -25.815  0.00  0.00    +0.000 C 
BRANCH  26  29
ATOM     28  C   UNL     1       7.550   2.718 -22.262  0.00  0.00    +0.000 C 
ATOM     29  C   UNL     1       7.623   3.261 -23.331  0.00  0.00    +0.000 C 
BRANCH  28  30
ATOM     30  C   UNL     1       7.450   2.028 -20.896  0.00  0.00    +0.000 C 
BRANCH  30  31
ATOM     31  C   UNL     1       7.368   1.440 -19.743  0.00  0.00    +0.000 C 
ATOM     32  C   UNL     1       8.210   1.918 -18.600  0.00  0.00    +0.000 C 
BRANCH  31  34
ATOM     33  C   UNL     1       5.669  -0.524 -19.399  0.00  0.00    +0.000 C 
ATOM     34  C   UNL     1       6.448   0.379 -19.554  0.00  0.00    +0.000 C 
BRANCH  33  36
ATOM     35  O   UNL     1       4.850  -2.149 -17.862  0.00  0.00    +0.000 OA
ATOM     36  C   UNL     1       4.730  -1.621 -19.214  0.00  0.00    +0.000 C 
ATOM     37  C   UNL     1       3.614  -1.499 -18.155  0.00  0.00    +0.000 C 
ATOM     38  C   UNL     1       4.548  -2.679 -20.360  0.00  0.00    +0.000 C 
ATOM     39  C   UNL     1       2.528  -2.421 -18.245  0.00  0.00    +0.000 C 
ATOM     40  C   UNL     1       3.354  -3.462 -20.035  0.00  0.00    +0.000 C 
ATOM     41  C   UNL     1       2.277  -3.485 -19.127  0.00  0.00    +0.000 C 
ATOM     42  C   UNL     1       3.377  -0.243 -17.314  0.00  0.00    +0.000 C 
ATOM     43  C   UNL     1       5.851  -3.510 -20.387  0.00  0.00    +0.000 C 
ATOM     44  C   UNL     1       4.337  -1.857 -21.658  0.00  0.00    +0.000 C 
BRANCH  41  45
ATOM     45  O   UNL     1       1.022  -3.833 -19.524  0.00  0.00    +0.000 OA
ATOM     46  H   UNL     1       0.807  -4.759 -19.308  0.00  0.00    +0.000 HD
ENDBRANCH  41  45
ENDBRANCH  33  36
ENDBRANCH  31  34
ENDBRANCH  30  31
ENDBRANCH  28  30
ENDBRANCH  26  29
ENDBRANCH  25  26
ENDBRANCH   1  25
TORSDOF 16
ENDMDL
MODEL 7
REMARK VINA RESULT:      -6.0     20.924     24.068
REMARK  Name = 448438_Violaxanthin.pdbqt.pdb
REMARK  16 active torsions:
REMARK  status: ('A' for Active; 'I' for Inactive)
REMARK    1  A    between atoms: C_1  and  C_5
REMARK    2  A    between atoms: C_2  and  C_27
REMARK    3  A    between atoms: C_3  and  C_5
REMARK    4  A    between atoms: C_3  and  C_7
REMARK    5  A    between atoms: C_6  and  C_10
REMARK    6  A    between atoms: C_8  and  C_10
REMARK    7  A    between atoms: C_8  and  C_12
REMARK    8  A    between atoms: C_11  and  C_14
REMARK    9  A    between atoms: C_19  and  O_23
REMARK   10  A    between atoms: C_25  and  C_27
REMARK   11  A    between atoms: C_25  and  C_29
REMARK   12  A    between atoms: C_28  and  C_32
REMARK   13  A    between atoms: C_30  and  C_32
REMARK   14  A    between atoms: C_30  and  C_34
REMARK   15  A    between atoms: C_33  and  C_36
REMARK   16  A    between atoms: C_41  and  O_45
REMARK                            x       y       z     vdW  Elec       q    Type
REMARK                         _______ _______ _______ _____ _____    ______ ____
ROOT
ATOM      1  C   UNL     1       1.131   5.337 -24.407  0.00  0.00    +0.000 C 
ATOM      2  C   UNL     1       0.475   6.342 -24.413  0.00  0.00    +0.000 C 
ENDROOT
BRANCH   2   3
ATOM      3  C   UNL     1      -0.362   7.626 -24.422  0.00  0.00    +0.000 C 
BRANCH   3   4
ATOM      4  C   UNL     1      -1.069   8.712 -24.433  0.00  0.00    +0.000 C 
ATOM      5  C   UNL     1      -2.383   8.740 -25.154  0.00  0.00    +0.000 C 
BRANCH   4   7
ATOM      6  C   UNL     1      -0.144  10.885 -23.306  0.00  0.00    +0.000 C 
ATOM      7  C   UNL     1      -0.569   9.887 -23.824  0.00  0.00    +0.000 C 
BRANCH   6   8
ATOM      8  C   UNL     1       0.397  12.157 -22.644  0.00  0.00    +0.000 C 
BRANCH   8   9
ATOM      9  C   UNL     1       0.857  13.235 -22.087  0.00  0.00    +0.000 C 
ATOM     10  C   UNL     1       2.237  13.715 -22.415  0.00  0.00    +0.000 C 
BRANCH   9  12
ATOM     11  C   UNL     1      -0.703  14.687 -20.564  0.00  0.00    +0.000 C 
ATOM     12  C   UNL     1       0.009  14.020 -21.266  0.00  0.00    +0.000 C 
BRANCH  11  14
ATOM     13  O   UNL     1      -2.943  15.304 -20.062  0.00  0.00    +0.000 OA
ATOM     14  C   UNL     1      -1.547  15.495 -19.697  0.00  0.00    +0.000 C 
ATOM     15  C   UNL     1      -2.577  14.802 -18.778  0.00  0.00    +0.000 C 
ATOM     16  C   UNL     1      -1.114  16.957 -19.342  0.00  0.00    +0.000 C 
ATOM     17  C   UNL     1      -3.126  15.584 -17.719  0.00  0.00    +0.000 C 
ATOM     18  C   UNL     1      -1.987  17.424 -18.256  0.00  0.00    +0.000 C 
ATOM     19  C   UNL     1      -2.947  16.928 -17.351  0.00  0.00    +0.000 C 
ATOM     20  C   UNL     1      -2.700  13.280 -18.661  0.00  0.00    +0.000 C 
ATOM     21  C   UNL     1       0.350  16.859 -18.847  0.00  0.00    +0.000 C 
ATOM     22  C   UNL     1      -1.259  17.786 -20.635  0.00  0.00    +0.000 C 
BRANCH  19  23
ATOM     23  O   UNL     1      -3.979  17.685 -16.887  0.00  0.00    +0.000 OA
ATOM     24  H   UNL     1      -4.205  17.486 -15.960  0.00  0.00    +0.000 HD
ENDBRANCH  19  23
ENDBRANCH  11  14
ENDBRANCH   9  12
ENDBRANCH   8   9
ENDBRANCH   6   8
ENDBRANCH   4   7
ENDBRANCH   3   4
ENDBRANCH   2   3
BRANCH   1  25
ATOM     25  C   UNL     1       1.969   4.053 -24.398  0.00  0.00    +0.000 C 
BRANCH  25  26
ATOM     26  C   UNL     1       2.677   2.967 -24.390  0.00  0.00    +0.000 C 
ATOM     27  C   UNL     1       2.016   1.643 -24.630  0.00  0.00    +0.000 C 
BRANCH  26  29
ATOM     28  C   UNL     1       5.260   3.091 -24.002  0.00  0.00    +0.000 C 
ATOM     29  C   UNL     1       4.074   3.035 -24.182  0.00  0.00    +0.000 C 
BRANCH  28  30
ATOM     30  C   UNL     1       6.774   3.161 -23.764  0.00  0.00    +0.000 C 
BRANCH  30  31
ATOM     31  C   UNL     1       8.053   3.215 -23.562  0.00  0.00    +0.000 C 
ATOM     32  C   UNL     1       8.952   3.784 -24.617  0.00  0.00    +0.000 C 
BRANCH  31  34
ATOM     33  C   UNL     1       9.057   2.416 -21.278  0.00  0.00    +0.000 C 
ATOM     34  C   UNL     1       8.593   2.781 -22.326  0.00  0.00    +0.000 C 
BRANCH  33  36
ATOM     35  O   UNL     1      10.516   0.852 -20.230  0.00  0.00    +0.000 OA
ATOM     36  C   UNL     1       9.620   1.979 -20.009  0.00  0.00    +0.000 C 
ATOM     37  C   UNL     1      11.145   2.052 -19.786  0.00  0.00    +0.000 C 
ATOM     38  C   UNL     1       8.693   1.892 -18.744  0.00  0.00    +0.000 C 
ATOM     39  C   UNL     1      11.612   1.951 -18.442  0.00  0.00    +0.000 C 
ATOM     40  C   UNL     1       9.567   1.728 -17.581  0.00  0.00    +0.000 C 
ATOM     41  C   UNL     1      10.930   1.758 -17.229  0.00  0.00    +0.000 C 
ATOM     42  C   UNL     1      12.124   2.636 -20.808  0.00  0.00    +0.000 C 
ATOM     43  C   UNL     1       7.748   0.693 -18.988  0.00  0.00    +0.000 C 
ATOM     44  C   UNL     1       7.938   3.245 -18.687  0.00  0.00    +0.000 C 
BRANCH  41  45
ATOM     45  O   UNL     1      11.347   2.305 -16.053  0.00  0.00    +0.000 OA
ATOM     46  H   UNL     1      10.801   3.066 -15.783  0.00  0.00    +0.000 HD
ENDBRANCH  41  45
ENDBRANCH  33  36
ENDBRANCH  31  34
ENDBRANCH  30  31
ENDBRANCH  28  30
ENDBRANCH  26  29
ENDBRANCH  25  26
ENDBRANCH   1  25
TORSDOF 16
ENDMDL
MODEL 8
REMARK VINA RESULT:      -5.9     18.167     22.763
REMARK  Name = 448438_Violaxanthin.pdbqt.pdb
REMARK  16 active torsions:
REMARK  status: ('A' for Active; 'I' for Inactive)
REMARK    1  A    between atoms: C_1  and  C_5
REMARK    2  A    between atoms: C_2  and  C_27
REMARK    3  A    between atoms: C_3  and  C_5
REMARK    4  A    between atoms: C_3  and  C_7
REMARK    5  A    between atoms: C_6  and  C_10
REMARK    6  A    between atoms: C_8  and  C_10
REMARK    7  A    between atoms: C_8  and  C_12
REMARK    8  A    between atoms: C_11  and  C_14
REMARK    9  A    between atoms: C_19  and  O_23
REMARK   10  A    between atoms: C_25  and  C_27
REMARK   11  A    between atoms: C_25  and  C_29
REMARK   12  A    between atoms: C_28  and  C_32
REMARK   13  A    between atoms: C_30  and  C_32
REMARK   14  A    between atoms: C_30  and  C_34
REMARK   15  A    between atoms: C_33  and  C_36
REMARK   16  A    between atoms: C_41  and  O_45
REMARK                            x       y       z     vdW  Elec       q    Type
REMARK                         _______ _______ _______ _____ _____    ______ ____
ROOT
ATOM      1  C   UNL     1      -2.838  -9.293 -23.691  0.00  0.00    +0.000 C 
ATOM      2  C   UNL     1      -3.978  -9.041 -23.969  0.00  0.00    +0.000 C 
ENDROOT
BRANCH   2   3
ATOM      3  C   UNL     1      -5.435  -8.721 -24.322  0.00  0.00    +0.000 C 
BRANCH   3   4
ATOM      4  C   UNL     1      -6.667  -8.450 -24.618  0.00  0.00    +0.000 C 
ATOM      5  C   UNL     1      -7.579  -9.543 -25.089  0.00  0.00    +0.000 C 
BRANCH   4   7
ATOM      6  C   UNL     1      -7.523  -5.980 -24.516  0.00  0.00    +0.000 C 
ATOM      7  C   UNL     1      -7.130  -7.114 -24.563  0.00  0.00    +0.000 C 
BRANCH   6   8
ATOM      8  C   UNL     1      -8.024  -4.532 -24.455  0.00  0.00    +0.000 C 
BRANCH   8   9
ATOM      9  C   UNL     1      -8.445  -3.306 -24.401  0.00  0.00    +0.000 C 
ATOM     10  C   UNL     1      -8.599  -2.513 -25.662  0.00  0.00    +0.000 C 
BRANCH   9  12
ATOM     11  C   UNL     1      -9.233  -2.294 -22.117  0.00  0.00    +0.000 C 
ATOM     12  C   UNL     1      -8.874  -2.762 -23.165  0.00  0.00    +0.000 C 
BRANCH  11  14
ATOM     13  O   UNL     1      -8.981  -0.431 -20.663  0.00  0.00    +0.000 OA
ATOM     14  C   UNL     1      -9.652  -1.708 -20.853  0.00  0.00    +0.000 C 
ATOM     15  C   UNL     1     -10.394  -0.355 -20.849  0.00  0.00    +0.000 C 
ATOM     16  C   UNL     1      -9.783  -2.620 -19.586  0.00  0.00    +0.000 C 
ATOM     17  C   UNL     1     -11.076   0.005 -19.649  0.00  0.00    +0.000 C 
ATOM     18  C   UNL     1     -10.473  -1.839 -18.550  0.00  0.00    +0.000 C 
ATOM     19  C   UNL     1     -11.178  -0.628 -18.399  0.00  0.00    +0.000 C 
ATOM     20  C   UNL     1     -10.801   0.377 -22.131  0.00  0.00    +0.000 C 
ATOM     21  C   UNL     1     -10.654  -3.825 -20.018  0.00  0.00    +0.000 C 
ATOM     22  C   UNL     1      -8.349  -3.027 -19.185  0.00  0.00    +0.000 C 
BRANCH  19  23
ATOM     23  O   UNL     1     -11.179   0.081 -17.237  0.00  0.00    +0.000 OA
ATOM     24  H   UNL     1     -12.077   0.292 -16.925  0.00  0.00    +0.000 HD
ENDBRANCH  19  23
ENDBRANCH  11  14
ENDBRANCH   9  12
ENDBRANCH   8   9
ENDBRANCH   6   8
ENDBRANCH   4   7
ENDBRANCH   3   4
ENDBRANCH   2   3
BRANCH   1  25
ATOM     25  C   UNL     1      -1.381  -9.613 -23.337  0.00  0.00    +0.000 C 
BRANCH  25  26
ATOM     26  C   UNL     1      -0.149  -9.884 -23.038  0.00  0.00    +0.000 C 
ATOM     27  C   UNL     1       0.288 -11.312 -22.897  0.00  0.00    +0.000 C 
BRANCH  26  29
ATOM     28  C   UNL     1       1.577  -7.945 -22.727  0.00  0.00    +0.000 C 
ATOM     29  C   UNL     1       0.786  -8.837 -22.871  0.00  0.00    +0.000 C 
BRANCH  28  30
ATOM     30  C   UNL     1       2.583  -6.802 -22.540  0.00  0.00    +0.000 C 
BRANCH  30  31
ATOM     31  C   UNL     1       3.430  -5.834 -22.379  0.00  0.00    +0.000 C 
ATOM     32  C   UNL     1       4.705  -5.819 -23.165  0.00  0.00    +0.000 C 
BRANCH  31  34
ATOM     33  C   UNL     1       2.863  -3.863 -20.748  0.00  0.00    +0.000 C 
ATOM     34  C   UNL     1       3.126  -4.768 -21.495  0.00  0.00    +0.000 C 
BRANCH  33  36
ATOM     35  O   UNL     1       2.786  -3.179 -18.468  0.00  0.00    +0.000 OA
ATOM     36  C   UNL     1       2.539  -2.770 -19.844  0.00  0.00    +0.000 C 
ATOM     37  C   UNL     1       3.646  -2.154 -18.963  0.00  0.00    +0.000 C 
ATOM     38  C   UNL     1       1.239  -1.924 -20.094  0.00  0.00    +0.000 C 
ATOM     39  C   UNL     1       3.374  -0.887 -18.366  0.00  0.00    +0.000 C 
ATOM     40  C   UNL     1       1.329  -0.737 -19.241  0.00  0.00    +0.000 C 
ATOM     41  C   UNL     1       2.235  -0.066 -18.397  0.00  0.00    +0.000 C 
ATOM     42  C   UNL     1       5.115  -2.578 -19.029  0.00  0.00    +0.000 C 
ATOM     43  C   UNL     1       0.051  -2.851 -19.751  0.00  0.00    +0.000 C 
ATOM     44  C   UNL     1       1.278  -1.534 -21.595  0.00  0.00    +0.000 C 
BRANCH  41  45
ATOM     45  O   UNL     1       2.305   1.294 -18.371  0.00  0.00    +0.000 OA
ATOM     46  H   UNL     1       1.644   1.712 -18.953  0.00  0.00    +0.000 HD
ENDBRANCH  41  45
ENDBRANCH  33  36
ENDBRANCH  31  34
ENDBRANCH  30  31
ENDBRANCH  28  30
ENDBRANCH  26  29
ENDBRANCH  25  26
ENDBRANCH   1  25
TORSDOF 16
ENDMDL
MODEL 9
REMARK VINA RESULT:      -5.9     11.068     18.795
REMARK  Name = 448438_Violaxanthin.pdbqt.pdb
REMARK  16 active torsions:
REMARK  status: ('A' for Active; 'I' for Inactive)
REMARK    1  A    between atoms: C_1  and  C_5
REMARK    2  A    between atoms: C_2  and  C_27
REMARK    3  A    between atoms: C_3  and  C_5
REMARK    4  A    between atoms: C_3  and  C_7
REMARK    5  A    between atoms: C_6  and  C_10
REMARK    6  A    between atoms: C_8  and  C_10
REMARK    7  A    between atoms: C_8  and  C_12
REMARK    8  A    between atoms: C_11  and  C_14
REMARK    9  A    between atoms: C_19  and  O_23
REMARK   10  A    between atoms: C_25  and  C_27
REMARK   11  A    between atoms: C_25  and  C_29
REMARK   12  A    between atoms: C_28  and  C_32
REMARK   13  A    between atoms: C_30  and  C_32
REMARK   14  A    between atoms: C_30  and  C_34
REMARK   15  A    between atoms: C_33  and  C_36
REMARK   16  A    between atoms: C_41  and  O_45
REMARK                            x       y       z     vdW  Elec       q    Type
REMARK                         _______ _______ _______ _____ _____    ______ ____
ROOT
ATOM      1  C   UNL     1     -13.829   3.279 -20.826  0.00  0.00    +0.000 C 
ATOM      2  C   UNL     1     -13.292   2.318 -21.302  0.00  0.00    +0.000 C 
ENDROOT
BRANCH   2   3
ATOM      3  C   UNL     1     -12.609   1.088 -21.912  0.00  0.00    +0.000 C 
BRANCH   3   4
ATOM      4  C   UNL     1     -12.031   0.048 -22.425  0.00  0.00    +0.000 C 
ATOM      5  C   UNL     1     -12.443  -0.441 -23.781  0.00  0.00    +0.000 C 
BRANCH   4   7
ATOM      6  C   UNL     1     -10.241  -1.269 -21.046  0.00  0.00    +0.000 C 
ATOM      7  C   UNL     1     -11.063  -0.664 -21.679  0.00  0.00    +0.000 C 
BRANCH   6   8
ATOM      8  C   UNL     1      -9.192  -2.044 -20.237  0.00  0.00    +0.000 C 
BRANCH   8   9
ATOM      9  C   UNL     1      -8.304  -2.700 -19.557  0.00  0.00    +0.000 C 
ATOM     10  C   UNL     1      -8.630  -4.060 -19.020  0.00  0.00    +0.000 C 
BRANCH   9  12
ATOM     11  C   UNL     1      -5.880  -1.736 -19.322  0.00  0.00    +0.000 C 
ATOM     12  C   UNL     1      -6.991  -2.182 -19.429  0.00  0.00    +0.000 C 
BRANCH  11  14
ATOM     13  O   UNL     1      -3.881  -1.215 -20.497  0.00  0.00    +0.000 OA
ATOM     14  C   UNL     1      -4.544  -1.173 -19.203  0.00  0.00    +0.000 C 
ATOM     15  C   UNL     1      -4.175   0.092 -20.007  0.00  0.00    +0.000 C 
ATOM     16  C   UNL     1      -3.664  -1.533 -17.958  0.00  0.00    +0.000 C 
ATOM     17  C   UNL     1      -3.000   0.793 -19.606  0.00  0.00    +0.000 C 
ATOM     18  C   UNL     1      -2.506  -0.628 -17.961  0.00  0.00    +0.000 C 
ATOM     19  C   UNL     1      -2.042   0.532 -18.612  0.00  0.00    +0.000 C 
ATOM     20  C   UNL     1      -5.184   0.854 -20.872  0.00  0.00    +0.000 C 
ATOM     21  C   UNL     1      -4.551  -1.265 -16.718  0.00  0.00    +0.000 C 
ATOM     22  C   UNL     1      -3.272  -3.018 -18.109  0.00  0.00    +0.000 C 
BRANCH  19  23
ATOM     23  O   UNL     1      -0.719   0.783 -18.812  0.00  0.00    +0.000 OA
ATOM     24  H   UNL     1      -0.152   0.026 -18.578  0.00  0.00    +0.000 HD
ENDBRANCH  19  23
ENDBRANCH  11  14
ENDBRANCH   9  12
ENDBRANCH   8   9
ENDBRANCH   6   8
ENDBRANCH   4   7
ENDBRANCH   3   4
ENDBRANCH   2   3
BRANCH   1  25
ATOM     25  C   UNL     1     -14.513   4.509 -20.216  0.00  0.00    +0.000 C 
BRANCH  25  26
ATOM     26  C   UNL     1     -15.092   5.547 -19.701  0.00  0.00    +0.000 C 
ATOM     27  C   UNL     1     -14.877   6.900 -20.310  0.00  0.00    +0.000 C 
BRANCH  26  29
ATOM     28  C   UNL     1     -16.666   5.274 -17.630  0.00  0.00    +0.000 C 
ATOM     29  C   UNL     1     -15.945   5.400 -18.582  0.00  0.00    +0.000 C 
BRANCH  28  30
ATOM     30  C   UNL     1     -17.582   5.109 -16.411  0.00  0.00    +0.000 C 
BRANCH  30  31
ATOM     31  C   UNL     1     -18.359   4.966 -15.383  0.00  0.00    +0.000 C 
ATOM     32  C   UNL     1     -19.846   5.021 -15.558  0.00  0.00    +0.000 C 
BRANCH  31  34
ATOM     33  C   UNL     1     -17.324   4.493 -13.023  0.00  0.00    +0.000 C 
ATOM     34  C   UNL     1     -17.802   4.710 -14.105  0.00  0.00    +0.000 C 
BRANCH  33  36
ATOM     35  O   UNL     1     -17.769   4.331 -10.689  0.00  0.00    +0.000 OA
ATOM     36  C   UNL     1     -16.740   4.233 -11.715  0.00  0.00    +0.000 C 
ATOM     37  C   UNL     1     -17.229   3.026 -10.888  0.00  0.00    +0.000 C 
ATOM     38  C   UNL     1     -15.343   4.855 -11.359  0.00  0.00    +0.000 C 
ATOM     39  C   UNL     1     -16.409   2.609  -9.797  0.00  0.00    +0.000 C 
ATOM     40  C   UNL     1     -14.878   4.194 -10.138  0.00  0.00    +0.000 C 
ATOM     41  C   UNL     1     -15.206   3.123  -9.284  0.00  0.00    +0.000 C 
ATOM     42  C   UNL     1     -18.261   2.015 -11.392  0.00  0.00    +0.000 C 
ATOM     43  C   UNL     1     -15.578   6.374 -11.196  0.00  0.00    +0.000 C 
ATOM     44  C   UNL     1     -14.419   4.520 -12.559  0.00  0.00    +0.000 C 
BRANCH  41  45
ATOM     45  O   UNL     1     -14.243   2.334  -8.733  0.00  0.00    +0.000 OA
ATOM     46  H   UNL     1     -13.484   2.850  -8.404  0.00  0.00    +0.000 HD
ENDBRANCH  41  45
ENDBRANCH  33  36
ENDBRANCH  31  34
ENDBRANCH  30  31
ENDBRANCH  28  30
ENDBRANCH  26  29
ENDBRANCH  25  26
ENDBRANCH   1  25
TORSDOF 16
ENDMDL
