MODEL 1
REMARK VINA RESULT:      -7.7      0.000      0.000
REMARK  Name = 490561_Nocardiopsis.pdbqt.pdb
REMARK  3 active torsions:
REMARK  status: ('A' for Active; 'I' for Inactive)
REMARK    1  A    between atoms: C_7  and  O_32
REMARK    2  A    between atoms: C_7  and  C_35
REMARK    3  A    between atoms: C_35  and  O_36
REMARK                            x       y       z     vdW  Elec       q    Type
REMARK                         _______ _______ _______ _____ _____    ______ ____
ROOT
ATOM      1  O   UNL     1       5.590   1.282 -20.427  0.00  0.00    +0.000 OA
ATOM      2  O   UNL     1      12.302  -1.857 -19.077  0.00  0.00    +0.000 OA
ATOM      3  N   UNL     1       5.700  -1.067 -20.183  0.00  0.00    +0.000 N 
ATOM      4  N   UNL     1       7.544   1.074 -19.171  0.00  0.00    +0.000 N 
ATOM      5  N   UNL     1      11.068  -3.672 -19.835  0.00  0.00    +0.000 N 
ATOM      6  C   UNL     1       4.795   0.095 -20.074  0.00  0.00    +0.000 C 
ATOM      7  C   UNL     1       4.316   0.381 -18.586  0.00  0.00    +0.000 C 
ATOM      8  C   UNL     1       6.270   1.608 -19.240  0.00  0.00    +0.000 C 
ATOM      9  C   UNL     1       5.386   1.287 -18.181  0.00  0.00    +0.000 C 
ATOM     10  C   UNL     1       7.058  -1.168 -20.012  0.00  0.00    +0.000 A 
ATOM     11  C   UNL     1       7.926  -0.175 -19.558  0.00  0.00    +0.000 A 
ATOM     12  C   UNL     1       7.682  -2.401 -20.221  0.00  0.00    +0.000 A 
ATOM     13  C   UNL     1       9.257  -0.571 -19.383  0.00  0.00    +0.000 A 
ATOM     14  C   UNL     1       3.642   0.045 -21.130  0.00  0.00    +0.000 C 
ATOM     15  C   UNL     1       5.395  -2.422 -20.464  0.00  0.00    +0.000 A 
ATOM     16  C   UNL     1       8.753   1.551 -18.630  0.00  0.00    +0.000 A 
ATOM     17  C   UNL     1       6.589  -3.235 -20.521  0.00  0.00    +0.000 A 
ATOM     18  C   UNL     1       9.012  -2.815 -20.076  0.00  0.00    +0.000 A 
ATOM     19  C   UNL     1       9.903  -1.804 -19.608  0.00  0.00    +0.000 A 
ATOM     20  C   UNL     1       9.812   0.576 -18.774  0.00  0.00    +0.000 A 
ATOM     21  C   UNL     1       9.828  -4.048 -20.213  0.00  0.00    +0.000 C 
ATOM     22  C   UNL     1       4.136  -3.014 -20.668  0.00  0.00    +0.000 A 
ATOM     23  C   UNL     1      11.239  -2.335 -19.444  0.00  0.00    +0.000 C 
ATOM     24  C   UNL     1       8.996   2.795 -18.029  0.00  0.00    +0.000 A 
ATOM     25  C   UNL     1       6.454  -4.610 -20.801  0.00  0.00    +0.000 A 
ATOM     26  C   UNL     1      11.088   0.915 -18.282  0.00  0.00    +0.000 A 
ATOM     27  C   UNL     1       4.055  -4.379 -20.944  0.00  0.00    +0.000 A 
ATOM     28  C   UNL     1       5.193  -5.166 -21.016  0.00  0.00    +0.000 A 
ATOM     29  C   UNL     1      10.281   3.077 -17.566  0.00  0.00    +0.000 A 
ATOM     30  C   UNL     1      11.311   2.157 -17.689  0.00  0.00    +0.000 A 
ATOM     31  H   UNL     1      11.850  -4.310 -19.824  0.00  0.00    +0.000 HD
ENDROOT
BRANCH   7  32
ATOM     32  O   UNL     1       4.323  -0.764 -17.720  0.00  0.00    +0.000 OA
ATOM     33  H   UNL     1       5.181  -0.762 -17.242  0.00  0.00    +0.000 HD
ENDBRANCH   7  32
BRANCH   7  35
ATOM     34  O   UNL     1       2.834   2.242 -18.907  0.00  0.00    +0.000 OA
ATOM     35  C   UNL     1       2.952   1.068 -18.550  0.00  0.00    +0.000 C 
BRANCH  35  36
ATOM     36  O   UNL     1       1.965   0.213 -18.147  0.00  0.00    +0.000 OA
ATOM     37  C   UNL     1       0.893  -0.005 -19.023  0.00  0.00    +0.000 C 
ENDBRANCH  35  36
ENDBRANCH   7  35
TORSDOF 3
ENDMDL
MODEL 2
REMARK VINA RESULT:      -7.7      1.700      7.856
REMARK  Name = 490561_Nocardiopsis.pdbqt.pdb
REMARK  3 active torsions:
REMARK  status: ('A' for Active; 'I' for Inactive)
REMARK    1  A    between atoms: C_7  and  O_32
REMARK    2  A    between atoms: C_7  and  C_35
REMARK    3  A    between atoms: C_35  and  O_36
REMARK                            x       y       z     vdW  Elec       q    Type
REMARK                         _______ _______ _______ _____ _____    ______ ____
ROOT
ATOM      1  O   UNL     1      10.458  -2.711 -20.995  0.00  0.00    +0.000 OA
ATOM      2  O   UNL     1       3.553  -0.054 -19.583  0.00  0.00    +0.000 OA
ATOM      3  N   UNL     1      10.211  -1.071 -19.309  0.00  0.00    +0.000 N 
ATOM      4  N   UNL     1       8.216  -3.017 -20.426  0.00  0.00    +0.000 N 
ATOM      5  N   UNL     1       4.900   1.587 -18.642  0.00  0.00    +0.000 N 
ATOM      6  C   UNL     1      11.079  -2.172 -19.775  0.00  0.00    +0.000 C 
ATOM      7  C   UNL     1      11.111  -3.411 -18.779  0.00  0.00    +0.000 C 
ATOM      8  C   UNL     1       9.471  -3.593 -20.520  0.00  0.00    +0.000 C 
ATOM      9  C   UNL     1       9.997  -4.171 -19.339  0.00  0.00    +0.000 C 
ATOM     10  C   UNL     1       8.860  -0.873 -19.447  0.00  0.00    +0.000 A 
ATOM     11  C   UNL     1       7.927  -1.764 -19.978  0.00  0.00    +0.000 A 
ATOM     12  C   UNL     1       8.288   0.297 -18.939  0.00  0.00    +0.000 A 
ATOM     13  C   UNL     1       6.592  -1.349 -19.913  0.00  0.00    +0.000 A 
ATOM     14  C   UNL     1      12.489  -1.663 -20.222  0.00  0.00    +0.000 C 
ATOM     15  C   UNL     1      10.544   0.078 -18.551  0.00  0.00    +0.000 A 
ATOM     16  C   UNL     1       6.918  -3.514 -20.641  0.00  0.00    +0.000 A 
ATOM     17  C   UNL     1       9.395   0.931 -18.346  0.00  0.00    +0.000 A 
ATOM     18  C   UNL     1       6.961   0.744 -18.884  0.00  0.00    +0.000 A 
ATOM     19  C   UNL     1       6.003  -0.166 -19.423  0.00  0.00    +0.000 A 
ATOM     20  C   UNL     1       5.918  -2.507 -20.361  0.00  0.00    +0.000 A 
ATOM     21  C   UNL     1       6.184   1.901 -18.370  0.00  0.00    +0.000 C 
ATOM     22  C   UNL     1      11.789   0.441 -18.008  0.00  0.00    +0.000 A 
ATOM     23  C   UNL     1       4.663   0.359 -19.278  0.00  0.00    +0.000 C 
ATOM     24  C   UNL     1       6.547  -4.793 -21.082  0.00  0.00    +0.000 A 
ATOM     25  C   UNL     1       9.564   2.124 -17.615  0.00  0.00    +0.000 A 
ATOM     26  C   UNL     1       4.565  -2.857 -20.535  0.00  0.00    +0.000 A 
ATOM     27  C   UNL     1      11.906   1.633 -17.294  0.00  0.00    +0.000 A 
ATOM     28  C   UNL     1      10.815   2.466 -17.103  0.00  0.00    +0.000 A 
ATOM     29  C   UNL     1       5.192  -5.081 -21.243  0.00  0.00    +0.000 A 
ATOM     30  C   UNL     1       4.216  -4.133 -20.976  0.00  0.00    +0.000 A 
ATOM     31  H   UNL     1       4.130   2.195 -18.405  0.00  0.00    +0.000 HD
ENDROOT
BRANCH   7  32
ATOM     32  O   UNL     1      10.816  -3.093 -17.411  0.00  0.00    +0.000 OA
ATOM     33  H   UNL     1      11.674  -2.968 -16.949  0.00  0.00    +0.000 HD
ENDBRANCH   7  32
BRANCH   7  35
ATOM     34  O   UNL     1      12.661  -4.894 -19.856  0.00  0.00    +0.000 OA
ATOM     35  C   UNL     1      12.425  -4.184 -18.876  0.00  0.00    +0.000 C 
BRANCH  35  36
ATOM     36  O   UNL     1      13.242  -3.928 -17.811  0.00  0.00    +0.000 OA
ATOM     37  C   UNL     1      14.447  -4.640 -17.729  0.00  0.00    +0.000 C 
ENDBRANCH  35  36
ENDBRANCH   7  35
TORSDOF 3
ENDMDL
MODEL 3
REMARK VINA RESULT:      -7.3      3.387      6.623
REMARK  Name = 490561_Nocardiopsis.pdbqt.pdb
REMARK  3 active torsions:
REMARK  status: ('A' for Active; 'I' for Inactive)
REMARK    1  A    between atoms: C_7  and  O_32
REMARK    2  A    between atoms: C_7  and  C_35
REMARK    3  A    between atoms: C_35  and  O_36
REMARK                            x       y       z     vdW  Elec       q    Type
REMARK                         _______ _______ _______ _____ _____    ______ ____
ROOT
ATOM      1  O   UNL     1      10.469  -3.512 -17.774  0.00  0.00    +0.000 OA
ATOM      2  O   UNL     1       8.230   3.556 -19.098  0.00  0.00    +0.000 OA
ATOM      3  N   UNL     1       9.804  -2.939 -19.969  0.00  0.00    +0.000 N 
ATOM      4  N   UNL     1      10.819  -1.206 -17.739  0.00  0.00    +0.000 N 
ATOM      5  N   UNL     1       7.344   2.423 -20.921  0.00  0.00    +0.000 N 
ATOM      6  C   UNL     1      10.623  -3.889 -19.188  0.00  0.00    +0.000 C 
ATOM      7  C   UNL     1      12.182  -3.743 -19.458  0.00  0.00    +0.000 C 
ATOM      8  C   UNL     1      11.385  -2.461 -17.594  0.00  0.00    +0.000 C 
ATOM      9  C   UNL     1      12.493  -2.760 -18.424  0.00  0.00    +0.000 C 
ATOM     10  C   UNL     1       9.453  -1.637 -19.718  0.00  0.00    +0.000 A 
ATOM     11  C   UNL     1       9.907  -0.828 -18.676  0.00  0.00    +0.000 A 
ATOM     12  C   UNL     1       8.618  -0.970 -20.619  0.00  0.00    +0.000 A 
ATOM     13  C   UNL     1       9.462   0.499 -18.706  0.00  0.00    +0.000 A 
ATOM     14  C   UNL     1      10.081  -5.353 -19.284  0.00  0.00    +0.000 C 
ATOM     15  C   UNL     1       9.180  -3.115 -21.230  0.00  0.00    +0.000 A 
ATOM     16  C   UNL     1      11.047   0.025 -17.098  0.00  0.00    +0.000 A 
ATOM     17  C   UNL     1       8.433  -1.941 -21.620  0.00  0.00    +0.000 A 
ATOM     18  C   UNL     1       8.142   0.347 -20.657  0.00  0.00    +0.000 A 
ATOM     19  C   UNL     1       8.606   1.179 -19.596  0.00  0.00    +0.000 A 
ATOM     20  C   UNL     1      10.212   1.068 -17.652  0.00  0.00    +0.000 A 
ATOM     21  C   UNL     1       7.303   1.215 -21.522  0.00  0.00    +0.000 C 
ATOM     22  C   UNL     1       9.221  -4.233 -22.081  0.00  0.00    +0.000 A 
ATOM     23  C   UNL     1       8.102   2.527 -19.746  0.00  0.00    +0.000 C 
ATOM     24  C   UNL     1      11.931   0.296 -16.043  0.00  0.00    +0.000 A 
ATOM     25  C   UNL     1       7.744  -1.961 -22.850  0.00  0.00    +0.000 A 
ATOM     26  C   UNL     1      10.325   2.362 -17.106  0.00  0.00    +0.000 A 
ATOM     27  C   UNL     1       8.521  -4.204 -23.287  0.00  0.00    +0.000 A 
ATOM     28  C   UNL     1       7.789  -3.090 -23.666  0.00  0.00    +0.000 A 
ATOM     29  C   UNL     1      11.996   1.595 -15.537  0.00  0.00    +0.000 A 
ATOM     30  C   UNL     1      11.208   2.611 -16.057  0.00  0.00    +0.000 A 
ATOM     31  H   UNL     1       6.858   3.229 -21.287  0.00  0.00    +0.000 HD
ENDROOT
BRANCH   7  32
ATOM     32  O   UNL     1      12.524  -3.194 -20.739  0.00  0.00    +0.000 OA
ATOM     33  H   UNL     1      12.235  -2.255 -20.741  0.00  0.00    +0.000 HD
ENDBRANCH   7  32
BRANCH   7  35
ATOM     34  O   UNL     1      13.295  -5.744 -20.181  0.00  0.00    +0.000 OA
ATOM     35  C   UNL     1      12.925  -5.058 -19.226  0.00  0.00    +0.000 C 
BRANCH  35  36
ATOM     36  O   UNL     1      13.138  -5.290 -17.895  0.00  0.00    +0.000 OA
ATOM     37  C   UNL     1      14.273  -6.030 -17.537  0.00  0.00    +0.000 C 
ENDBRANCH  35  36
ENDBRANCH   7  35
TORSDOF 3
ENDMDL
MODEL 4
REMARK VINA RESULT:      -7.1     16.451     17.991
REMARK  Name = 490561_Nocardiopsis.pdbqt.pdb
REMARK  3 active torsions:
REMARK  status: ('A' for Active; 'I' for Inactive)
REMARK    1  A    between atoms: C_7  and  O_32
REMARK    2  A    between atoms: C_7  and  C_35
REMARK    3  A    between atoms: C_35  and  O_36
REMARK                            x       y       z     vdW  Elec       q    Type
REMARK                         _______ _______ _______ _____ _____    ______ ____
ROOT
ATOM      1  O   UNL     1       9.766  -7.645  -2.498  0.00  0.00    +0.000 OA
ATOM      2  O   UNL     1      12.355  -6.688  -9.506  0.00  0.00    +0.000 OA
ATOM      3  N   UNL     1      11.986  -8.307  -2.974  0.00  0.00    +0.000 N 
ATOM      4  N   UNL     1      10.222  -6.308  -4.354  0.00  0.00    +0.000 N 
ATOM      5  N   UNL     1      13.851  -8.245  -8.651  0.00  0.00    +0.000 N 
ATOM      6  C   UNL     1      11.080  -7.887  -1.884  0.00  0.00    +0.000 C 
ATOM      7  C   UNL     1      11.472  -6.484  -1.247  0.00  0.00    +0.000 C 
ATOM      8  C   UNL     1       9.861  -6.343  -3.019  0.00  0.00    +0.000 C 
ATOM      9  C   UNL     1      10.681  -5.620  -2.118  0.00  0.00    +0.000 C 
ATOM     10  C   UNL     1      11.983  -8.002  -4.311  0.00  0.00    +0.000 A 
ATOM     11  C   UNL     1      11.158  -7.087  -4.966  0.00  0.00    +0.000 A 
ATOM     12  C   UNL     1      12.946  -8.579  -5.143  0.00  0.00    +0.000 A 
ATOM     13  C   UNL     1      11.428  -6.896  -6.325  0.00  0.00    +0.000 A 
ATOM     14  C   UNL     1      10.843  -9.029  -0.842  0.00  0.00    +0.000 C 
ATOM     15  C   UNL     1      13.142  -9.124  -2.918  0.00  0.00    +0.000 A 
ATOM     16  C   UNL     1       9.860  -5.465  -5.421  0.00  0.00    +0.000 A 
ATOM     17  C   UNL     1      13.715  -9.322  -4.230  0.00  0.00    +0.000 A 
ATOM     18  C   UNL     1      13.221  -8.421  -6.508  0.00  0.00    +0.000 A 
ATOM     19  C   UNL     1      12.382  -7.483  -7.181  0.00  0.00    +0.000 A 
ATOM     20  C   UNL     1      10.562  -5.823  -6.634  0.00  0.00    +0.000 A 
ATOM     21  C   UNL     1      14.191  -8.905  -7.524  0.00  0.00    +0.000 C 
ATOM     22  C   UNL     1      13.749  -9.710  -1.794  0.00  0.00    +0.000 A 
ATOM     23  C   UNL     1      12.771  -7.353  -8.569  0.00  0.00    +0.000 C 
ATOM     24  C   UNL     1       8.940  -4.406  -5.408  0.00  0.00    +0.000 A 
ATOM     25  C   UNL     1      14.870 -10.122  -4.345  0.00  0.00    +0.000 A 
ATOM     26  C   UNL     1      10.298  -5.068  -7.794  0.00  0.00    +0.000 A 
ATOM     27  C   UNL     1      14.890 -10.495  -1.960  0.00  0.00    +0.000 A 
ATOM     28  C   UNL     1      15.440 -10.705  -3.214  0.00  0.00    +0.000 A 
ATOM     29  C   UNL     1       8.713  -3.698  -6.588  0.00  0.00    +0.000 A 
ATOM     30  C   UNL     1       9.378  -4.021  -7.762  0.00  0.00    +0.000 A 
ATOM     31  H   UNL     1      14.341  -8.371  -9.524  0.00  0.00    +0.000 HD
ENDROOT
BRANCH   7  32
ATOM     32  O   UNL     1      12.857  -6.130  -1.374  0.00  0.00    +0.000 OA
ATOM     33  H   UNL     1      13.343  -6.596  -0.659  0.00  0.00    +0.000 HD
ENDBRANCH   7  32
BRANCH   7  35
ATOM     34  O   UNL     1      11.715  -6.853   1.112  0.00  0.00    +0.000 OA
ATOM     35  C   UNL     1      11.024  -6.377   0.209  0.00  0.00    +0.000 C 
BRANCH  35  36
ATOM     36  O   UNL     1       9.859  -5.672   0.330  0.00  0.00    +0.000 OA
ATOM     37  C   UNL     1       9.548  -5.137   1.587  0.00  0.00    +0.000 C 
ENDBRANCH  35  36
ENDBRANCH   7  35
TORSDOF 3
ENDMDL
MODEL 5
REMARK VINA RESULT:      -6.9     21.985     25.465
REMARK  Name = 490561_Nocardiopsis.pdbqt.pdb
REMARK  3 active torsions:
REMARK  status: ('A' for Active; 'I' for Inactive)
REMARK    1  A    between atoms: C_7  and  O_32
REMARK    2  A    between atoms: C_7  and  C_35
REMARK    3  A    between atoms: C_35  and  O_36
REMARK                            x       y       z     vdW  Elec       q    Type
REMARK                         _______ _______ _______ _____ _____    ______ ____
ROOT
ATOM      1  O   UNL     1     -14.204   7.456 -11.776  0.00  0.00    +0.000 OA
ATOM      2  O   UNL     1     -14.284  11.834  -5.648  0.00  0.00    +0.000 OA
ATOM      3  N   UNL     1     -13.054   6.710  -9.850  0.00  0.00    +0.000 N 
ATOM      4  N   UNL     1     -15.332   8.645 -10.116  0.00  0.00    +0.000 N 
ATOM      5  N   UNL     1     -12.473  10.444  -5.221  0.00  0.00    +0.000 N 
ATOM      6  C   UNL     1     -13.706   6.252 -11.095  0.00  0.00    +0.000 C 
ATOM      7  C   UNL     1     -15.013   5.386 -10.836  0.00  0.00    +0.000 C 
ATOM      8  C   UNL     1     -15.432   7.727 -11.147  0.00  0.00    +0.000 C 
ATOM      9  C   UNL     1     -15.994   6.467 -10.825  0.00  0.00    +0.000 C 
ATOM     10  C   UNL     1     -13.297   7.804  -9.059  0.00  0.00    +0.000 A 
ATOM     11  C   UNL     1     -14.343   8.718  -9.183  0.00  0.00    +0.000 A 
ATOM     12  C   UNL     1     -12.489   8.029  -7.941  0.00  0.00    +0.000 A 
ATOM     13  C   UNL     1     -14.415   9.693  -8.181  0.00  0.00    +0.000 A 
ATOM     14  C   UNL     1     -12.687   5.608 -12.092  0.00  0.00    +0.000 C 
ATOM     15  C   UNL     1     -12.006   6.108  -9.110  0.00  0.00    +0.000 A 
ATOM     16  C   UNL     1     -16.190   9.661  -9.655  0.00  0.00    +0.000 A 
ATOM     17  C   UNL     1     -11.633   6.913  -7.968  0.00  0.00    +0.000 A 
ATOM     18  C   UNL     1     -12.527   9.008  -6.939  0.00  0.00    +0.000 A 
ATOM     19  C   UNL     1     -13.598   9.943  -7.060  0.00  0.00    +0.000 A 
ATOM     20  C   UNL     1     -15.637  10.327  -8.496  0.00  0.00    +0.000 A 
ATOM     21  C   UNL     1     -11.800   9.375  -5.697  0.00  0.00    +0.000 C 
ATOM     22  C   UNL     1     -11.347   4.891  -9.352  0.00  0.00    +0.000 A 
ATOM     23  C   UNL     1     -13.582  10.882  -5.959  0.00  0.00    +0.000 C 
ATOM     24  C   UNL     1     -17.425  10.056 -10.191  0.00  0.00    +0.000 A 
ATOM     25  C   UNL     1     -10.595   6.454  -7.132  0.00  0.00    +0.000 A 
ATOM     26  C   UNL     1     -16.384  11.374  -7.921  0.00  0.00    +0.000 A 
ATOM     27  C   UNL     1     -10.325   4.481  -8.496  0.00  0.00    +0.000 A 
ATOM     28  C   UNL     1      -9.948   5.250  -7.407  0.00  0.00    +0.000 A 
ATOM     29  C   UNL     1     -18.116  11.104  -9.584  0.00  0.00    +0.000 A 
ATOM     30  C   UNL     1     -17.608  11.754  -8.470  0.00  0.00    +0.000 A 
ATOM     31  H   UNL     1     -12.207  10.920  -4.372  0.00  0.00    +0.000 HD
ENDROOT
BRANCH   7  32
ATOM     32  O   UNL     1     -15.050   4.711  -9.570  0.00  0.00    +0.000 OA
ATOM     33  H   UNL     1     -14.268   4.118  -9.533  0.00  0.00    +0.000 HD
ENDBRANCH   7  32
BRANCH   7  35
ATOM     34  O   UNL     1     -14.892   3.232 -11.889  0.00  0.00    +0.000 OA
ATOM     35  C   UNL     1     -15.276   4.400 -11.974  0.00  0.00    +0.000 C 
BRANCH  35  36
ATOM     36  O   UNL     1     -15.996   4.974 -12.984  0.00  0.00    +0.000 OA
ATOM     37  C   UNL     1     -15.486   4.875 -14.286  0.00  0.00    +0.000 C 
ENDBRANCH  35  36
ENDBRANCH   7  35
TORSDOF 3
ENDMDL
MODEL 6
REMARK VINA RESULT:      -6.8     21.845     26.019
REMARK  Name = 490561_Nocardiopsis.pdbqt.pdb
REMARK  3 active torsions:
REMARK  status: ('A' for Active; 'I' for Inactive)
REMARK    1  A    between atoms: C_7  and  O_32
REMARK    2  A    between atoms: C_7  and  C_35
REMARK    3  A    between atoms: C_35  and  O_36
REMARK                            x       y       z     vdW  Elec       q    Type
REMARK                         _______ _______ _______ _____ _____    ______ ____
ROOT
ATOM      1  O   UNL     1     -13.858   6.421  -8.403  0.00  0.00    +0.000 OA
ATOM      2  O   UNL     1     -18.408  12.250  -9.835  0.00  0.00    +0.000 OA
ATOM      3  N   UNL     1     -14.741   6.645 -10.584  0.00  0.00    +0.000 N 
ATOM      4  N   UNL     1     -14.313   8.709  -8.448  0.00  0.00    +0.000 N 
ATOM      5  N   UNL     1     -18.906  10.811 -11.588  0.00  0.00    +0.000 N 
ATOM      6  C   UNL     1     -13.625   6.062  -9.810  0.00  0.00    +0.000 C 
ATOM      7  C   UNL     1     -12.217   6.717 -10.147  0.00  0.00    +0.000 C 
ATOM      8  C   UNL     1     -13.350   7.727  -8.290  0.00  0.00    +0.000 C 
ATOM      9  C   UNL     1     -12.230   7.789  -9.155  0.00  0.00    +0.000 C 
ATOM     10  C   UNL     1     -15.507   7.760 -10.356  0.00  0.00    +0.000 A 
ATOM     11  C   UNL     1     -15.326   8.717  -9.357  0.00  0.00    +0.000 A 
ATOM     12  C   UNL     1     -16.544   8.066 -11.241  0.00  0.00    +0.000 A 
ATOM     13  C   UNL     1     -16.197   9.811  -9.406  0.00  0.00    +0.000 A 
ATOM     14  C   UNL     1     -13.638   4.498  -9.842  0.00  0.00    +0.000 C 
ATOM     15  C   UNL     1     -15.303   6.217 -11.813  0.00  0.00    +0.000 A 
ATOM     16  C   UNL     1     -14.500   9.969  -7.851  0.00  0.00    +0.000 A 
ATOM     17  C   UNL     1     -16.416   7.050 -12.206  0.00  0.00    +0.000 A 
ATOM     18  C   UNL     1     -17.442   9.141 -11.297  0.00  0.00    +0.000 A 
ATOM     19  C   UNL     1     -17.258  10.124 -10.280  0.00  0.00    +0.000 A 
ATOM     20  C   UNL     1     -15.655  10.643  -8.401  0.00  0.00    +0.000 A 
ATOM     21  C   UNL     1     -18.550   9.638 -12.152  0.00  0.00    +0.000 C 
ATOM     22  C   UNL     1     -14.908   5.146 -12.633  0.00  0.00    +0.000 A 
ATOM     23  C   UNL     1     -18.195  11.214 -10.447  0.00  0.00    +0.000 C 
ATOM     24  C   UNL     1     -13.731  10.567  -6.841  0.00  0.00    +0.000 A 
ATOM     25  C   UNL     1     -17.092   6.749 -13.406  0.00  0.00    +0.000 A 
ATOM     26  C   UNL     1     -15.974  11.920  -7.897  0.00  0.00    +0.000 A 
ATOM     27  C   UNL     1     -15.610   4.887 -13.810  0.00  0.00    +0.000 A 
ATOM     28  C   UNL     1     -16.688   5.669 -14.190  0.00  0.00    +0.000 A 
ATOM     29  C   UNL     1     -14.098  11.829  -6.375  0.00  0.00    +0.000 A 
ATOM     30  C   UNL     1     -15.200  12.496  -6.891  0.00  0.00    +0.000 A 
ATOM     31  H   UNL     1     -19.647  11.389 -11.956  0.00  0.00    +0.000 HD
ENDROOT
BRANCH   7  32
ATOM     32  O   UNL     1     -12.120   7.298 -11.457  0.00  0.00    +0.000 OA
ATOM     33  H   UNL     1     -11.727   8.192 -11.351  0.00  0.00    +0.000 HD
ENDBRANCH   7  32
BRANCH   7  35
ATOM     34  O   UNL     1     -10.611   5.072 -10.837  0.00  0.00    +0.000 OA
ATOM     35  C   UNL     1     -11.065   5.743  -9.908  0.00  0.00    +0.000 C 
BRANCH  35  36
ATOM     36  O   UNL     1     -10.628   5.785  -8.613  0.00  0.00    +0.000 OA
ATOM     37  C   UNL     1     -10.269   4.573  -8.008  0.00  0.00    +0.000 C 
ENDBRANCH  35  36
ENDBRANCH   7  35
TORSDOF 3
ENDMDL
MODEL 7
REMARK VINA RESULT:      -6.8     13.656     15.648
REMARK  Name = 490561_Nocardiopsis.pdbqt.pdb
REMARK  3 active torsions:
REMARK  status: ('A' for Active; 'I' for Inactive)
REMARK    1  A    between atoms: C_7  and  O_32
REMARK    2  A    between atoms: C_7  and  C_35
REMARK    3  A    between atoms: C_35  and  O_36
REMARK                            x       y       z     vdW  Elec       q    Type
REMARK                         _______ _______ _______ _____ _____    ______ ____
ROOT
ATOM      1  O   UNL     1      12.030  -6.856  -8.939  0.00  0.00    +0.000 OA
ATOM      2  O   UNL     1      19.253  -8.981  -9.118  0.00  0.00    +0.000 OA
ATOM      3  N   UNL     1      12.970  -7.799  -6.985  0.00  0.00    +0.000 N 
ATOM      4  N   UNL     1      14.292  -6.414  -9.296  0.00  0.00    +0.000 N 
ATOM      5  N   UNL     1      18.453 -10.157  -7.282  0.00  0.00    +0.000 N 
ATOM      6  C   UNL     1      11.891  -6.916  -7.476  0.00  0.00    +0.000 C 
ATOM      7  C   UNL     1      12.056  -5.406  -7.010  0.00  0.00    +0.000 C 
ATOM      8  C   UNL     1      13.022  -5.883  -9.152  0.00  0.00    +0.000 C 
ATOM      9  C   UNL     1      12.849  -4.915  -8.134  0.00  0.00    +0.000 C 
ATOM     10  C   UNL     1      14.218  -8.060  -7.493  0.00  0.00    +0.000 A 
ATOM     11  C   UNL     1      14.835  -7.434  -8.575  0.00  0.00    +0.000 A 
ATOM     12  C   UNL     1      15.037  -8.987  -6.842  0.00  0.00    +0.000 A 
ATOM     13  C   UNL     1      16.155  -7.826  -8.826  0.00  0.00    +0.000 A 
ATOM     14  C   UNL     1      10.472  -7.523  -7.223  0.00  0.00    +0.000 C 
ATOM     15  C   UNL     1      13.015  -8.600  -5.817  0.00  0.00    +0.000 A 
ATOM     16  C   UNL     1      15.396  -6.051 -10.090  0.00  0.00    +0.000 A 
ATOM     17  C   UNL     1      14.249  -9.348  -5.734  0.00  0.00    +0.000 A 
ATOM     18  C   UNL     1      16.350  -9.412  -7.088  0.00  0.00    +0.000 A 
ATOM     19  C   UNL     1      16.987  -8.771  -8.192  0.00  0.00    +0.000 A 
ATOM     20  C   UNL     1      16.529  -6.914  -9.838  0.00  0.00    +0.000 A 
ATOM     21  C   UNL     1      17.363 -10.328  -6.505  0.00  0.00    +0.000 C 
ATOM     22  C   UNL     1      12.054  -8.723  -4.799  0.00  0.00    +0.000 A 
ATOM     23  C   UNL     1      18.349  -9.238  -8.337  0.00  0.00    +0.000 C 
ATOM     24  C   UNL     1      15.475  -5.018 -11.036  0.00  0.00    +0.000 A 
ATOM     25  C   UNL     1      14.445 -10.202  -4.630  0.00  0.00    +0.000 A 
ATOM     26  C   UNL     1      17.712  -6.675 -10.565  0.00  0.00    +0.000 A 
ATOM     27  C   UNL     1      12.294  -9.582  -3.727  0.00  0.00    +0.000 A 
ATOM     28  C   UNL     1      13.466 -10.316  -3.644  0.00  0.00    +0.000 A 
ATOM     29  C   UNL     1      16.669  -4.832 -11.731  0.00  0.00    +0.000 A 
ATOM     30  C   UNL     1      17.770  -5.645 -11.502  0.00  0.00    +0.000 A 
ATOM     31  H   UNL     1      19.316 -10.657  -7.127  0.00  0.00    +0.000 HD
ENDROOT
BRANCH   7  32
ATOM     32  O   UNL     1      12.805  -5.226  -5.799  0.00  0.00    +0.000 OA
ATOM     33  H   UNL     1      13.031  -4.272  -5.735  0.00  0.00    +0.000 HD
ENDBRANCH   7  32
BRANCH   7  35
ATOM     34  O   UNL     1      10.148  -4.280  -7.934  0.00  0.00    +0.000 OA
ATOM     35  C   UNL     1      10.710  -4.690  -6.916  0.00  0.00    +0.000 C 
BRANCH  35  36
ATOM     36  O   UNL     1      10.251  -4.642  -5.629  0.00  0.00    +0.000 OA
ATOM     37  C   UNL     1       8.928  -4.226  -5.424  0.00  0.00    +0.000 C 
ENDBRANCH  35  36
ENDBRANCH   7  35
TORSDOF 3
ENDMDL
MODEL 8
REMARK VINA RESULT:      -6.7     20.638     23.417
REMARK  Name = 490561_Nocardiopsis.pdbqt.pdb
REMARK  3 active torsions:
REMARK  status: ('A' for Active; 'I' for Inactive)
REMARK    1  A    between atoms: C_7  and  O_32
REMARK    2  A    between atoms: C_7  and  C_35
REMARK    3  A    between atoms: C_35  and  O_36
REMARK                            x       y       z     vdW  Elec       q    Type
REMARK                         _______ _______ _______ _____ _____    ______ ____
ROOT
ATOM      1  O   UNL     1       8.877   4.410   4.289  0.00  0.00    +0.000 OA
ATOM      2  O   UNL     1       6.076   4.350  -2.703  0.00  0.00    +0.000 OA
ATOM      3  N   UNL     1       9.644   6.042   2.759  0.00  0.00    +0.000 N 
ATOM      4  N   UNL     1       7.088   4.468   2.792  0.00  0.00    +0.000 N 
ATOM      5  N   UNL     1       8.012   5.603  -2.973  0.00  0.00    +0.000 N 
ATOM      6  C   UNL     1       9.479   5.749   4.198  0.00  0.00    +0.000 C 
ATOM      7  C   UNL     1       8.422   6.696   4.914  0.00  0.00    +0.000 C 
ATOM      8  C   UNL     1       7.502   4.635   4.102  0.00  0.00    +0.000 C 
ATOM      9  C   UNL     1       7.224   5.888   4.702  0.00  0.00    +0.000 C 
ATOM     10  C   UNL     1       8.927   5.619   1.668  0.00  0.00    +0.000 A 
ATOM     11  C   UNL     1       7.748   4.874   1.672  0.00  0.00    +0.000 A 
ATOM     12  C   UNL     1       9.331   6.019   0.391  0.00  0.00    +0.000 A 
ATOM     13  C   UNL     1       7.168   4.657   0.417  0.00  0.00    +0.000 A 
ATOM     14  C   UNL     1      10.852   5.633   4.938  0.00  0.00    +0.000 C 
ATOM     15  C   UNL     1      10.584   6.884   2.115  0.00  0.00    +0.000 A 
ATOM     16  C   UNL     1       5.906   3.963   2.219  0.00  0.00    +0.000 A 
ATOM     17  C   UNL     1      10.425   6.855   0.679  0.00  0.00    +0.000 A 
ATOM     18  C   UNL     1       8.781   5.795  -0.878  0.00  0.00    +0.000 A 
ATOM     19  C   UNL     1       7.573   5.037  -0.879  0.00  0.00    +0.000 A 
ATOM     20  C   UNL     1       5.947   4.044   0.776  0.00  0.00    +0.000 A 
ATOM     21  C   UNL     1       9.040   6.156  -2.295  0.00  0.00    +0.000 C 
ATOM     22  C   UNL     1      11.577   7.694   2.692  0.00  0.00    +0.000 A 
ATOM     23  C   UNL     1       7.057   4.900  -2.224  0.00  0.00    +0.000 C 
ATOM     24  C   UNL     1       4.794   3.419   2.879  0.00  0.00    +0.000 A 
ATOM     25  C   UNL     1      11.294   7.635  -0.110  0.00  0.00    +0.000 A 
ATOM     26  C   UNL     1       4.831   3.570   0.059  0.00  0.00    +0.000 A 
ATOM     27  C   UNL     1      12.413   8.447   1.869  0.00  0.00    +0.000 A 
ATOM     28  C   UNL     1      12.281   8.416   0.490  0.00  0.00    +0.000 A 
ATOM     29  C   UNL     1       3.720   2.959   2.117  0.00  0.00    +0.000 A 
ATOM     30  C   UNL     1       3.735   3.031   0.732  0.00  0.00    +0.000 A 
ATOM     31  H   UNL     1       7.916   5.682  -3.974  0.00  0.00    +0.000 HD
ENDROOT
BRANCH   7  32
ATOM     32  O   UNL     1       8.236   7.974   4.289  0.00  0.00    +0.000 OA
ATOM     33  H   UNL     1       8.366   8.659   4.982  0.00  0.00    +0.000 HD
ENDBRANCH   7  32
BRANCH   7  35
ATOM     34  O   UNL     1       8.457   5.972   7.203  0.00  0.00    +0.000 OA
ATOM     35  C   UNL     1       8.729   6.868   6.401  0.00  0.00    +0.000 C 
BRANCH  35  36
ATOM     36  O   UNL     1       9.355   8.057   6.654  0.00  0.00    +0.000 OA
ATOM     37  C   UNL     1      10.238   8.109   7.741  0.00  0.00    +0.000 C 
ENDBRANCH  35  36
ENDBRANCH   7  35
TORSDOF 3
ENDMDL
MODEL 9
REMARK VINA RESULT:      -6.6     23.407     26.964
REMARK  Name = 490561_Nocardiopsis.pdbqt.pdb
REMARK  3 active torsions:
REMARK  status: ('A' for Active; 'I' for Inactive)
REMARK    1  A    between atoms: C_7  and  O_32
REMARK    2  A    between atoms: C_7  and  C_35
REMARK    3  A    between atoms: C_35  and  O_36
REMARK                            x       y       z     vdW  Elec       q    Type
REMARK                         _______ _______ _______ _____ _____    ______ ____
ROOT
ATOM      1  O   UNL     1      -6.954   0.747  -0.153  0.00  0.00    +0.000 OA
ATOM      2  O   UNL     1     -13.560  -2.781   0.654  0.00  0.00    +0.000 OA
ATOM      3  N   UNL     1      -7.904   0.627   2.008  0.00  0.00    +0.000 N 
ATOM      4  N   UNL     1      -8.325  -1.125  -0.392  0.00  0.00    +0.000 N 
ATOM      5  N   UNL     1     -13.454  -1.510   2.595  0.00  0.00    +0.000 N 
ATOM      6  C   UNL     1      -6.628   0.787   1.280  0.00  0.00    +0.000 C 
ATOM      7  C   UNL     1      -5.632  -0.435   1.484  0.00  0.00    +0.000 C 
ATOM      8  C   UNL     1      -7.036  -0.625  -0.451  0.00  0.00    +0.000 C 
ATOM      9  C   UNL     1      -6.068  -1.262   0.362  0.00  0.00    +0.000 C 
ATOM     10  C   UNL     1      -9.061  -0.025   1.662  0.00  0.00    +0.000 A 
ATOM     11  C   UNL     1      -9.272  -0.829   0.541  0.00  0.00    +0.000 A 
ATOM     12  C   UNL     1     -10.153   0.017   2.533  0.00  0.00    +0.000 A 
ATOM     13  C   UNL     1     -10.521  -1.456   0.476  0.00  0.00    +0.000 A 
ATOM     14  C   UNL     1      -5.987   2.194   1.516  0.00  0.00    +0.000 C 
ATOM     15  C   UNL     1      -8.267   1.085   3.300  0.00  0.00    +0.000 A 
ATOM     16  C   UNL     1      -9.007  -2.102  -1.141  0.00  0.00    +0.000 A 
ATOM     17  C   UNL     1      -9.636   0.749   3.617  0.00  0.00    +0.000 A 
ATOM     18  C   UNL     1     -11.419  -0.582   2.477  0.00  0.00    +0.000 A 
ATOM     19  C   UNL     1     -11.638  -1.408   1.335  0.00  0.00    +0.000 A 
ATOM     20  C   UNL     1     -10.352  -2.297  -0.647  0.00  0.00    +0.000 A 
ATOM     21  C   UNL     1     -12.654  -0.678   3.296  0.00  0.00    +0.000 C 
ATOM     22  C   UNL     1      -7.481   1.775   4.238  0.00  0.00    +0.000 A 
ATOM     23  C   UNL     1     -12.949  -2.019   1.389  0.00  0.00    +0.000 C 
ATOM     24  C   UNL     1      -8.534  -2.827  -2.245  0.00  0.00    +0.000 A 
ATOM     25  C   UNL     1     -10.154   1.144   4.866  0.00  0.00    +0.000 A 
ATOM     26  C   UNL     1     -11.163  -3.245  -1.302  0.00  0.00    +0.000 A 
ATOM     27  C   UNL     1      -8.039   2.146   5.461  0.00  0.00    +0.000 A 
ATOM     28  C   UNL     1      -9.355   1.843   5.772  0.00  0.00    +0.000 A 
ATOM     29  C   UNL     1      -9.384  -3.747  -2.859  0.00  0.00    +0.000 A 
ATOM     30  C   UNL     1     -10.676  -3.954  -2.398  0.00  0.00    +0.000 A 
ATOM     31  H   UNL     1     -14.378  -1.768   2.909  0.00  0.00    +0.000 HD
ENDROOT
BRANCH   7  32
ATOM     32  O   UNL     1      -5.820  -1.170   2.703  0.00  0.00    +0.000 OA
ATOM     33  H   UNL     1      -6.675  -0.881   3.089  0.00  0.00    +0.000 HD
ENDBRANCH   7  32
BRANCH   7  35
ATOM     34  O   UNL     1      -3.698   0.220   0.222  0.00  0.00    +0.000 OA
ATOM     35  C   UNL     1      -4.173  -0.009   1.336  0.00  0.00    +0.000 C 
BRANCH  35  36
ATOM     36  O   UNL     1      -3.558   0.120   2.550  0.00  0.00    +0.000 OA
ATOM     37  C   UNL     1      -2.309   0.755   2.584  0.00  0.00    +0.000 C 
ENDBRANCH  35  36
ENDBRANCH   7  35
TORSDOF 3
ENDMDL
