MODEL 1
REMARK VINA RESULT:      -6.4      0.000      0.000
REMARK  Name = 50922675_Encorafenib.pdbqt.pdb
REMARK  8 active torsions:
REMARK  status: ('A' for Active; 'I' for Inactive)
REMARK    1  A    between atoms: N_1  and  C_37
REMARK    2  A    between atoms: C_3  and  C_23
REMARK    3  A    between atoms: C_4  and  C_8
REMARK    4  A    between atoms: C_11  and  N_14
REMARK    5  A    between atoms: N_14  and  S_16
REMARK    6  A    between atoms: N_20  and  C_28
REMARK    7  A    between atoms: C_28  and  C_29
REMARK    8  A    between atoms: C_33  and  O_35
REMARK                            x       y       z     vdW  Elec       q    Type
REMARK                         _______ _______ _______ _____ _____    ______ ____
ROOT
ATOM      1  N   UNL     1      -7.724   2.163 -22.412  0.00  0.00    +0.000 N 
ATOM      2  N   UNL     1      -6.564   2.646 -21.840  0.00  0.00    +0.000 NA
ATOM      3  C   UNL     1      -6.323   0.405 -22.198  0.00  0.00    +0.000 A 
ATOM      4  C   UNL     1      -5.720   1.608 -21.738  0.00  0.00    +0.000 A 
ATOM      5  C   UNL     1      -7.574   0.796 -22.610  0.00  0.00    +0.000 A 
ENDROOT
BRANCH   4   8
ATOM      6 CL   UNL     1      -1.108   3.870 -22.116  0.00  0.00    +0.000 Cl
ATOM      7  F   UNL     1      -4.842   0.392 -19.304  0.00  0.00    +0.000 F 
ATOM      8  C   UNL     1      -4.400   1.827 -21.160  0.00  0.00    +0.000 A 
ATOM      9  C   UNL     1      -4.001   1.195 -19.976  0.00  0.00    +0.000 A 
ATOM     10  C   UNL     1      -3.484   2.640 -21.829  0.00  0.00    +0.000 A 
ATOM     11  C   UNL     1      -2.718   1.390 -19.454  0.00  0.00    +0.000 A 
ATOM     12  C   UNL     1      -2.207   2.831 -21.312  0.00  0.00    +0.000 A 
ATOM     13  C   UNL     1      -1.813   2.198 -20.139  0.00  0.00    +0.000 A 
BRANCH  11  14
ATOM     14  N   UNL     1      -2.298   0.652 -18.295  0.00  0.00    +0.000 N 
ATOM     15  H   UNL     1      -1.664   1.181 -17.689  0.00  0.00    +0.000 HD
BRANCH  14  16
ATOM     16  S   UNL     1      -1.634  -0.868 -18.530  0.00  0.00    +0.000 S 
ATOM     17  O   UNL     1      -0.200  -0.838 -18.428  0.00  0.00    +0.000 OA
ATOM     18  O   UNL     1      -2.489  -1.959 -18.118  0.00  0.00    +0.000 OA
ATOM     19  C   UNL     1      -1.731  -1.152 -20.272  0.00  0.00    +0.000 C 
ENDBRANCH  14  16
ENDBRANCH  11  14
ENDBRANCH   4   8
BRANCH   3  23
ATOM     20  N   UNL     1      -7.177  -4.243 -21.695  0.00  0.00    +0.000 N 
ATOM     21  N   UNL     1      -6.719  -1.929 -21.955  0.00  0.00    +0.000 NA
ATOM     22  N   UNL     1      -5.091  -3.563 -22.458  0.00  0.00    +0.000 NA
ATOM     23  C   UNL     1      -5.848  -0.965 -22.307  0.00  0.00    +0.000 A 
ATOM     24  C   UNL     1      -6.310  -3.207 -22.043  0.00  0.00    +0.000 A 
ATOM     25  C   UNL     1      -4.570  -1.233 -22.742  0.00  0.00    +0.000 A 
ATOM     26  C   UNL     1      -4.253  -2.567 -22.796  0.00  0.00    +0.000 A 
ATOM     27  H   UNL     1      -6.635  -5.094 -21.595  0.00  0.00    +0.000 HD
BRANCH  20  28
ATOM     28  C   UNL     1      -8.195  -3.945 -20.695  0.00  0.00    +0.000 C 
BRANCH  28  29
ATOM     29  C   UNL     1      -9.269  -3.639 -19.820  0.00  0.00    +0.000 C 
ATOM     30  C   UNL     1      -8.941  -2.980 -18.514  0.00  0.00    +0.000 C 
ATOM     31  O   UNL     1     -10.473  -4.801 -22.159  0.00  0.00    +0.000 OA
ATOM     32  N   UNL     1     -10.580  -3.696 -20.149  0.00  0.00    +0.000 N 
ATOM     33  C   UNL     1     -11.122  -4.224 -21.292  0.00  0.00    +0.000 C 
ATOM     34  H   UNL     1     -11.210  -3.263 -19.479  0.00  0.00    +0.000 HD
BRANCH  33  35
ATOM     35  O   UNL     1     -12.482  -4.018 -21.300  0.00  0.00    +0.000 OA
ATOM     36  C   UNL     1     -13.067  -3.480 -22.459  0.00  0.00    +0.000 C 
ENDBRANCH  33  35
ENDBRANCH  28  29
ENDBRANCH  20  28
ENDBRANCH   3  23
BRANCH   1  37
ATOM     37  C   UNL     1      -8.896   2.882 -22.751  0.00  0.00    +0.000 C 
ATOM     38  C   UNL     1      -9.596   3.794 -21.758  0.00  0.00    +0.000 C 
ATOM     39  C   UNL     1      -9.522   2.806 -24.128  0.00  0.00    +0.000 C 
ENDBRANCH   1  37
TORSDOF 8
ENDMDL
MODEL 2
REMARK VINA RESULT:      -6.3      4.206      5.700
REMARK  Name = 50922675_Encorafenib.pdbqt.pdb
REMARK  8 active torsions:
REMARK  status: ('A' for Active; 'I' for Inactive)
REMARK    1  A    between atoms: N_1  and  C_37
REMARK    2  A    between atoms: C_3  and  C_23
REMARK    3  A    between atoms: C_4  and  C_8
REMARK    4  A    between atoms: C_11  and  N_14
REMARK    5  A    between atoms: N_14  and  S_16
REMARK    6  A    between atoms: N_20  and  C_28
REMARK    7  A    between atoms: C_28  and  C_29
REMARK    8  A    between atoms: C_33  and  O_35
REMARK                            x       y       z     vdW  Elec       q    Type
REMARK                         _______ _______ _______ _____ _____    ______ ____
ROOT
ATOM      1  N   UNL     1      -1.919  -0.599 -23.093  0.00  0.00    +0.000 N 
ATOM      2  N   UNL     1      -0.821  -1.350 -22.725  0.00  0.00    +0.000 NA
ATOM      3  C   UNL     1      -2.311  -1.337 -20.995  0.00  0.00    +0.000 A 
ATOM      4  C   UNL     1      -1.065  -1.813 -21.489  0.00  0.00    +0.000 A 
ATOM      5  C   UNL     1      -2.811  -0.582 -22.029  0.00  0.00    +0.000 A 
ENDROOT
BRANCH   4   8
ATOM      6 CL   UNL     1       1.340  -6.361 -21.243  0.00  0.00    +0.000 Cl
ATOM      7  F   UNL     1       0.498  -0.950 -19.255  0.00  0.00    +0.000 F 
ATOM      8  C   UNL     1      -0.062  -2.647 -20.838  0.00  0.00    +0.000 A 
ATOM      9  C   UNL     1       0.668  -2.194 -19.732  0.00  0.00    +0.000 A 
ATOM     10  C   UNL     1       0.140  -3.954 -21.286  0.00  0.00    +0.000 A 
ATOM     11  C   UNL     1       1.601  -3.021 -19.098  0.00  0.00    +0.000 A 
ATOM     12  C   UNL     1       1.066  -4.777 -20.654  0.00  0.00    +0.000 A 
ATOM     13  C   UNL     1       1.784  -4.324 -19.553  0.00  0.00    +0.000 A 
BRANCH  11  14
ATOM     14  N   UNL     1       2.262  -2.569 -17.906  0.00  0.00    +0.000 N 
ATOM     15  H   UNL     1       1.665  -1.987 -17.310  0.00  0.00    +0.000 HD
BRANCH  14  16
ATOM     16  S   UNL     1       3.736  -1.789 -18.073  0.00  0.00    +0.000 S 
ATOM     17  O   UNL     1       4.769  -2.449 -17.322  0.00  0.00    +0.000 OA
ATOM     18  O   UNL     1       3.910  -1.115 -19.340  0.00  0.00    +0.000 OA
ATOM     19  C   UNL     1       3.612  -0.343 -17.064  0.00  0.00    +0.000 C 
ENDBRANCH  14  16
ENDBRANCH  11  14
ENDBRANCH   4   8
BRANCH   3  23
ATOM     20  N   UNL     1      -5.856  -3.464 -18.651  0.00  0.00    +0.000 N 
ATOM     21  N   UNL     1      -4.078  -2.385 -19.793  0.00  0.00    +0.000 NA
ATOM     22  N   UNL     1      -4.459  -2.013 -17.494  0.00  0.00    +0.000 NA
ATOM     23  C   UNL     1      -3.029  -1.543 -19.748  0.00  0.00    +0.000 A 
ATOM     24  C   UNL     1      -4.764  -2.595 -18.657  0.00  0.00    +0.000 A 
ATOM     25  C   UNL     1      -2.640  -0.893 -18.599  0.00  0.00    +0.000 A 
ATOM     26  C   UNL     1      -3.405  -1.177 -17.496  0.00  0.00    +0.000 A 
ATOM     27  H   UNL     1      -6.378  -3.314 -17.795  0.00  0.00    +0.000 HD
BRANCH  20  28
ATOM     28  C   UNL     1      -6.593  -3.608 -19.901  0.00  0.00    +0.000 C 
BRANCH  28  29
ATOM     29  C   UNL     1      -7.416  -3.763 -21.045  0.00  0.00    +0.000 C 
ATOM     30  C   UNL     1      -6.797  -4.353 -22.277  0.00  0.00    +0.000 C 
ATOM     31  O   UNL     1      -9.119  -2.675 -19.000  0.00  0.00    +0.000 OA
ATOM     32  N   UNL     1      -8.762  -3.623 -21.060  0.00  0.00    +0.000 N 
ATOM     33  C   UNL     1      -9.551  -3.135 -20.051  0.00  0.00    +0.000 C 
ATOM     34  H   UNL     1      -9.219  -3.955 -21.904  0.00  0.00    +0.000 HD
BRANCH  33  35
ATOM     35  O   UNL     1     -10.875  -3.230 -20.411  0.00  0.00    +0.000 OA
ATOM     36  C   UNL     1     -11.254  -4.259 -21.290  0.00  0.00    +0.000 C 
ENDBRANCH  33  35
ENDBRANCH  28  29
ENDBRANCH  20  28
ENDBRANCH   3  23
BRANCH   1  37
ATOM     37  C   UNL     1      -2.147   0.070 -24.321  0.00  0.00    +0.000 C 
ATOM     38  C   UNL     1      -2.903  -0.582 -25.465  0.00  0.00    +0.000 C 
ATOM     39  C   UNL     1      -1.668   1.486 -24.570  0.00  0.00    +0.000 C 
ENDBRANCH   1  37
TORSDOF 8
ENDMDL
MODEL 3
REMARK VINA RESULT:      -6.3      3.307      5.817
REMARK  Name = 50922675_Encorafenib.pdbqt.pdb
REMARK  8 active torsions:
REMARK  status: ('A' for Active; 'I' for Inactive)
REMARK    1  A    between atoms: N_1  and  C_37
REMARK    2  A    between atoms: C_3  and  C_23
REMARK    3  A    between atoms: C_4  and  C_8
REMARK    4  A    between atoms: C_11  and  N_14
REMARK    5  A    between atoms: N_14  and  S_16
REMARK    6  A    between atoms: N_20  and  C_28
REMARK    7  A    between atoms: C_28  and  C_29
REMARK    8  A    between atoms: C_33  and  O_35
REMARK                            x       y       z     vdW  Elec       q    Type
REMARK                         _______ _______ _______ _____ _____    ______ ____
ROOT
ATOM      1  N   UNL     1      -5.657  -4.457 -23.199  0.00  0.00    +0.000 N 
ATOM      2  N   UNL     1      -4.988  -3.434 -22.556  0.00  0.00    +0.000 NA
ATOM      3  C   UNL     1      -6.949  -3.830 -21.456  0.00  0.00    +0.000 A 
ATOM      4  C   UNL     1      -5.742  -3.080 -21.504  0.00  0.00    +0.000 A 
ATOM      5  C   UNL     1      -6.855  -4.678 -22.534  0.00  0.00    +0.000 A 
ENDROOT
BRANCH   4   8
ATOM      6 CL   UNL     1      -4.401  -1.572 -16.765  0.00  0.00    +0.000 Cl
ATOM      7  F   UNL     1      -5.256  -0.411 -22.410  0.00  0.00    +0.000 F 
ATOM      8  C   UNL     1      -5.277  -2.006 -20.634  0.00  0.00    +0.000 A 
ATOM      9  C   UNL     1      -5.071  -0.707 -21.113  0.00  0.00    +0.000 A 
ATOM     10  C   UNL     1      -5.086  -2.259 -19.274  0.00  0.00    +0.000 A 
ATOM     11  C   UNL     1      -4.658   0.319 -20.256  0.00  0.00    +0.000 A 
ATOM     12  C   UNL     1      -4.679  -1.239 -18.422  0.00  0.00    +0.000 A 
ATOM     13  C   UNL     1      -4.480   0.051 -18.901  0.00  0.00    +0.000 A 
BRANCH  11  14
ATOM     14  N   UNL     1      -4.552   1.663 -20.750  0.00  0.00    +0.000 N 
ATOM     15  H   UNL     1      -5.311   1.918 -21.389  0.00  0.00    +0.000 HD
BRANCH  14  16
ATOM     16  S   UNL     1      -3.106   2.127 -21.459  0.00  0.00    +0.000 S 
ATOM     17  O   UNL     1      -2.457   1.018 -22.104  0.00  0.00    +0.000 OA
ATOM     18  O   UNL     1      -3.080   3.501 -21.909  0.00  0.00    +0.000 OA
ATOM     19  C   UNL     1      -1.969   2.307 -20.118  0.00  0.00    +0.000 C 
ENDBRANCH  14  16
ENDBRANCH  11  14
ENDBRANCH   4   8
BRANCH   3  23
ATOM     20  N   UNL     1     -11.384  -2.449 -20.452  0.00  0.00    +0.000 N 
ATOM     21  N   UNL     1      -9.167  -3.153 -20.923  0.00  0.00    +0.000 NA
ATOM     22  N   UNL     1     -10.249  -3.774 -18.919  0.00  0.00    +0.000 NA
ATOM     23  C   UNL     1      -8.076  -3.841 -20.538  0.00  0.00    +0.000 A 
ATOM     24  C   UNL     1     -10.227  -3.142 -20.096  0.00  0.00    +0.000 A 
ATOM     25  C   UNL     1      -8.002  -4.519 -19.343  0.00  0.00    +0.000 A 
ATOM     26  C   UNL     1      -9.135  -4.445 -18.573  0.00  0.00    +0.000 A 
ATOM     27  H   UNL     1     -11.966  -2.353 -19.627  0.00  0.00    +0.000 HD
BRANCH  20  28
ATOM     28  C   UNL     1     -11.219  -1.294 -21.327  0.00  0.00    +0.000 C 
BRANCH  28  29
ATOM     29  C   UNL     1     -11.145  -0.109 -22.102  0.00  0.00    +0.000 C 
ATOM     30  C   UNL     1     -11.525  -0.195 -23.550  0.00  0.00    +0.000 C 
ATOM     31  O   UNL     1     -10.387   0.654 -19.435  0.00  0.00    +0.000 OA
ATOM     32  N   UNL     1     -10.965   1.137 -21.604  0.00  0.00    +0.000 N 
ATOM     33  C   UNL     1     -10.639   1.470 -20.315  0.00  0.00    +0.000 C 
ATOM     34  H   UNL     1     -11.127   1.891 -22.265  0.00  0.00    +0.000 HD
BRANCH  33  35
ATOM     35  O   UNL     1     -10.630   2.839 -20.178  0.00  0.00    +0.000 OA
ATOM     36  C   UNL     1     -10.412   3.621 -21.325  0.00  0.00    +0.000 C 
ENDBRANCH  33  35
ENDBRANCH  28  29
ENDBRANCH  20  28
ENDBRANCH   3  23
BRANCH   1  37
ATOM     37  C   UNL     1      -5.248  -5.182 -24.345  0.00  0.00    +0.000 C 
ATOM     38  C   UNL     1      -3.830  -5.705 -24.504  0.00  0.00    +0.000 C 
ATOM     39  C   UNL     1      -6.199  -5.502 -25.480  0.00  0.00    +0.000 C 
ENDBRANCH   1  37
TORSDOF 8
ENDMDL
MODEL 4
REMARK VINA RESULT:      -6.2      3.326      4.845
REMARK  Name = 50922675_Encorafenib.pdbqt.pdb
REMARK  8 active torsions:
REMARK  status: ('A' for Active; 'I' for Inactive)
REMARK    1  A    between atoms: N_1  and  C_37
REMARK    2  A    between atoms: C_3  and  C_23
REMARK    3  A    between atoms: C_4  and  C_8
REMARK    4  A    between atoms: C_11  and  N_14
REMARK    5  A    between atoms: N_14  and  S_16
REMARK    6  A    between atoms: N_20  and  C_28
REMARK    7  A    between atoms: C_28  and  C_29
REMARK    8  A    between atoms: C_33  and  O_35
REMARK                            x       y       z     vdW  Elec       q    Type
REMARK                         _______ _______ _______ _____ _____    ______ ____
ROOT
ATOM      1  N   UNL     1      -2.680   1.707 -22.123  0.00  0.00    +0.000 N 
ATOM      2  N   UNL     1      -1.410   1.212 -21.909  0.00  0.00    +0.000 NA
ATOM      3  C   UNL     1      -2.773   0.475 -20.233  0.00  0.00    +0.000 A 
ATOM      4  C   UNL     1      -1.469   0.457 -20.802  0.00  0.00    +0.000 A 
ATOM      5  C   UNL     1      -3.498   1.269 -21.090  0.00  0.00    +0.000 A 
ENDROOT
BRANCH   4   8
ATOM      6 CL   UNL     1       2.998   0.839 -18.268  0.00  0.00    +0.000 Cl
ATOM      7  F   UNL     1      -0.854  -2.287 -21.322  0.00  0.00    +0.000 F 
ATOM      8  C   UNL     1      -0.257  -0.200 -20.329  0.00  0.00    +0.000 A 
ATOM      9  C   UNL     1       0.017  -1.541 -20.624  0.00  0.00    +0.000 A 
ATOM     10  C   UNL     1       0.689   0.537 -19.614  0.00  0.00    +0.000 A 
ATOM     11  C   UNL     1       1.203  -2.145 -20.192  0.00  0.00    +0.000 A 
ATOM     12  C   UNL     1       1.869  -0.063 -19.187  0.00  0.00    +0.000 A 
ATOM     13  C   UNL     1       2.138  -1.393 -19.486  0.00  0.00    +0.000 A 
BRANCH  11  14
ATOM     14  N   UNL     1       1.507  -3.490 -20.593  0.00  0.00    +0.000 N 
ATOM     15  H   UNL     1       0.961  -3.802 -21.401  0.00  0.00    +0.000 HD
BRANCH  14  16
ATOM     16  S   UNL     1       1.430  -4.692 -19.428  0.00  0.00    +0.000 S 
ATOM     17  O   UNL     1       2.028  -5.915 -19.894  0.00  0.00    +0.000 OA
ATOM     18  O   UNL     1       1.456  -4.203 -18.068  0.00  0.00    +0.000 OA
ATOM     19  C   UNL     1      -0.249  -5.243 -19.439  0.00  0.00    +0.000 C 
ENDBRANCH  14  16
ENDBRANCH  11  14
ENDBRANCH   4   8
BRANCH   3  23
ATOM     20  N   UNL     1      -5.330  -3.090 -18.407  0.00  0.00    +0.000 N 
ATOM     21  N   UNL     1      -4.051  -1.296 -19.288  0.00  0.00    +0.000 NA
ATOM     22  N   UNL     1      -4.501  -1.458 -16.977  0.00  0.00    +0.000 NA
ATOM     23  C   UNL     1      -3.357  -0.165 -19.066  0.00  0.00    +0.000 A 
ATOM     24  C   UNL     1      -4.605  -1.912 -18.229  0.00  0.00    +0.000 A 
ATOM     25  C   UNL     1      -3.198   0.382 -17.813  0.00  0.00    +0.000 A 
ATOM     26  C   UNL     1      -3.801  -0.323 -16.802  0.00  0.00    +0.000 A 
ATOM     27  H   UNL     1      -5.859  -3.271 -17.560  0.00  0.00    +0.000 HD
BRANCH  20  28
ATOM     28  C   UNL     1      -5.991  -3.271 -19.694  0.00  0.00    +0.000 C 
BRANCH  28  29
ATOM     29  C   UNL     1      -6.742  -3.402 -20.889  0.00  0.00    +0.000 C 
ATOM     30  C   UNL     1      -5.989  -3.488 -22.182  0.00  0.00    +0.000 C 
ATOM     31  O   UNL     1      -8.671  -3.359 -18.756  0.00  0.00    +0.000 OA
ATOM     32  N   UNL     1      -8.068  -3.669 -20.950  0.00  0.00    +0.000 N 
ATOM     33  C   UNL     1      -8.956  -3.677 -19.906  0.00  0.00    +0.000 C 
ATOM     34  H   UNL     1      -8.414  -3.922 -21.871  0.00  0.00    +0.000 HD
BRANCH  33  35
ATOM     35  O   UNL     1     -10.194  -4.077 -20.353  0.00  0.00    +0.000 OA
ATOM     36  C   UNL     1     -11.020  -3.122 -20.969  0.00  0.00    +0.000 C 
ENDBRANCH  33  35
ENDBRANCH  28  29
ENDBRANCH  20  28
ENDBRANCH   3  23
BRANCH   1  37
ATOM     37  C   UNL     1      -3.129   2.531 -23.185  0.00  0.00    +0.000 C 
ATOM     38  C   UNL     1      -2.233   2.893 -24.357  0.00  0.00    +0.000 C 
ATOM     39  C   UNL     1      -4.535   3.091 -23.234  0.00  0.00    +0.000 C 
ENDBRANCH   1  37
TORSDOF 8
ENDMDL
MODEL 5
REMARK VINA RESULT:      -6.1     17.319     18.958
REMARK  Name = 50922675_Encorafenib.pdbqt.pdb
REMARK  8 active torsions:
REMARK  status: ('A' for Active; 'I' for Inactive)
REMARK    1  A    between atoms: N_1  and  C_37
REMARK    2  A    between atoms: C_3  and  C_23
REMARK    3  A    between atoms: C_4  and  C_8
REMARK    4  A    between atoms: C_11  and  N_14
REMARK    5  A    between atoms: N_14  and  S_16
REMARK    6  A    between atoms: N_20  and  C_28
REMARK    7  A    between atoms: C_28  and  C_29
REMARK    8  A    between atoms: C_33  and  O_35
REMARK                            x       y       z     vdW  Elec       q    Type
REMARK                         _______ _______ _______ _____ _____    ______ ____
ROOT
ATOM      1  N   UNL     1     -13.601  10.603  -6.628  0.00  0.00    +0.000 N 
ATOM      2  N   UNL     1     -14.158   9.895  -5.583  0.00  0.00    +0.000 NA
ATOM      3  C   UNL     1     -12.866   8.478  -6.820  0.00  0.00    +0.000 A 
ATOM      4  C   UNL     1     -13.700   8.638  -5.679  0.00  0.00    +0.000 A 
ATOM      5  C   UNL     1     -12.832   9.730  -7.385  0.00  0.00    +0.000 A 
ENDROOT
BRANCH   4   8
ATOM      6 CL   UNL     1     -17.511   5.745  -3.773  0.00  0.00    +0.000 Cl
ATOM      7  F   UNL     1     -11.979   7.570  -3.660  0.00  0.00    +0.000 F 
ATOM      8  C   UNL     1     -14.130   7.653  -4.694  0.00  0.00    +0.000 A 
ATOM      9  C   UNL     1     -13.261   7.170  -3.708  0.00  0.00    +0.000 A 
ATOM     10  C   UNL     1     -15.456   7.218  -4.692  0.00  0.00    +0.000 A 
ATOM     11  C   UNL     1     -13.700   6.251  -2.749  0.00  0.00    +0.000 A 
ATOM     12  C   UNL     1     -15.894   6.307  -3.736  0.00  0.00    +0.000 A 
ATOM     13  C   UNL     1     -15.029   5.834  -2.756  0.00  0.00    +0.000 A 
BRANCH  11  14
ATOM     14  N   UNL     1     -12.819   5.849  -1.688  0.00  0.00    +0.000 N 
ATOM     15  H   UNL     1     -13.091   4.962  -1.254  0.00  0.00    +0.000 HD
BRANCH  14  16
ATOM     16  S   UNL     1     -12.516   6.949  -0.461  0.00  0.00    +0.000 S 
ATOM     17  O   UNL     1     -11.121   7.295  -0.397  0.00  0.00    +0.000 OA
ATOM     18  O   UNL     1     -13.621   7.836  -0.173  0.00  0.00    +0.000 OA
ATOM     19  C   UNL     1     -12.584   6.008   1.033  0.00  0.00    +0.000 C 
ENDBRANCH  14  16
ENDBRANCH  11  14
ENDBRANCH   4   8
BRANCH   3  23
ATOM     20  N   UNL     1     -12.673   4.841  -9.875  0.00  0.00    +0.000 N 
ATOM     21  N   UNL     1     -12.739   6.647  -8.336  0.00  0.00    +0.000 NA
ATOM     22  N   UNL     1     -10.870   5.211  -8.457  0.00  0.00    +0.000 NA
ATOM     23  C   UNL     1     -12.129   7.346  -7.362  0.00  0.00    +0.000 A 
ATOM     24  C   UNL     1     -12.085   5.595  -8.858  0.00  0.00    +0.000 A 
ATOM     25  C   UNL     1     -10.881   7.026  -6.879  0.00  0.00    +0.000 A 
ATOM     26  C   UNL     1     -10.300   5.937  -7.478  0.00  0.00    +0.000 A 
ATOM     27  H   UNL     1     -12.156   3.974  -9.969  0.00  0.00    +0.000 HD
BRANCH  20  28
ATOM     28  C   UNL     1     -14.130   4.791  -9.902  0.00  0.00    +0.000 C 
BRANCH  28  29
ATOM     29  C   UNL     1     -15.537   4.703 -10.052  0.00  0.00    +0.000 C 
ATOM     30  C   UNL     1     -16.234   5.809 -10.784  0.00  0.00    +0.000 C 
ATOM     31  O   UNL     1     -14.747   2.313  -8.659  0.00  0.00    +0.000 OA
ATOM     32  N   UNL     1     -16.281   3.605  -9.778  0.00  0.00    +0.000 N 
ATOM     33  C   UNL     1     -15.864   2.464  -9.144  0.00  0.00    +0.000 C 
ATOM     34  H   UNL     1     -17.237   3.639 -10.118  0.00  0.00    +0.000 HD
BRANCH  33  35
ATOM     35  O   UNL     1     -16.885   1.542  -9.129  0.00  0.00    +0.000 OA
ATOM     36  C   UNL     1     -18.012   1.784  -9.933  0.00  0.00    +0.000 C 
ENDBRANCH  33  35
ENDBRANCH  28  29
ENDBRANCH  20  28
ENDBRANCH   3  23
BRANCH   1  37
ATOM     37  C   UNL     1     -13.760  11.978  -6.934  0.00  0.00    +0.000 C 
ATOM     38  C   UNL     1     -14.232  12.984  -5.898  0.00  0.00    +0.000 C 
ATOM     39  C   UNL     1     -13.453  12.541  -8.306  0.00  0.00    +0.000 C 
ENDBRANCH   1  37
TORSDOF 8
ENDMDL
MODEL 6
REMARK VINA RESULT:      -5.8      2.763      5.206
REMARK  Name = 50922675_Encorafenib.pdbqt.pdb
REMARK  8 active torsions:
REMARK  status: ('A' for Active; 'I' for Inactive)
REMARK    1  A    between atoms: N_1  and  C_37
REMARK    2  A    between atoms: C_3  and  C_23
REMARK    3  A    between atoms: C_4  and  C_8
REMARK    4  A    between atoms: C_11  and  N_14
REMARK    5  A    between atoms: N_14  and  S_16
REMARK    6  A    between atoms: N_20  and  C_28
REMARK    7  A    between atoms: C_28  and  C_29
REMARK    8  A    between atoms: C_33  and  O_35
REMARK                            x       y       z     vdW  Elec       q    Type
REMARK                         _______ _______ _______ _____ _____    ______ ____
ROOT
ATOM      1  N   UNL     1      -5.767  -4.661 -23.653  0.00  0.00    +0.000 N 
ATOM      2  N   UNL     1      -5.255  -3.428 -23.304  0.00  0.00    +0.000 NA
ATOM      3  C   UNL     1      -7.038  -3.889 -21.955  0.00  0.00    +0.000 A 
ATOM      4  C   UNL     1      -5.992  -2.980 -22.276  0.00  0.00    +0.000 A 
ATOM      5  C   UNL     1      -6.861  -4.925 -22.840  0.00  0.00    +0.000 A 
ENDROOT
BRANCH   4   8
ATOM      6 CL   UNL     1      -6.597   2.133 -22.420  0.00  0.00    +0.000 Cl
ATOM      7  F   UNL     1      -4.243  -2.636 -20.040  0.00  0.00    +0.000 F 
ATOM      8  C   UNL     1      -5.676  -1.681 -21.694  0.00  0.00    +0.000 A 
ATOM      9  C   UNL     1      -4.797  -1.553 -20.612  0.00  0.00    +0.000 A 
ATOM     10  C   UNL     1      -6.213  -0.525 -22.263  0.00  0.00    +0.000 A 
ATOM     11  C   UNL     1      -4.478  -0.296 -20.088  0.00  0.00    +0.000 A 
ATOM     12  C   UNL     1      -5.893   0.725 -21.745  0.00  0.00    +0.000 A 
ATOM     13  C   UNL     1      -5.017   0.848 -20.673  0.00  0.00    +0.000 A 
BRANCH  11  14
ATOM     14  N   UNL     1      -3.497  -0.184 -19.045  0.00  0.00    +0.000 N 
ATOM     15  H   UNL     1      -3.859   0.268 -18.200  0.00  0.00    +0.000 HD
BRANCH  14  16
ATOM     16  S   UNL     1      -2.029   0.531 -19.421  0.00  0.00    +0.000 S 
ATOM     17  O   UNL     1      -1.658   0.282 -20.789  0.00  0.00    +0.000 OA
ATOM     18  O   UNL     1      -1.748   1.736 -18.674  0.00  0.00    +0.000 OA
ATOM     19  C   UNL     1      -0.806  -0.496 -18.664  0.00  0.00    +0.000 C 
ENDBRANCH  14  16
ENDBRANCH  11  14
ENDBRANCH   4   8
BRANCH   3  23
ATOM     20  N   UNL     1     -11.642  -3.397 -20.879  0.00  0.00    +0.000 N 
ATOM     21  N   UNL     1      -9.336  -3.646 -21.383  0.00  0.00    +0.000 NA
ATOM     22  N   UNL     1     -10.132  -3.838 -19.169  0.00  0.00    +0.000 NA
ATOM     23  C   UNL     1      -8.085  -3.882 -20.946  0.00  0.00    +0.000 A 
ATOM     24  C   UNL     1     -10.327  -3.632 -20.475  0.00  0.00    +0.000 A 
ATOM     25  C   UNL     1      -7.784  -4.102 -19.621  0.00  0.00    +0.000 A 
ATOM     26  C   UNL     1      -8.865  -4.067 -18.777  0.00  0.00    +0.000 A 
ATOM     27  H   UNL     1     -12.196  -3.189 -20.055  0.00  0.00    +0.000 HD
BRANCH  20  28
ATOM     28  C   UNL     1     -11.830  -2.580 -22.071  0.00  0.00    +0.000 C 
BRANCH  28  29
ATOM     29  C   UNL     1     -12.138  -1.819 -23.228  0.00  0.00    +0.000 C 
ATOM     30  C   UNL     1     -11.795  -0.361 -23.218  0.00  0.00    +0.000 C 
ATOM     31  O   UNL     1     -12.936  -4.516 -23.830  0.00  0.00    +0.000 OA
ATOM     32  N   UNL     1     -12.521  -2.336 -24.419  0.00  0.00    +0.000 N 
ATOM     33  C   UNL     1     -12.860  -3.638 -24.682  0.00  0.00    +0.000 C 
ATOM     34  H   UNL     1     -12.516  -1.679 -25.194  0.00  0.00    +0.000 HD
BRANCH  33  35
ATOM     35  O   UNL     1     -13.108  -3.789 -26.027  0.00  0.00    +0.000 OA
ATOM     36  C   UNL     1     -12.790  -2.725 -26.887  0.00  0.00    +0.000 C 
ENDBRANCH  33  35
ENDBRANCH  28  29
ENDBRANCH  20  28
ENDBRANCH   3  23
BRANCH   1  37
ATOM     37  C   UNL     1      -5.306  -5.543 -24.662  0.00  0.00    +0.000 C 
ATOM     38  C   UNL     1      -3.960  -6.241 -24.569  0.00  0.00    +0.000 C 
ATOM     39  C   UNL     1      -6.131  -5.864 -25.892  0.00  0.00    +0.000 C 
ENDBRANCH   1  37
TORSDOF 8
ENDMDL
MODEL 7
REMARK VINA RESULT:      -5.7     15.980     18.062
REMARK  Name = 50922675_Encorafenib.pdbqt.pdb
REMARK  8 active torsions:
REMARK  status: ('A' for Active; 'I' for Inactive)
REMARK    1  A    between atoms: N_1  and  C_37
REMARK    2  A    between atoms: C_3  and  C_23
REMARK    3  A    between atoms: C_4  and  C_8
REMARK    4  A    between atoms: C_11  and  N_14
REMARK    5  A    between atoms: N_14  and  S_16
REMARK    6  A    between atoms: N_20  and  C_28
REMARK    7  A    between atoms: C_28  and  C_29
REMARK    8  A    between atoms: C_33  and  O_35
REMARK                            x       y       z     vdW  Elec       q    Type
REMARK                         _______ _______ _______ _____ _____    ______ ____
ROOT
ATOM      1  N   UNL     1     -11.910   6.339  -9.005  0.00  0.00    +0.000 N 
ATOM      2  N   UNL     1     -12.261   7.214  -7.996  0.00  0.00    +0.000 NA
ATOM      3  C   UNL     1     -13.758   7.431  -9.706  0.00  0.00    +0.000 A 
ATOM      4  C   UNL     1     -13.375   7.843  -8.400  0.00  0.00    +0.000 A 
ATOM      5  C   UNL     1     -12.814   6.491 -10.047  0.00  0.00    +0.000 A 
ENDROOT
BRANCH   4   8
ATOM      6 CL   UNL     1     -15.992   8.842  -4.077  0.00  0.00    +0.000 Cl
ATOM      7  F   UNL     1     -13.382  10.646  -8.964  0.00  0.00    +0.000 F 
ATOM      8  C   UNL     1     -13.980   8.839  -7.523  0.00  0.00    +0.000 A 
ATOM      9  C   UNL     1     -13.980  10.201  -7.846  0.00  0.00    +0.000 A 
ATOM     10  C   UNL     1     -14.628   8.425  -6.358  0.00  0.00    +0.000 A 
ATOM     11  C   UNL     1     -14.595  11.139  -7.010  0.00  0.00    +0.000 A 
ATOM     12  C   UNL     1     -15.242   9.357  -5.528  0.00  0.00    +0.000 A 
ATOM     13  C   UNL     1     -15.244  10.708  -5.856  0.00  0.00    +0.000 A 
BRANCH  11  14
ATOM     14  N   UNL     1     -14.670  12.515  -7.413  0.00  0.00    +0.000 N 
ATOM     15  H   UNL     1     -15.074  12.640  -8.347  0.00  0.00    +0.000 HD
BRANCH  14  16
ATOM     16  S   UNL     1     -13.271  13.434  -7.334  0.00  0.00    +0.000 S 
ATOM     17  O   UNL     1     -12.657  13.346  -6.036  0.00  0.00    +0.000 OA
ATOM     18  O   UNL     1     -12.573  13.562  -8.593  0.00  0.00    +0.000 OA
ATOM     19  C   UNL     1     -13.822  15.109  -7.210  0.00  0.00    +0.000 C 
ENDBRANCH  14  16
ENDBRANCH  11  14
ENDBRANCH   4   8
BRANCH   3  23
ATOM     20  N   UNL     1     -18.004   6.343 -11.543  0.00  0.00    +0.000 N 
ATOM     21  N   UNL     1     -15.883   6.914 -10.645  0.00  0.00    +0.000 NA
ATOM     22  N   UNL     1     -16.990   8.337 -12.168  0.00  0.00    +0.000 NA
ATOM     23  C   UNL     1     -14.865   7.791 -10.577  0.00  0.00    +0.000 A 
ATOM     24  C   UNL     1     -16.921   7.217 -11.443  0.00  0.00    +0.000 A 
ATOM     25  C   UNL     1     -14.842   8.969 -11.289  0.00  0.00    +0.000 A 
ATOM     26  C   UNL     1     -15.948   9.183 -12.072  0.00  0.00    +0.000 A 
ATOM     27  H   UNL     1     -18.559   6.612 -12.348  0.00  0.00    +0.000 HD
BRANCH  20  28
ATOM     28  C   UNL     1     -17.732   4.927 -11.326  0.00  0.00    +0.000 C 
BRANCH  28  29
ATOM     29  C   UNL     1     -17.422   3.583 -10.998  0.00  0.00    +0.000 C 
ATOM     30  C   UNL     1     -17.300   2.599 -12.121  0.00  0.00    +0.000 C 
ATOM     31  O   UNL     1     -17.456   5.009  -8.501  0.00  0.00    +0.000 OA
ATOM     32  N   UNL     1     -17.018   3.153  -9.779  0.00  0.00    +0.000 N 
ATOM     33  C   UNL     1     -17.011   3.872  -8.612  0.00  0.00    +0.000 C 
ATOM     34  H   UNL     1     -16.652   2.206  -9.758  0.00  0.00    +0.000 HD
BRANCH  33  35
ATOM     35  O   UNL     1     -16.450   3.119  -7.607  0.00  0.00    +0.000 OA
ATOM     36  C   UNL     1     -17.264   2.741  -6.525  0.00  0.00    +0.000 C 
ENDBRANCH  33  35
ENDBRANCH  28  29
ENDBRANCH  20  28
ENDBRANCH   3  23
BRANCH   1  37
ATOM     37  C   UNL     1     -10.822   5.432  -9.033  0.00  0.00    +0.000 C 
ATOM     38  C   UNL     1     -10.167   4.918  -7.762  0.00  0.00    +0.000 C 
ATOM     39  C   UNL     1     -10.250   4.897 -10.331  0.00  0.00    +0.000 C 
ENDBRANCH   1  37
TORSDOF 8
ENDMDL
MODEL 8
REMARK VINA RESULT:      -5.7      7.226     13.001
REMARK  Name = 50922675_Encorafenib.pdbqt.pdb
REMARK  8 active torsions:
REMARK  status: ('A' for Active; 'I' for Inactive)
REMARK    1  A    between atoms: N_1  and  C_37
REMARK    2  A    between atoms: C_3  and  C_23
REMARK    3  A    between atoms: C_4  and  C_8
REMARK    4  A    between atoms: C_11  and  N_14
REMARK    5  A    between atoms: N_14  and  S_16
REMARK    6  A    between atoms: N_20  and  C_28
REMARK    7  A    between atoms: C_28  and  C_29
REMARK    8  A    between atoms: C_33  and  O_35
REMARK                            x       y       z     vdW  Elec       q    Type
REMARK                         _______ _______ _______ _____ _____    ______ ____
ROOT
ATOM      1  N   UNL     1       3.316  -0.076 -23.358  0.00  0.00    +0.000 N 
ATOM      2  N   UNL     1       2.344  -0.990 -23.003  0.00  0.00    +0.000 NA
ATOM      3  C   UNL     1       3.253  -0.114 -21.102  0.00  0.00    +0.000 A 
ATOM      4  C   UNL     1       2.286  -0.993 -21.663  0.00  0.00    +0.000 A 
ATOM      5  C   UNL     1       3.875   0.438 -22.196  0.00  0.00    +0.000 A 
ENDROOT
BRANCH   4   8
ATOM      6 CL   UNL     1       1.449  -5.426 -19.178  0.00  0.00    +0.000 Cl
ATOM      7  F   UNL     1      -0.507  -0.425 -21.439  0.00  0.00    +0.000 F 
ATOM      8  C   UNL     1       1.336  -1.878 -21.000  0.00  0.00    +0.000 A 
ATOM      9  C   UNL     1      -0.029  -1.573 -20.930  0.00  0.00    +0.000 A 
ATOM     10  C   UNL     1       1.781  -3.090 -20.470  0.00  0.00    +0.000 A 
ATOM     11  C   UNL     1      -0.932  -2.450 -20.320  0.00  0.00    +0.000 A 
ATOM     12  C   UNL     1       0.883  -3.964 -19.867  0.00  0.00    +0.000 A 
ATOM     13  C   UNL     1      -0.472  -3.659 -19.804  0.00  0.00    +0.000 A 
BRANCH  11  14
ATOM     14  N   UNL     1      -2.339  -2.162 -20.351  0.00  0.00    +0.000 N 
ATOM     15  H   UNL     1      -2.570  -1.344 -20.922  0.00  0.00    +0.000 HD
BRANCH  14  16
ATOM     16  S   UNL     1      -3.141  -2.010 -18.888  0.00  0.00    +0.000 S 
ATOM     17  O   UNL     1      -4.049  -3.104 -18.669  0.00  0.00    +0.000 OA
ATOM     18  O   UNL     1      -2.385  -1.321 -17.866  0.00  0.00    +0.000 OA
ATOM     19  C   UNL     1      -4.357  -0.755 -19.153  0.00  0.00    +0.000 C 
ENDBRANCH  14  16
ENDBRANCH  11  14
ENDBRANCH   4   8
BRANCH   3  23
ATOM     20  N   UNL     1       6.059   2.288 -18.110  0.00  0.00    +0.000 N 
ATOM     21  N   UNL     1       4.641   1.075 -19.577  0.00  0.00    +0.000 NA
ATOM     22  N   UNL     1       4.334   0.999 -17.238  0.00  0.00    +0.000 NA
ATOM     23  C   UNL     1       3.592   0.248 -19.735  0.00  0.00    +0.000 A 
ATOM     24  C   UNL     1       4.981   1.428 -18.326  0.00  0.00    +0.000 A 
ATOM     25  C   UNL     1       2.865  -0.249 -18.677  0.00  0.00    +0.000 A 
ATOM     26  C   UNL     1       3.293   0.172 -17.443  0.00  0.00    +0.000 A 
ATOM     27  H   UNL     1       6.308   2.248 -17.128  0.00  0.00    +0.000 HD
BRANCH  20  28
ATOM     28  C   UNL     1       7.127   2.269 -19.102  0.00  0.00    +0.000 C 
BRANCH  28  29
ATOM     29  C   UNL     1       8.129   2.370 -20.100  0.00  0.00    +0.000 C 
ATOM     30  C   UNL     1       7.686   2.504 -21.526  0.00  0.00    +0.000 C 
ATOM     31  O   UNL     1       9.534   2.213 -17.596  0.00  0.00    +0.000 OA
ATOM     32  N   UNL     1       9.447   2.569 -19.862  0.00  0.00    +0.000 N 
ATOM     33  C   UNL     1      10.081   2.524 -18.648  0.00  0.00    +0.000 C 
ATOM     34  H   UNL     1       9.999   2.811 -20.680  0.00  0.00    +0.000 HD
BRANCH  33  35
ATOM     35  O   UNL     1      11.405   2.864 -18.803  0.00  0.00    +0.000 OA
ATOM     36  C   UNL     1      12.130   2.259 -19.844  0.00  0.00    +0.000 C 
ENDBRANCH  33  35
ENDBRANCH  28  29
ENDBRANCH  20  28
ENDBRANCH   3  23
BRANCH   1  37
ATOM     37  C   UNL     1       3.723   0.303 -24.661  0.00  0.00    +0.000 C 
ATOM     38  C   UNL     1       3.069  -0.267 -25.908  0.00  0.00    +0.000 C 
ATOM     39  C   UNL     1       4.825   1.316 -24.900  0.00  0.00    +0.000 C 
ENDBRANCH   1  37
TORSDOF 8
ENDMDL
MODEL 9
REMARK VINA RESULT:      -5.6      4.511      9.234
REMARK  Name = 50922675_Encorafenib.pdbqt.pdb
REMARK  8 active torsions:
REMARK  status: ('A' for Active; 'I' for Inactive)
REMARK    1  A    between atoms: N_1  and  C_37
REMARK    2  A    between atoms: C_3  and  C_23
REMARK    3  A    between atoms: C_4  and  C_8
REMARK    4  A    between atoms: C_11  and  N_14
REMARK    5  A    between atoms: N_14  and  S_16
REMARK    6  A    between atoms: N_20  and  C_28
REMARK    7  A    between atoms: C_28  and  C_29
REMARK    8  A    between atoms: C_33  and  O_35
REMARK                            x       y       z     vdW  Elec       q    Type
REMARK                         _______ _______ _______ _____ _____    ______ ____
ROOT
ATOM      1  N   UNL     1       0.557  -2.275 -24.479  0.00  0.00    +0.000 N 
ATOM      2  N   UNL     1      -0.385  -1.404 -23.969  0.00  0.00    +0.000 NA
ATOM      3  C   UNL     1       0.504  -2.609 -22.246  0.00  0.00    +0.000 A 
ATOM      4  C   UNL     1      -0.397  -1.582 -22.639  0.00  0.00    +0.000 A 
ATOM      5  C   UNL     1       1.079  -3.016 -23.427  0.00  0.00    +0.000 A 
ENDROOT
BRANCH   4   8
ATOM      6 CL   UNL     1      -2.002   3.092 -21.189  0.00  0.00    +0.000 Cl
ATOM      7  F   UNL     1      -2.331  -2.715 -20.863  0.00  0.00    +0.000 F 
ATOM      8  C   UNL     1      -1.311  -0.785 -21.830  0.00  0.00    +0.000 A 
ATOM      9  C   UNL     1      -2.230  -1.379 -20.956  0.00  0.00    +0.000 A 
ATOM     10  C   UNL     1      -1.234   0.608 -21.878  0.00  0.00    +0.000 A 
ATOM     11  C   UNL     1      -3.076  -0.598 -20.161  0.00  0.00    +0.000 A 
ATOM     12  C   UNL     1      -2.072   1.384 -21.085  0.00  0.00    +0.000 A 
ATOM     13  C   UNL     1      -2.980   0.790 -20.216  0.00  0.00    +0.000 A 
BRANCH  11  14
ATOM     14  N   UNL     1      -3.937  -1.228 -19.200  0.00  0.00    +0.000 N 
ATOM     15  H   UNL     1      -3.487  -2.004 -18.705  0.00  0.00    +0.000 HD
BRANCH  14  16
ATOM     16  S   UNL     1      -5.440  -1.754 -19.720  0.00  0.00    +0.000 S 
ATOM     17  O   UNL     1      -6.324  -0.650 -19.981  0.00  0.00    +0.000 OA
ATOM     18  O   UNL     1      -5.413  -3.005 -20.446  0.00  0.00    +0.000 OA
ATOM     19  C   UNL     1      -6.250  -2.353 -18.268  0.00  0.00    +0.000 C 
ENDBRANCH  14  16
ENDBRANCH  11  14
ENDBRANCH   4   8
BRANCH   3  23
ATOM     20  N   UNL     1       2.318  -1.974 -17.899  0.00  0.00    +0.000 N 
ATOM     21  N   UNL     1       1.409  -2.325 -20.064  0.00  0.00    +0.000 NA
ATOM     22  N   UNL     1       1.593  -4.094 -18.513  0.00  0.00    +0.000 NA
ATOM     23  C   UNL     1       0.867  -3.173 -20.956  0.00  0.00    +0.000 A 
ATOM     24  C   UNL     1       1.757  -2.815 -18.861  0.00  0.00    +0.000 A 
ATOM     25  C   UNL     1       0.662  -4.508 -20.691  0.00  0.00    +0.000 A 
ATOM     26  C   UNL     1       1.051  -4.907 -19.437  0.00  0.00    +0.000 A 
ATOM     27  H   UNL     1       2.725  -2.550 -17.171  0.00  0.00    +0.000 HD
BRANCH  20  28
ATOM     28  C   UNL     1       3.073  -0.826 -18.386  0.00  0.00    +0.000 C 
BRANCH  28  29
ATOM     29  C   UNL     1       3.749   0.361 -18.767  0.00  0.00    +0.000 C 
ATOM     30  C   UNL     1       5.244   0.377 -18.669  0.00  0.00    +0.000 C 
ATOM     31  O   UNL     1       0.956   0.870 -19.224  0.00  0.00    +0.000 OA
ATOM     32  N   UNL     1       3.180   1.407 -19.411  0.00  0.00    +0.000 N 
ATOM     33  C   UNL     1       1.844   1.602 -19.647  0.00  0.00    +0.000 C 
ATOM     34  H   UNL     1       3.834   2.090 -19.783  0.00  0.00    +0.000 HD
BRANCH  33  35
ATOM     35  O   UNL     1       1.667   2.736 -20.405  0.00  0.00    +0.000 OA
ATOM     36  C   UNL     1       1.089   3.862 -19.794  0.00  0.00    +0.000 C 
ENDBRANCH  33  35
ENDBRANCH  28  29
ENDBRANCH  20  28
ENDBRANCH   3  23
BRANCH   1  37
ATOM     37  C   UNL     1       0.955  -2.438 -25.829  0.00  0.00    +0.000 C 
ATOM     38  C   UNL     1       2.400  -2.277 -26.267  0.00  0.00    +0.000 C 
ATOM     39  C   UNL     1      -0.028  -2.801 -26.923  0.00  0.00    +0.000 C 
ENDBRANCH   1  37
TORSDOF 8
ENDMDL
