MODEL 1
REMARK VINA RESULT:      -6.9      0.000      0.000
REMARK  Name = 5109870_Ethoxyphenyl.pdbqt.pdb
REMARK  6 active torsions:
REMARK  status: ('A' for Active; 'I' for Inactive)
REMARK    1  A    between atoms: N_2  and  C_22
REMARK    2  A    between atoms: C_3  and  O_11
REMARK    3  A    between atoms: C_3  and  C_13
REMARK    4  A    between atoms: C_16  and  N_19
REMARK    5  A    between atoms: C_25  and  O_28
REMARK    6  A    between atoms: O_28  and  C_29
REMARK                            x       y       z     vdW  Elec       q    Type
REMARK                         _______ _______ _______ _____ _____    ______ ____
ROOT
ATOM      1  N   UNL     1       3.737   3.648   2.426  0.00  0.00    +0.000 N 
ATOM      2  N   UNL     1       1.802   2.600   1.467  0.00  0.00    +0.000 N 
ATOM      3  C   UNL     1       4.285   2.607   1.524  0.00  0.00    +0.000 C 
ATOM      4  C   UNL     1       2.252   3.451   2.457  0.00  0.00    +0.000 C 
ATOM      5  C   UNL     1       3.044   2.130   0.911  0.00  0.00    +0.000 C 
ATOM      6  C   UNL     1       4.310   3.778   3.765  0.00  0.00    +0.000 C 
ATOM      7  C   UNL     1       1.509   3.716   3.645  0.00  0.00    +0.000 C 
ATOM      8  C   UNL     1       4.140   3.980   5.280  0.00  0.00    +0.000 C 
ATOM      9  C   UNL     1       1.535   3.980   5.159  0.00  0.00    +0.000 C 
ATOM     10  C   UNL     1       2.801   4.100   6.002  0.00  0.00    +0.000 C 
ENDROOT
BRANCH   3  11
ATOM     11  C   UNL     1       5.291   3.184   0.555  0.00  0.00    +0.000 A 
ATOM     12  C   UNL     1       4.909   4.098  -0.438  0.00  0.00    +0.000 A 
ATOM     13  C   UNL     1       5.849   4.658  -1.299  0.00  0.00    +0.000 A 
ATOM     14  C   UNL     1       7.188   4.309  -1.154  0.00  0.00    +0.000 A 
ATOM     15  C   UNL     1       7.604   3.417  -0.169  0.00  0.00    +0.000 A 
ATOM     16  C   UNL     1       6.652   2.866   0.683  0.00  0.00    +0.000 A 
BRANCH  14  17
ATOM     17  N   UNL     1       8.172   4.887  -2.048  0.00  0.00    +0.000 N 
ATOM     18  O   UNL     1       9.068   5.580  -1.545  0.00  0.00    +0.000 OA
ATOM     19  O   UNL     1       8.058   4.652  -3.259  0.00  0.00    +0.000 OA
ENDBRANCH  14  17
ENDBRANCH   3  11
BRANCH   2  20
ATOM     20  C   UNL     1       0.567   1.966   1.260  0.00  0.00    +0.000 A 
ATOM     21  C   UNL     1      -0.248   1.565   2.324  0.00  0.00    +0.000 A 
ATOM     22  C   UNL     1      -1.484   0.956   2.108  0.00  0.00    +0.000 A 
ATOM     23  C   UNL     1      -1.941   0.742   0.809  0.00  0.00    +0.000 A 
ATOM     24  C   UNL     1      -1.153   1.143  -0.265  0.00  0.00    +0.000 A 
ATOM     25  C   UNL     1       0.082   1.750  -0.037  0.00  0.00    +0.000 A 
BRANCH  23  26
ATOM     26  O   UNL     1      -3.138   0.155   0.489  0.00  0.00    +0.000 OA
BRANCH  26  27
ATOM     27  C   UNL     1      -4.195   0.961   0.562  0.00  0.00    +0.000 C 
ATOM     28  C   UNL     1      -5.421   1.876   0.651  0.00  0.00    +0.000 C 
ENDBRANCH  26  27
ENDBRANCH  23  26
ENDBRANCH   2  20
BRANCH   3  29
ATOM     29  O   UNL     1       4.872   1.515   2.222  0.00  0.00    +0.000 OA
ATOM     30  H   UNL     1       4.391   0.730   1.913  0.00  0.00    +0.000 HD
ENDBRANCH   3  29
TORSDOF 6
ENDMDL
MODEL 2
REMARK VINA RESULT:      -6.8      3.651      9.222
REMARK  Name = 5109870_Ethoxyphenyl.pdbqt.pdb
REMARK  6 active torsions:
REMARK  status: ('A' for Active; 'I' for Inactive)
REMARK    1  A    between atoms: N_2  and  C_22
REMARK    2  A    between atoms: C_3  and  O_11
REMARK    3  A    between atoms: C_3  and  C_13
REMARK    4  A    between atoms: C_16  and  N_19
REMARK    5  A    between atoms: C_25  and  O_28
REMARK    6  A    between atoms: O_28  and  C_29
REMARK                            x       y       z     vdW  Elec       q    Type
REMARK                         _______ _______ _______ _____ _____    ______ ____
ROOT
ATOM      1  N   UNL     1       5.675   4.099   0.156  0.00  0.00    +0.000 N 
ATOM      2  N   UNL     1       6.827   4.201   2.259  0.00  0.00    +0.000 N 
ATOM      3  C   UNL     1       5.413   2.784   0.789  0.00  0.00    +0.000 C 
ATOM      4  C   UNL     1       6.667   4.805   1.028  0.00  0.00    +0.000 C 
ATOM      5  C   UNL     1       6.044   3.005   2.092  0.00  0.00    +0.000 C 
ATOM      6  C   UNL     1       6.054   4.125  -1.255  0.00  0.00    +0.000 C 
ATOM      7  C   UNL     1       7.647   5.671   0.459  0.00  0.00    +0.000 C 
ATOM      8  C   UNL     1       6.929   4.673  -2.397  0.00  0.00    +0.000 C 
ATOM      9  C   UNL     1       8.372   6.154  -0.808  0.00  0.00    +0.000 C 
ATOM     10  C   UNL     1       8.063   5.678  -2.224  0.00  0.00    +0.000 C 
ENDROOT
BRANCH   3  11
ATOM     11  C   UNL     1       3.935   2.477   0.843  0.00  0.00    +0.000 A 
ATOM     12  C   UNL     1       2.973   3.489   0.721  0.00  0.00    +0.000 A 
ATOM     13  C   UNL     1       1.612   3.193   0.728  0.00  0.00    +0.000 A 
ATOM     14  C   UNL     1       1.212   1.865   0.847  0.00  0.00    +0.000 A 
ATOM     15  C   UNL     1       2.141   0.834   0.956  0.00  0.00    +0.000 A 
ATOM     16  C   UNL     1       3.497   1.148   0.946  0.00  0.00    +0.000 A 
BRANCH  14  17
ATOM     17  N   UNL     1      -0.202   1.549   0.858  0.00  0.00    +0.000 N 
ATOM     18  O   UNL     1      -0.765   1.472   1.959  0.00  0.00    +0.000 OA
ATOM     19  O   UNL     1      -0.762   1.376  -0.234  0.00  0.00    +0.000 OA
ENDBRANCH  14  17
ENDBRANCH   3  11
BRANCH   2  20
ATOM     20  C   UNL     1       7.781   4.372   3.275  0.00  0.00    +0.000 A 
ATOM     21  C   UNL     1       8.989   3.667   3.284  0.00  0.00    +0.000 A 
ATOM     22  C   UNL     1       9.941   3.861   4.285  0.00  0.00    +0.000 A 
ATOM     23  C   UNL     1       9.706   4.780   5.305  0.00  0.00    +0.000 A 
ATOM     24  C   UNL     1       8.516   5.502   5.311  0.00  0.00    +0.000 A 
ATOM     25  C   UNL     1       7.571   5.300   4.304  0.00  0.00    +0.000 A 
BRANCH  23  26
ATOM     26  O   UNL     1      10.573   5.045   6.333  0.00  0.00    +0.000 OA
BRANCH  26  27
ATOM     27  C   UNL     1      11.318   6.137   6.170  0.00  0.00    +0.000 C 
ATOM     28  C   UNL     1      12.177   7.390   5.966  0.00  0.00    +0.000 C 
ENDBRANCH  26  27
ENDBRANCH  23  26
ENDBRANCH   2  20
BRANCH   3  29
ATOM     29  O   UNL     1       6.097   1.711   0.153  0.00  0.00    +0.000 OA
ATOM     30  H   UNL     1       7.037   1.861   0.345  0.00  0.00    +0.000 HD
ENDBRANCH   3  29
TORSDOF 6
ENDMDL
MODEL 3
REMARK VINA RESULT:      -6.6     19.497     21.329
REMARK  Name = 5109870_Ethoxyphenyl.pdbqt.pdb
REMARK  6 active torsions:
REMARK  status: ('A' for Active; 'I' for Inactive)
REMARK    1  A    between atoms: N_2  and  C_22
REMARK    2  A    between atoms: C_3  and  O_11
REMARK    3  A    between atoms: C_3  and  C_13
REMARK    4  A    between atoms: C_16  and  N_19
REMARK    5  A    between atoms: C_25  and  O_28
REMARK    6  A    between atoms: O_28  and  C_29
REMARK                            x       y       z     vdW  Elec       q    Type
REMARK                         _______ _______ _______ _____ _____    ______ ____
ROOT
ATOM      1  N   UNL     1       6.783   1.043 -20.665  0.00  0.00    +0.000 N 
ATOM      2  N   UNL     1       4.759   0.178 -19.709  0.00  0.00    +0.000 N 
ATOM      3  C   UNL     1       6.836   1.457 -19.243  0.00  0.00    +0.000 C 
ATOM      4  C   UNL     1       5.430   0.440 -20.887  0.00  0.00    +0.000 C 
ATOM      5  C   UNL     1       5.639   0.778 -18.742  0.00  0.00    +0.000 C 
ATOM      6  C   UNL     1       7.128   2.029 -21.688  0.00  0.00    +0.000 C 
ATOM      7  C   UNL     1       4.764   0.589 -22.139  0.00  0.00    +0.000 C 
ATOM      8  C   UNL     1       6.860   2.699 -23.047  0.00  0.00    +0.000 C 
ATOM      9  C   UNL     1       4.694   1.317 -23.491  0.00  0.00    +0.000 C 
ATOM     10  C   UNL     1       5.690   2.369 -23.968  0.00  0.00    +0.000 C 
ENDROOT
BRANCH   3  11
ATOM     11  C   UNL     1       8.129   1.029 -18.587  0.00  0.00    +0.000 A 
ATOM     12  C   UNL     1       8.679   1.748 -17.516  0.00  0.00    +0.000 A 
ATOM     13  C   UNL     1       9.848   1.323 -16.890  0.00  0.00    +0.000 A 
ATOM     14  C   UNL     1      10.464   0.157 -17.334  0.00  0.00    +0.000 A 
ATOM     15  C   UNL     1       9.937  -0.589 -18.384  0.00  0.00    +0.000 A 
ATOM     16  C   UNL     1       8.768  -0.150 -18.999  0.00  0.00    +0.000 A 
BRANCH  14  17
ATOM     17  N   UNL     1      11.682  -0.291 -16.688  0.00  0.00    +0.000 N 
ATOM     18  O   UNL     1      11.979  -1.489 -16.791  0.00  0.00    +0.000 OA
ATOM     19  O   UNL     1      12.352   0.552 -16.074  0.00  0.00    +0.000 OA
ENDBRANCH  14  17
ENDBRANCH   3  11
BRANCH   2  20
ATOM     20  C   UNL     1       3.423  -0.160 -19.442  0.00  0.00    +0.000 A 
ATOM     21  C   UNL     1       2.387   0.774 -19.542  0.00  0.00    +0.000 A 
ATOM     22  C   UNL     1       1.059   0.422 -19.297  0.00  0.00    +0.000 A 
ATOM     23  C   UNL     1       0.735  -0.887 -18.952  0.00  0.00    +0.000 A 
ATOM     24  C   UNL     1       1.747  -1.837 -18.858  0.00  0.00    +0.000 A 
ATOM     25  C   UNL     1       3.072  -1.475 -19.104  0.00  0.00    +0.000 A 
BRANCH  23  26
ATOM     26  O   UNL     1      -0.535  -1.335 -18.693  0.00  0.00    +0.000 OA
BRANCH  26  27
ATOM     27  C   UNL     1      -1.466  -0.386 -18.651  0.00  0.00    +0.000 C 
ATOM     28  C   UNL     1      -2.538   0.709 -18.586  0.00  0.00    +0.000 C 
ENDBRANCH  26  27
ENDBRANCH  23  26
ENDBRANCH   2  20
BRANCH   3  29
ATOM     29  O   UNL     1       6.651   2.855 -19.060  0.00  0.00    +0.000 OA
ATOM     30  H   UNL     1       7.418   3.146 -18.540  0.00  0.00    +0.000 HD
ENDBRANCH   3  29
TORSDOF 6
ENDMDL
MODEL 4
REMARK VINA RESULT:      -6.5      3.855      9.929
REMARK  Name = 5109870_Ethoxyphenyl.pdbqt.pdb
REMARK  6 active torsions:
REMARK  status: ('A' for Active; 'I' for Inactive)
REMARK    1  A    between atoms: N_2  and  C_22
REMARK    2  A    between atoms: C_3  and  O_11
REMARK    3  A    between atoms: C_3  and  C_13
REMARK    4  A    between atoms: C_16  and  N_19
REMARK    5  A    between atoms: C_25  and  O_28
REMARK    6  A    between atoms: O_28  and  C_29
REMARK                            x       y       z     vdW  Elec       q    Type
REMARK                         _______ _______ _______ _____ _____    ______ ____
ROOT
ATOM      1  N   UNL     1       6.472   4.237   0.359  0.00  0.00    +0.000 N 
ATOM      2  N   UNL     1       8.272   3.519   1.774  0.00  0.00    +0.000 N 
ATOM      3  C   UNL     1       6.002   2.957   0.939  0.00  0.00    +0.000 C 
ATOM      4  C   UNL     1       7.900   4.401   0.778  0.00  0.00    +0.000 C 
ATOM      5  C   UNL     1       7.104   2.684   1.863  0.00  0.00    +0.000 C 
ATOM      6  C   UNL     1       6.283   4.461  -1.074  0.00  0.00    +0.000 C 
ATOM      7  C   UNL     1       8.843   5.034  -0.085  0.00  0.00    +0.000 C 
ATOM      8  C   UNL     1       6.806   4.958  -2.432  0.00  0.00    +0.000 C 
ATOM      9  C   UNL     1       9.169   5.545  -1.497  0.00  0.00    +0.000 C 
ATOM     10  C   UNL     1       8.206   5.510  -2.681  0.00  0.00    +0.000 C 
ENDROOT
BRANCH   3  11
ATOM     11  C   UNL     1       4.648   3.106   1.592  0.00  0.00    +0.000 A 
ATOM     12  C   UNL     1       4.520   3.521   2.925  0.00  0.00    +0.000 A 
ATOM     13  C   UNL     1       3.267   3.698   3.506  0.00  0.00    +0.000 A 
ATOM     14  C   UNL     1       2.129   3.468   2.738  0.00  0.00    +0.000 A 
ATOM     15  C   UNL     1       2.220   3.070   1.407  0.00  0.00    +0.000 A 
ATOM     16  C   UNL     1       3.480   2.898   0.842  0.00  0.00    +0.000 A 
BRANCH  14  17
ATOM     17  N   UNL     1       0.821   3.648   3.337  0.00  0.00    +0.000 N 
ATOM     18  O   UNL     1      -0.068   2.844   3.026  0.00  0.00    +0.000 OA
ATOM     19  O   UNL     1       0.673   4.595   4.123  0.00  0.00    +0.000 OA
ENDBRANCH  14  17
ENDBRANCH   3  11
BRANCH   2  20
ATOM     20  C   UNL     1       9.525   3.165   2.298  0.00  0.00    +0.000 A 
ATOM     21  C   UNL     1      10.343   2.210   1.685  0.00  0.00    +0.000 A 
ATOM     22  C   UNL     1      11.596   1.882   2.201  0.00  0.00    +0.000 A 
ATOM     23  C   UNL     1      12.068   2.515   3.348  0.00  0.00    +0.000 A 
ATOM     24  C   UNL     1      11.278   3.477   3.969  0.00  0.00    +0.000 A 
ATOM     25  C   UNL     1      10.025   3.797   3.445  0.00  0.00    +0.000 A 
BRANCH  23  26
ATOM     26  O   UNL     1      13.283   2.267   3.934  0.00  0.00    +0.000 OA
BRANCH  26  27
ATOM     27  C   UNL     1      14.226   1.830   3.104  0.00  0.00    +0.000 C 
ATOM     28  C   UNL     1      15.320   1.317   2.160  0.00  0.00    +0.000 C 
ENDBRANCH  26  27
ENDBRANCH  23  26
ENDBRANCH   2  20
BRANCH   3  29
ATOM     29  O   UNL     1       5.957   1.897  -0.009  0.00  0.00    +0.000 OA
ATOM     30  H   UNL     1       6.345   1.132   0.448  0.00  0.00    +0.000 HD
ENDBRANCH   3  29
TORSDOF 6
ENDMDL
MODEL 5
REMARK VINA RESULT:      -6.3     22.096     26.861
REMARK  Name = 5109870_Ethoxyphenyl.pdbqt.pdb
REMARK  6 active torsions:
REMARK  status: ('A' for Active; 'I' for Inactive)
REMARK    1  A    between atoms: N_2  and  C_22
REMARK    2  A    between atoms: C_3  and  O_11
REMARK    3  A    between atoms: C_3  and  C_13
REMARK    4  A    between atoms: C_16  and  N_19
REMARK    5  A    between atoms: C_25  and  O_28
REMARK    6  A    between atoms: O_28  and  C_29
REMARK                            x       y       z     vdW  Elec       q    Type
REMARK                         _______ _______ _______ _____ _____    ______ ____
ROOT
ATOM      1  N   UNL     1     -13.296 -10.752 -14.286  0.00  0.00    +0.000 N 
ATOM      2  N   UNL     1     -11.722 -11.831 -15.741  0.00  0.00    +0.000 N 
ATOM      3  C   UNL     1     -12.491 -11.616 -13.389  0.00  0.00    +0.000 C 
ATOM      4  C   UNL     1     -12.880 -11.080 -15.686  0.00  0.00    +0.000 C 
ATOM      5  C   UNL     1     -11.503 -12.115 -14.348  0.00  0.00    +0.000 C 
ATOM      6  C   UNL     1     -14.749 -10.747 -14.122  0.00  0.00    +0.000 C 
ATOM      7  C   UNL     1     -13.824 -11.037 -16.754  0.00  0.00    +0.000 C 
ATOM      8  C   UNL     1     -16.164 -10.758 -14.726  0.00  0.00    +0.000 C 
ATOM      9  C   UNL     1     -15.301 -10.969 -17.177  0.00  0.00    +0.000 C 
ATOM     10  C   UNL     1     -16.479 -10.849 -16.215  0.00  0.00    +0.000 C 
ENDROOT
BRANCH   3  11
ATOM     11  C   UNL     1     -11.914 -10.833 -12.233  0.00  0.00    +0.000 A 
ATOM     12  C   UNL     1     -10.968  -9.818 -12.436  0.00  0.00    +0.000 A 
ATOM     13  C   UNL     1     -10.474  -9.071 -11.369  0.00  0.00    +0.000 A 
ATOM     14  C   UNL     1     -10.943  -9.338 -10.086  0.00  0.00    +0.000 A 
ATOM     15  C   UNL     1     -11.893 -10.327  -9.851  0.00  0.00    +0.000 A 
ATOM     16  C   UNL     1     -12.377 -11.063 -10.928  0.00  0.00    +0.000 A 
BRANCH  14  17
ATOM     17  N   UNL     1     -10.431  -8.566  -8.971  0.00  0.00    +0.000 N 
ATOM     18  O   UNL     1     -11.214  -7.792  -8.401  0.00  0.00    +0.000 OA
ATOM     19  O   UNL     1      -9.244  -8.728  -8.654  0.00  0.00    +0.000 OA
ENDBRANCH  14  17
ENDBRANCH   3  11
BRANCH   2  20
ATOM     20  C   UNL     1     -11.108 -12.538 -16.787  0.00  0.00    +0.000 A 
ATOM     21  C   UNL     1     -10.844 -13.909 -16.701  0.00  0.00    +0.000 A 
ATOM     22  C   UNL     1     -10.254 -14.607 -17.755  0.00  0.00    +0.000 A 
ATOM     23  C   UNL     1      -9.919 -13.943 -18.933  0.00  0.00    +0.000 A 
ATOM     24  C   UNL     1     -10.182 -12.581 -19.046  0.00  0.00    +0.000 A 
ATOM     25  C   UNL     1     -10.773 -11.893 -17.985  0.00  0.00    +0.000 A 
BRANCH  23  26
ATOM     26  O   UNL     1      -9.338 -14.534 -20.025  0.00  0.00    +0.000 OA
BRANCH  26  27
ATOM     27  C   UNL     1      -9.750 -14.067 -21.201  0.00  0.00    +0.000 C 
ATOM     28  C   UNL     1     -10.241 -13.530 -22.550  0.00  0.00    +0.000 C 
ENDBRANCH  26  27
ENDBRANCH  23  26
ENDBRANCH   2  20
BRANCH   3  29
ATOM     29  O   UNL     1     -13.215 -12.733 -12.891  0.00  0.00    +0.000 OA
ATOM     30  H   UNL     1     -13.582 -12.439 -12.041  0.00  0.00    +0.000 HD
ENDBRANCH   3  29
TORSDOF 6
ENDMDL
MODEL 6
REMARK VINA RESULT:      -6.3     19.516     22.358
REMARK  Name = 5109870_Ethoxyphenyl.pdbqt.pdb
REMARK  6 active torsions:
REMARK  status: ('A' for Active; 'I' for Inactive)
REMARK    1  A    between atoms: N_2  and  C_22
REMARK    2  A    between atoms: C_3  and  O_11
REMARK    3  A    between atoms: C_3  and  C_13
REMARK    4  A    between atoms: C_16  and  N_19
REMARK    5  A    between atoms: C_25  and  O_28
REMARK    6  A    between atoms: O_28  and  C_29
REMARK                            x       y       z     vdW  Elec       q    Type
REMARK                         _______ _______ _______ _____ _____    ______ ____
ROOT
ATOM      1  N   UNL     1       4.328  -1.184 -20.043  0.00  0.00    +0.000 N 
ATOM      2  N   UNL     1       5.905   0.489 -19.355  0.00  0.00    +0.000 N 
ATOM      3  C   UNL     1       3.724  -0.578 -18.832  0.00  0.00    +0.000 C 
ATOM      4  C   UNL     1       5.703  -0.605 -20.174  0.00  0.00    +0.000 C 
ATOM      5  C   UNL     1       4.692   0.492 -18.581  0.00  0.00    +0.000 C 
ATOM      6  C   UNL     1       4.323  -2.641 -20.166  0.00  0.00    +0.000 C 
ATOM      7  C   UNL     1       6.774  -1.387 -20.697  0.00  0.00    +0.000 C 
ATOM      8  C   UNL     1       5.030  -3.956 -20.534  0.00  0.00    +0.000 C 
ATOM      9  C   UNL     1       7.293  -2.782 -21.084  0.00  0.00    +0.000 C 
ATOM     10  C   UNL     1       6.477  -4.069 -21.003  0.00  0.00    +0.000 C 
ENDROOT
BRANCH   3  11
ATOM     11  C   UNL     1       2.312  -0.108 -19.091  0.00  0.00    +0.000 A 
ATOM     12  C   UNL     1       1.204  -0.818 -18.607  0.00  0.00    +0.000 A 
ATOM     13  C   UNL     1      -0.094  -0.355 -18.813  0.00  0.00    +0.000 A 
ATOM     14  C   UNL     1      -0.281   0.840 -19.501  0.00  0.00    +0.000 A 
ATOM     15  C   UNL     1       0.797   1.578 -19.981  0.00  0.00    +0.000 A 
ATOM     16  C   UNL     1       2.087   1.101 -19.767  0.00  0.00    +0.000 A 
BRANCH  14  17
ATOM     17  N   UNL     1      -1.628   1.328 -19.720  0.00  0.00    +0.000 N 
ATOM     18  O   UNL     1      -2.087   1.250 -20.869  0.00  0.00    +0.000 OA
ATOM     19  O   UNL     1      -2.238   1.792 -18.747  0.00  0.00    +0.000 OA
ENDBRANCH  14  17
ENDBRANCH   3  11
BRANCH   2  20
ATOM     20  C   UNL     1       7.066   1.186 -18.986  0.00  0.00    +0.000 A 
ATOM     21  C   UNL     1       7.113   2.583 -18.951  0.00  0.00    +0.000 A 
ATOM     22  C   UNL     1       8.265   3.266 -18.560  0.00  0.00    +0.000 A 
ATOM     23  C   UNL     1       9.404   2.558 -18.184  0.00  0.00    +0.000 A 
ATOM     24  C   UNL     1       9.378   1.167 -18.200  0.00  0.00    +0.000 A 
ATOM     25  C   UNL     1       8.221   0.494 -18.592  0.00  0.00    +0.000 A 
BRANCH  23  26
ATOM     26  O   UNL     1      10.583   3.132 -17.785  0.00  0.00    +0.000 OA
BRANCH  26  27
ATOM     27  C   UNL     1      11.218   2.487 -16.808  0.00  0.00    +0.000 C 
ATOM     28  C   UNL     1      11.952   1.759 -15.676  0.00  0.00    +0.000 C 
ENDBRANCH  26  27
ENDBRANCH  23  26
ENDBRANCH   2  20
BRANCH   3  29
ATOM     29  O   UNL     1       3.736  -1.447 -17.707  0.00  0.00    +0.000 OA
ATOM     30  H   UNL     1       3.566  -2.333 -18.069  0.00  0.00    +0.000 HD
ENDBRANCH   3  29
TORSDOF 6
ENDMDL
MODEL 7
REMARK VINA RESULT:      -6.3     20.392     22.158
REMARK  Name = 5109870_Ethoxyphenyl.pdbqt.pdb
REMARK  6 active torsions:
REMARK  status: ('A' for Active; 'I' for Inactive)
REMARK    1  A    between atoms: N_2  and  C_22
REMARK    2  A    between atoms: C_3  and  O_11
REMARK    3  A    between atoms: C_3  and  C_13
REMARK    4  A    between atoms: C_16  and  N_19
REMARK    5  A    between atoms: C_25  and  O_28
REMARK    6  A    between atoms: O_28  and  C_29
REMARK                            x       y       z     vdW  Elec       q    Type
REMARK                         _______ _______ _______ _____ _____    ______ ____
ROOT
ATOM      1  N   UNL     1      -1.694   0.106 -20.591  0.00  0.00    +0.000 N 
ATOM      2  N   UNL     1      -3.492  -1.361 -19.982  0.00  0.00    +0.000 N 
ATOM      3  C   UNL     1      -1.376  -0.316 -19.206  0.00  0.00    +0.000 C 
ATOM      4  C   UNL     1      -3.058  -0.427 -20.902  0.00  0.00    +0.000 C 
ATOM      5  C   UNL     1      -2.451  -1.288 -18.991  0.00  0.00    +0.000 C 
ATOM      6  C   UNL     1      -1.558   1.522 -20.932  0.00  0.00    +0.000 C 
ATOM      7  C   UNL     1      -3.950   0.303 -21.742  0.00  0.00    +0.000 C 
ATOM      8  C   UNL     1      -2.083   2.787 -21.632  0.00  0.00    +0.000 C 
ATOM      9  C   UNL     1      -4.281   1.635 -22.433  0.00  0.00    +0.000 C 
ATOM     10  C   UNL     1      -3.403   2.882 -22.391  0.00  0.00    +0.000 C 
ENDROOT
BRANCH   3  11
ATOM     11  C   UNL     1       0.021  -0.882 -19.104  0.00  0.00    +0.000 A 
ATOM     12  C   UNL     1       1.096  -0.101 -18.658  0.00  0.00    +0.000 A 
ATOM     13  C   UNL     1       2.372  -0.642 -18.525  0.00  0.00    +0.000 A 
ATOM     14  C   UNL     1       2.569  -1.985 -18.830  0.00  0.00    +0.000 A 
ATOM     15  C   UNL     1       1.521  -2.794 -19.260  0.00  0.00    +0.000 A 
ATOM     16  C   UNL     1       0.252  -2.237 -19.388  0.00  0.00    +0.000 A 
BRANCH  14  17
ATOM     17  N   UNL     1       3.895  -2.556 -18.696  0.00  0.00    +0.000 N 
ATOM     18  O   UNL     1       4.468  -2.426 -17.605  0.00  0.00    +0.000 OA
ATOM     19  O   UNL     1       4.374  -3.138 -19.679  0.00  0.00    +0.000 OA
ENDBRANCH  14  17
ENDBRANCH   3  11
BRANCH   2  20
ATOM     20  C   UNL     1      -4.750  -1.938 -19.748  0.00  0.00    +0.000 A 
ATOM     21  C   UNL     1      -5.380  -1.865 -18.502  0.00  0.00    +0.000 A 
ATOM     22  C   UNL     1      -6.641  -2.421 -18.287  0.00  0.00    +0.000 A 
ATOM     23  C   UNL     1      -7.310  -3.062 -19.327  0.00  0.00    +0.000 A 
ATOM     24  C   UNL     1      -6.708  -3.137 -20.579  0.00  0.00    +0.000 A 
ATOM     25  C   UNL     1      -5.447  -2.578 -20.783  0.00  0.00    +0.000 A 
BRANCH  23  26
ATOM     26  O   UNL     1      -8.549  -3.640 -19.221  0.00  0.00    +0.000 OA
BRANCH  26  27
ATOM     27  C   UNL     1      -9.387  -3.019 -18.394  0.00  0.00    +0.000 C 
ATOM     28  C   UNL     1     -10.363  -2.318 -17.442  0.00  0.00    +0.000 C 
ENDBRANCH  26  27
ENDBRANCH  23  26
ENDBRANCH   2  20
BRANCH   3  29
ATOM     29  O   UNL     1      -1.537   0.726 -18.253  0.00  0.00    +0.000 OA
ATOM     30  H   UNL     1      -1.313   0.324 -17.397  0.00  0.00    +0.000 HD
ENDBRANCH   3  29
TORSDOF 6
ENDMDL
MODEL 8
REMARK VINA RESULT:      -6.2     18.932     23.849
REMARK  Name = 5109870_Ethoxyphenyl.pdbqt.pdb
REMARK  6 active torsions:
REMARK  status: ('A' for Active; 'I' for Inactive)
REMARK    1  A    between atoms: N_2  and  C_22
REMARK    2  A    between atoms: C_3  and  O_11
REMARK    3  A    between atoms: C_3  and  C_13
REMARK    4  A    between atoms: C_16  and  N_19
REMARK    5  A    between atoms: C_25  and  O_28
REMARK    6  A    between atoms: O_28  and  C_29
REMARK                            x       y       z     vdW  Elec       q    Type
REMARK                         _______ _______ _______ _____ _____    ______ ____
ROOT
ATOM      1  N   UNL     1      12.166  13.651 -16.435  0.00  0.00    +0.000 N 
ATOM      2  N   UNL     1      12.416  12.415 -18.477  0.00  0.00    +0.000 N 
ATOM      3  C   UNL     1      10.984  12.757 -16.477  0.00  0.00    +0.000 C 
ATOM      4  C   UNL     1      12.866  13.500 -17.750  0.00  0.00    +0.000 C 
ATOM      5  C   UNL     1      11.304  11.979 -17.675  0.00  0.00    +0.000 C 
ATOM      6  C   UNL     1      11.964  15.052 -16.069  0.00  0.00    +0.000 C 
ATOM      7  C   UNL     1      13.534  14.609 -18.349  0.00  0.00    +0.000 C 
ATOM      8  C   UNL     1      12.254  16.547 -16.283  0.00  0.00    +0.000 C 
ATOM      9  C   UNL     1      13.762  16.129 -18.369  0.00  0.00    +0.000 C 
ATOM     10  C   UNL     1      13.141  17.116 -17.386  0.00  0.00    +0.000 C 
ENDROOT
BRANCH   3  11
ATOM     11  C   UNL     1      10.854  11.946 -15.209  0.00  0.00    +0.000 A 
ATOM     12  C   UNL     1      11.453  10.685 -15.082  0.00  0.00    +0.000 A 
ATOM     13  C   UNL     1      11.365   9.963 -13.895  0.00  0.00    +0.000 A 
ATOM     14  C   UNL     1      10.679  10.518 -12.818  0.00  0.00    +0.000 A 
ATOM     15  C   UNL     1      10.087  11.774 -12.904  0.00  0.00    +0.000 A 
ATOM     16  C   UNL     1      10.184  12.482 -14.098  0.00  0.00    +0.000 A 
BRANCH  14  17
ATOM     17  N   UNL     1      10.582   9.771 -11.580  0.00  0.00    +0.000 N 
ATOM     18  O   UNL     1      11.233  10.183 -10.609  0.00  0.00    +0.000 OA
ATOM     19  O   UNL     1       9.854   8.768 -11.567  0.00  0.00    +0.000 OA
ENDBRANCH  14  17
ENDBRANCH   3  11
BRANCH   2  20
ATOM     20  C   UNL     1      12.612  12.031 -19.813  0.00  0.00    +0.000 A 
ATOM     21  C   UNL     1      13.747  11.323 -20.222  0.00  0.00    +0.000 A 
ATOM     22  C   UNL     1      13.921  10.926 -21.548  0.00  0.00    +0.000 A 
ATOM     23  C   UNL     1      12.950  11.224 -22.501  0.00  0.00    +0.000 A 
ATOM     24  C   UNL     1      11.808  11.919 -22.115  0.00  0.00    +0.000 A 
ATOM     25  C   UNL     1      11.644  12.311 -20.787  0.00  0.00    +0.000 A 
BRANCH  23  26
ATOM     26  O   UNL     1      13.024  10.880 -23.826  0.00  0.00    +0.000 OA
BRANCH  26  27
ATOM     27  C   UNL     1      11.931  10.301 -24.316  0.00  0.00    +0.000 C 
ATOM     28  C   UNL     1      10.668   9.626 -24.866  0.00  0.00    +0.000 C 
ENDBRANCH  26  27
ENDBRANCH  23  26
ENDBRANCH   2  20
BRANCH   3  29
ATOM     29  O   UNL     1       9.767  13.451 -16.723  0.00  0.00    +0.000 OA
ATOM     30  H   UNL     1       9.277  12.890 -17.346  0.00  0.00    +0.000 HD
ENDBRANCH   3  29
TORSDOF 6
ENDMDL
MODEL 9
REMARK VINA RESULT:      -6.2      3.920      6.074
REMARK  Name = 5109870_Ethoxyphenyl.pdbqt.pdb
REMARK  6 active torsions:
REMARK  status: ('A' for Active; 'I' for Inactive)
REMARK    1  A    between atoms: N_2  and  C_22
REMARK    2  A    between atoms: C_3  and  O_11
REMARK    3  A    between atoms: C_3  and  C_13
REMARK    4  A    between atoms: C_16  and  N_19
REMARK    5  A    between atoms: C_25  and  O_28
REMARK    6  A    between atoms: O_28  and  C_29
REMARK                            x       y       z     vdW  Elec       q    Type
REMARK                         _______ _______ _______ _____ _____    ______ ____
ROOT
ATOM      1  N   UNL     1       8.055   2.966   0.660  0.00  0.00    +0.000 N 
ATOM      2  N   UNL     1       5.797   2.380   1.224  0.00  0.00    +0.000 N 
ATOM      3  C   UNL     1       8.068   2.806   2.134  0.00  0.00    +0.000 C 
ATOM      4  C   UNL     1       6.625   2.864   0.229  0.00  0.00    +0.000 C 
ATOM      5  C   UNL     1       6.698   2.334   2.345  0.00  0.00    +0.000 C 
ATOM      6  C   UNL     1       8.730   4.127   0.083  0.00  0.00    +0.000 C 
ATOM      7  C   UNL     1       6.142   3.628  -0.874  0.00  0.00    +0.000 C 
ATOM      8  C   UNL     1       8.770   5.289  -0.925  0.00  0.00    +0.000 C 
ATOM      9  C   UNL     1       6.385   4.787  -1.854  0.00  0.00    +0.000 C 
ATOM     10  C   UNL     1       7.651   5.637  -1.902  0.00  0.00    +0.000 C 
ENDROOT
BRANCH   3  11
ATOM     11  C   UNL     1       9.146   1.846   2.580  0.00  0.00    +0.000 A 
ATOM     12  C   UNL     1       9.619   0.832   1.734  0.00  0.00    +0.000 A 
ATOM     13  C   UNL     1      10.643  -0.021   2.137  0.00  0.00    +0.000 A 
ATOM     14  C   UNL     1      11.207   0.152   3.397  0.00  0.00    +0.000 A 
ATOM     15  C   UNL     1      10.773   1.157   4.256  0.00  0.00    +0.000 A 
ATOM     16  C   UNL     1       9.749   2.001   3.837  0.00  0.00    +0.000 A 
BRANCH  14  17
ATOM     17  N   UNL     1      12.273  -0.734   3.824  0.00  0.00    +0.000 N 
ATOM     18  O   UNL     1      13.341  -0.691   3.198  0.00  0.00    +0.000 OA
ATOM     19  O   UNL     1      12.050  -1.479   4.789  0.00  0.00    +0.000 OA
ENDBRANCH  14  17
ENDBRANCH   3  11
BRANCH   2  20
ATOM     20  C   UNL     1       4.399   2.334   1.345  0.00  0.00    +0.000 A 
ATOM     21  C   UNL     1       3.659   1.209   0.968  0.00  0.00    +0.000 A 
ATOM     22  C   UNL     1       2.272   1.164   1.114  0.00  0.00    +0.000 A 
ATOM     23  C   UNL     1       1.591   2.252   1.654  0.00  0.00    +0.000 A 
ATOM     24  C   UNL     1       2.307   3.378   2.047  0.00  0.00    +0.000 A 
ATOM     25  C   UNL     1       3.694   3.413   1.896  0.00  0.00    +0.000 A 
BRANCH  23  26
ATOM     26  O   UNL     1       0.233   2.309   1.840  0.00  0.00    +0.000 OA
BRANCH  26  27
ATOM     27  C   UNL     1      -0.483   1.621   0.955  0.00  0.00    +0.000 C 
ATOM     28  C   UNL     1      -1.301   0.837  -0.078  0.00  0.00    +0.000 C 
ENDBRANCH  26  27
ENDBRANCH  23  26
ENDBRANCH   2  20
BRANCH   3  29
ATOM     29  O   UNL     1       8.214   4.038   2.829  0.00  0.00    +0.000 OA
ATOM     30  H   UNL     1       9.115   4.019   3.192  0.00  0.00    +0.000 HD
ENDBRANCH   3  29
TORSDOF 6
ENDMDL
