MODEL 1
REMARK VINA RESULT:      -6.5      0.000      0.000
REMARK  Name = 5280445_Luteolin.pdbqt.pdb
REMARK  5 active torsions:
REMARK  status: ('A' for Active; 'I' for Inactive)
REMARK    1  A    between atoms: C_5  and  C_12
REMARK    2  A    between atoms: C_8  and  O_22
REMARK    3  A    between atoms: C_10  and  O_24
REMARK    4  A    between atoms: C_15  and  O_18
REMARK    5  A    between atoms: C_17  and  O_20
REMARK                            x       y       z     vdW  Elec       q    Type
REMARK                         _______ _______ _______ _____ _____    ______ ____
ROOT
ATOM      1  O   UNL     1      -1.540  -3.393 -19.188  0.00  0.00    +0.000 OA
ATOM      2  O   UNL     1       0.020   0.408 -19.005  0.00  0.00    +0.000 OA
ATOM      3  C   UNL     1      -1.865  -1.009 -18.552  0.00  0.00    +0.000 A 
ATOM      4  C   UNL     1      -2.307  -2.351 -18.661  0.00  0.00    +0.000 A 
ATOM      5  C   UNL     1      -0.247  -3.116 -19.647  0.00  0.00    +0.000 A 
ATOM      6  C   UNL     1      -0.505  -0.690 -19.029  0.00  0.00    +0.000 A 
ATOM      7  C   UNL     1       0.094  -1.877 -19.520  0.00  0.00    +0.000 A 
ATOM      8  C   UNL     1      -2.695  -0.028 -18.012  0.00  0.00    +0.000 A 
ATOM      9  C   UNL     1      -3.583  -2.690 -18.222  0.00  0.00    +0.000 A 
ATOM     10  C   UNL     1      -4.401  -1.698 -17.684  0.00  0.00    +0.000 A 
ATOM     11  C   UNL     1      -3.970  -0.375 -17.576  0.00  0.00    +0.000 A 
ENDROOT
BRANCH   5  12
ATOM     12  C   UNL     1       0.551  -4.205 -20.196  0.00  0.00    +0.000 A 
ATOM     13  C   UNL     1      -0.057  -5.224 -20.935  0.00  0.00    +0.000 A 
ATOM     14  C   UNL     1       1.937  -4.249 -19.995  0.00  0.00    +0.000 A 
ATOM     15  C   UNL     1       0.712  -6.258 -21.453  0.00  0.00    +0.000 A 
ATOM     16  C   UNL     1       2.710  -5.287 -20.515  0.00  0.00    +0.000 A 
ATOM     17  C   UNL     1       2.087  -6.290 -21.246  0.00  0.00    +0.000 A 
BRANCH  15  18
ATOM     18  O   UNL     1       0.106  -7.247 -22.173  0.00  0.00    +0.000 OA
ATOM     19  H   UNL     1      -0.253  -6.802 -22.967  0.00  0.00    +0.000 HD
ENDBRANCH  15  18
BRANCH  17  20
ATOM     20  O   UNL     1       2.800  -7.330 -21.778  0.00  0.00    +0.000 OA
ATOM     21  H   UNL     1       2.672  -7.313 -22.743  0.00  0.00    +0.000 HD
ENDBRANCH  17  20
ENDBRANCH   5  12
BRANCH   8  22
ATOM     22  O   UNL     1      -2.325   1.282 -17.882  0.00  0.00    +0.000 OA
ATOM     23  H   UNL     1      -1.459   1.424 -18.324  0.00  0.00    +0.000 HD
ENDBRANCH   8  22
BRANCH  10  24
ATOM     24  O   UNL     1      -5.650  -2.053 -17.261  0.00  0.00    +0.000 OA
ATOM     25  H   UNL     1      -6.177  -1.242 -17.150  0.00  0.00    +0.000 HD
ENDBRANCH  10  24
TORSDOF 5
ENDMDL
MODEL 2
REMARK VINA RESULT:      -6.4      3.550      7.304
REMARK  Name = 5280445_Luteolin.pdbqt.pdb
REMARK  5 active torsions:
REMARK  status: ('A' for Active; 'I' for Inactive)
REMARK    1  A    between atoms: C_5  and  C_12
REMARK    2  A    between atoms: C_8  and  O_22
REMARK    3  A    between atoms: C_10  and  O_24
REMARK    4  A    between atoms: C_15  and  O_18
REMARK    5  A    between atoms: C_17  and  O_20
REMARK                            x       y       z     vdW  Elec       q    Type
REMARK                         _______ _______ _______ _____ _____    ______ ____
ROOT
ATOM      1  O   UNL     1      -4.831  -1.021 -19.012  0.00  0.00    +0.000 OA
ATOM      2  O   UNL     1      -1.790  -3.749 -18.531  0.00  0.00    +0.000 OA
ATOM      3  C   UNL     1      -2.383  -1.447 -18.874  0.00  0.00    +0.000 A 
ATOM      4  C   UNL     1      -3.501  -0.591 -19.031  0.00  0.00    +0.000 A 
ATOM      5  C   UNL     1      -5.099  -2.383 -18.829  0.00  0.00    +0.000 A 
ATOM      6  C   UNL     1      -2.638  -2.887 -18.679  0.00  0.00    +0.000 A 
ATOM      7  C   UNL     1      -4.039  -3.106 -18.692  0.00  0.00    +0.000 A 
ATOM      8  C   UNL     1      -1.086  -0.936 -18.904  0.00  0.00    +0.000 A 
ATOM      9  C   UNL     1      -3.301   0.772 -19.216  0.00  0.00    +0.000 A 
ATOM     10  C   UNL     1      -1.999   1.269 -19.244  0.00  0.00    +0.000 A 
ATOM     11  C   UNL     1      -0.894   0.430 -19.090  0.00  0.00    +0.000 A 
ENDROOT
BRANCH   5  12
ATOM     12  C   UNL     1      -6.487  -2.828 -18.809  0.00  0.00    +0.000 A 
ATOM     13  C   UNL     1      -7.509  -1.941 -18.459  0.00  0.00    +0.000 A 
ATOM     14  C   UNL     1      -6.820  -4.148 -19.142  0.00  0.00    +0.000 A 
ATOM     15  C   UNL     1      -8.828  -2.376 -18.443  0.00  0.00    +0.000 A 
ATOM     16  C   UNL     1      -8.145  -4.585 -19.126  0.00  0.00    +0.000 A 
ATOM     17  C   UNL     1      -9.145  -3.688 -18.775  0.00  0.00    +0.000 A 
BRANCH  15  18
ATOM     18  O   UNL     1      -9.817  -1.499 -18.099  0.00  0.00    +0.000 OA
ATOM     19  H   UNL     1     -10.460  -1.538 -18.836  0.00  0.00    +0.000 HD
ENDBRANCH  15  18
BRANCH  17  20
ATOM     20  O   UNL     1     -10.459  -4.067 -18.744  0.00  0.00    +0.000 OA
ATOM     21  H   UNL     1     -11.001  -3.265 -18.861  0.00  0.00    +0.000 HD
ENDBRANCH  17  20
ENDBRANCH   5  12
BRANCH   8  22
ATOM     22  O   UNL     1       0.031  -1.711 -18.760  0.00  0.00    +0.000 OA
ATOM     23  H   UNL     1       0.833  -1.152 -18.852  0.00  0.00    +0.000 HD
ENDBRANCH   8  22
BRANCH  10  24
ATOM     24  O   UNL     1      -1.825   2.611 -19.428  0.00  0.00    +0.000 OA
ATOM     25  H   UNL     1      -1.158   2.739 -20.126  0.00  0.00    +0.000 HD
ENDBRANCH  10  24
TORSDOF 5
ENDMDL
MODEL 3
REMARK VINA RESULT:      -6.4      2.991      3.964
REMARK  Name = 5280445_Luteolin.pdbqt.pdb
REMARK  5 active torsions:
REMARK  status: ('A' for Active; 'I' for Inactive)
REMARK    1  A    between atoms: C_5  and  C_12
REMARK    2  A    between atoms: C_8  and  O_22
REMARK    3  A    between atoms: C_10  and  O_24
REMARK    4  A    between atoms: C_15  and  O_18
REMARK    5  A    between atoms: C_17  and  O_20
REMARK                            x       y       z     vdW  Elec       q    Type
REMARK                         _______ _______ _______ _____ _____    ______ ____
ROOT
ATOM      1  O   UNL     1      -0.960  -1.819 -18.671  0.00  0.00    +0.000 OA
ATOM      2  O   UNL     1      -2.040   2.085 -19.388  0.00  0.00    +0.000 OA
ATOM      3  C   UNL     1      -2.789  -0.161 -18.989  0.00  0.00    +0.000 A 
ATOM      4  C   UNL     1      -2.312  -1.474 -18.747  0.00  0.00    +0.000 A 
ATOM      5  C   UNL     1       0.005  -0.819 -18.843  0.00  0.00    +0.000 A 
ATOM      6  C   UNL     1      -1.793   0.912 -19.174  0.00  0.00    +0.000 A 
ATOM      7  C   UNL     1      -0.496   0.352 -19.059  0.00  0.00    +0.000 A 
ATOM      8  C   UNL     1      -4.158   0.098 -19.049  0.00  0.00    +0.000 A 
ATOM      9  C   UNL     1      -3.220  -2.512 -18.568  0.00  0.00    +0.000 A 
ATOM     10  C   UNL     1      -4.585  -2.237 -18.631  0.00  0.00    +0.000 A 
ATOM     11  C   UNL     1      -5.060  -0.946 -18.869  0.00  0.00    +0.000 A 
ENDROOT
BRANCH   5  12
ATOM     12  C   UNL     1       1.414  -1.182 -18.762  0.00  0.00    +0.000 A 
ATOM     13  C   UNL     1       2.372  -0.224 -18.418  0.00  0.00    +0.000 A 
ATOM     14  C   UNL     1       1.831  -2.493 -19.027  0.00  0.00    +0.000 A 
ATOM     15  C   UNL     1       3.713  -0.581 -18.345  0.00  0.00    +0.000 A 
ATOM     16  C   UNL     1       3.178  -2.851 -18.954  0.00  0.00    +0.000 A 
ATOM     17  C   UNL     1       4.114  -1.885 -18.610  0.00  0.00    +0.000 A 
BRANCH  15  18
ATOM     18  O   UNL     1       4.639   0.365 -18.008  0.00  0.00    +0.000 OA
ATOM     19  H   UNL     1       4.322   1.192 -18.423  0.00  0.00    +0.000 HD
ENDBRANCH  15  18
BRANCH  17  20
ATOM     20  O   UNL     1       5.446  -2.185 -18.524  0.00  0.00    +0.000 OA
ATOM     21  H   UNL     1       5.638  -2.871 -19.190  0.00  0.00    +0.000 HD
ENDBRANCH  17  20
ENDBRANCH   5  12
BRANCH   8  22
ATOM     22  O   UNL     1      -4.677   1.342 -19.279  0.00  0.00    +0.000 OA
ATOM     23  H   UNL     1      -5.573   1.402 -18.882  0.00  0.00    +0.000 HD
ENDBRANCH   8  22
BRANCH  10  24
ATOM     24  O   UNL     1      -5.459  -3.271 -18.453  0.00  0.00    +0.000 OA
ATOM     25  H   UNL     1      -5.964  -3.106 -17.636  0.00  0.00    +0.000 HD
ENDBRANCH  10  24
TORSDOF 5
ENDMDL
MODEL 4
REMARK VINA RESULT:      -6.2      4.225      7.660
REMARK  Name = 5280445_Luteolin.pdbqt.pdb
REMARK  5 active torsions:
REMARK  status: ('A' for Active; 'I' for Inactive)
REMARK    1  A    between atoms: C_5  and  C_12
REMARK    2  A    between atoms: C_8  and  O_22
REMARK    3  A    between atoms: C_10  and  O_24
REMARK    4  A    between atoms: C_15  and  O_18
REMARK    5  A    between atoms: C_17  and  O_20
REMARK                            x       y       z     vdW  Elec       q    Type
REMARK                         _______ _______ _______ _____ _____    ______ ____
ROOT
ATOM      1  O   UNL     1      -7.114  -1.125 -19.643  0.00  0.00    +0.000 OA
ATOM      2  O   UNL     1      -8.089  -5.022 -18.763  0.00  0.00    +0.000 OA
ATOM      3  C   UNL     1      -8.853  -2.905 -19.599  0.00  0.00    +0.000 A 
ATOM      4  C   UNL     1      -8.415  -1.584 -19.867  0.00  0.00    +0.000 A 
ATOM      5  C   UNL     1      -6.164  -2.010 -19.119  0.00  0.00    +0.000 A 
ATOM      6  C   UNL     1      -7.872  -3.858 -19.046  0.00  0.00    +0.000 A 
ATOM      7  C   UNL     1      -6.627  -3.195 -18.898  0.00  0.00    +0.000 A 
ATOM      8  C   UNL     1     -10.171  -3.282 -19.853  0.00  0.00    +0.000 A 
ATOM      9  C   UNL     1      -9.310  -0.657 -20.389  0.00  0.00    +0.000 A 
ATOM     10  C   UNL     1     -10.624  -1.049 -20.637  0.00  0.00    +0.000 A 
ATOM     11  C   UNL     1     -11.061  -2.348 -20.375  0.00  0.00    +0.000 A 
ENDROOT
BRANCH   5  12
ATOM     12  C   UNL     1      -4.809  -1.529 -18.887  0.00  0.00    +0.000 A 
ATOM     13  C   UNL     1      -4.588  -0.376 -18.127  0.00  0.00    +0.000 A 
ATOM     14  C   UNL     1      -3.706  -2.211 -19.418  0.00  0.00    +0.000 A 
ATOM     15  C   UNL     1      -3.292   0.075 -17.913  0.00  0.00    +0.000 A 
ATOM     16  C   UNL     1      -2.404  -1.758 -19.202  0.00  0.00    +0.000 A 
ATOM     17  C   UNL     1      -2.207  -0.611 -18.445  0.00  0.00    +0.000 A 
BRANCH  15  18
ATOM     18  O   UNL     1      -3.091   1.202 -17.169  0.00  0.00    +0.000 OA
ATOM     19  H   UNL     1      -2.170   1.133 -16.845  0.00  0.00    +0.000 HD
ENDBRANCH  15  18
BRANCH  17  20
ATOM     20  O   UNL     1      -0.950  -0.126 -18.205  0.00  0.00    +0.000 OA
ATOM     21  H   UNL     1      -0.321  -0.669 -18.714  0.00  0.00    +0.000 HD
ENDBRANCH  17  20
ENDBRANCH   5  12
BRANCH   8  22
ATOM     22  O   UNL     1     -10.651  -4.540 -19.615  0.00  0.00    +0.000 OA
ATOM     23  H   UNL     1      -9.982  -5.059 -19.119  0.00  0.00    +0.000 HD
ENDBRANCH   8  22
BRANCH  10  24
ATOM     24  O   UNL     1     -11.487  -0.122 -21.149  0.00  0.00    +0.000 OA
ATOM     25  H   UNL     1     -10.977   0.675 -21.379  0.00  0.00    +0.000 HD
ENDBRANCH  10  24
TORSDOF 5
ENDMDL
MODEL 5
REMARK VINA RESULT:      -6.2      8.993     11.820
REMARK  Name = 5280445_Luteolin.pdbqt.pdb
REMARK  5 active torsions:
REMARK  status: ('A' for Active; 'I' for Inactive)
REMARK    1  A    between atoms: C_5  and  C_12
REMARK    2  A    between atoms: C_8  and  O_22
REMARK    3  A    between atoms: C_10  and  O_24
REMARK    4  A    between atoms: C_15  and  O_18
REMARK    5  A    between atoms: C_17  and  O_20
REMARK                            x       y       z     vdW  Elec       q    Type
REMARK                         _______ _______ _______ _____ _____    ______ ____
ROOT
ATOM      1  O   UNL     1       8.308   1.227 -17.499  0.00  0.00    +0.000 OA
ATOM      2  O   UNL     1      10.333   1.332 -21.078  0.00  0.00    +0.000 OA
ATOM      3  C   UNL     1      10.492   1.385 -18.683  0.00  0.00    +0.000 A 
ATOM      4  C   UNL     1       9.701   1.341 -17.508  0.00  0.00    +0.000 A 
ATOM      5  C   UNL     1       7.628   1.151 -18.721  0.00  0.00    +0.000 A 
ATOM      6  C   UNL     1       9.800   1.307 -19.983  0.00  0.00    +0.000 A 
ATOM      7  C   UNL     1       8.406   1.197 -19.750  0.00  0.00    +0.000 A 
ATOM      8  C   UNL     1      11.879   1.498 -18.602  0.00  0.00    +0.000 A 
ATOM      9  C   UNL     1      10.317   1.411 -16.263  0.00  0.00    +0.000 A 
ATOM     10  C   UNL     1      11.705   1.524 -16.198  0.00  0.00    +0.000 A 
ATOM     11  C   UNL     1      12.488   1.569 -17.353  0.00  0.00    +0.000 A 
ENDROOT
BRANCH   5  12
ATOM     12  C   UNL     1       6.176   1.033 -18.709  0.00  0.00    +0.000 A 
ATOM     13  C   UNL     1       5.384   2.081 -18.230  0.00  0.00    +0.000 A 
ATOM     14  C   UNL     1       5.549  -0.130 -19.177  0.00  0.00    +0.000 A 
ATOM     15  C   UNL     1       4.001   1.957 -18.222  0.00  0.00    +0.000 A 
ATOM     16  C   UNL     1       4.159  -0.254 -19.170  0.00  0.00    +0.000 A 
ATOM     17  C   UNL     1       3.391   0.798 -18.690  0.00  0.00    +0.000 A 
BRANCH  15  18
ATOM     18  O   UNL     1       3.240   2.988 -17.752  0.00  0.00    +0.000 OA
ATOM     19  H   UNL     1       3.814   3.778 -17.813  0.00  0.00    +0.000 HD
ENDBRANCH  15  18
BRANCH  17  20
ATOM     20  O   UNL     1       2.025   0.726 -18.661  0.00  0.00    +0.000 OA
ATOM     21  H   UNL     1       1.685   1.259 -19.403  0.00  0.00    +0.000 HD
ENDBRANCH  17  20
ENDBRANCH   5  12
BRANCH   8  22
ATOM     22  O   UNL     1      12.694   1.546 -19.699  0.00  0.00    +0.000 OA
ATOM     23  H   UNL     1      12.622   2.429 -20.124  0.00  0.00    +0.000 HD
ENDBRANCH   8  22
BRANCH  10  24
ATOM     24  O   UNL     1      12.289   1.593 -14.966  0.00  0.00    +0.000 OA
ATOM     25  H   UNL     1      12.918   0.854 -14.885  0.00  0.00    +0.000 HD
ENDBRANCH  10  24
TORSDOF 5
ENDMDL
MODEL 6
REMARK VINA RESULT:      -6.0      4.088      7.934
REMARK  Name = 5280445_Luteolin.pdbqt.pdb
REMARK  5 active torsions:
REMARK  status: ('A' for Active; 'I' for Inactive)
REMARK    1  A    between atoms: C_5  and  C_12
REMARK    2  A    between atoms: C_8  and  O_22
REMARK    3  A    between atoms: C_10  and  O_24
REMARK    4  A    between atoms: C_15  and  O_18
REMARK    5  A    between atoms: C_17  and  O_20
REMARK                            x       y       z     vdW  Elec       q    Type
REMARK                         _______ _______ _______ _____ _____    ______ ____
ROOT
ATOM      1  O   UNL     1       0.862   1.632 -19.675  0.00  0.00    +0.000 OA
ATOM      2  O   UNL     1       0.118  -2.326 -18.839  0.00  0.00    +0.000 OA
ATOM      3  C   UNL     1       1.650  -0.488 -18.636  0.00  0.00    +0.000 A 
ATOM      4  C   UNL     1       1.809   0.879 -18.974  0.00  0.00    +0.000 A 
ATOM      5  C   UNL     1      -0.327   1.015 -20.080  0.00  0.00    +0.000 A 
ATOM      6  C   UNL     1       0.405  -1.162 -19.051  0.00  0.00    +0.000 A 
ATOM      7  C   UNL     1      -0.409  -0.228 -19.741  0.00  0.00    +0.000 A 
ATOM      8  C   UNL     1       2.644  -1.167 -17.933  0.00  0.00    +0.000 A 
ATOM      9  C   UNL     1       2.969   1.548 -18.599  0.00  0.00    +0.000 A 
ATOM     10  C   UNL     1       3.954   0.856 -17.897  0.00  0.00    +0.000 A 
ATOM     11  C   UNL     1       3.802  -0.490 -17.562  0.00  0.00    +0.000 A 
ENDROOT
BRANCH   5  12
ATOM     12  C   UNL     1      -1.312   1.803 -20.810  0.00  0.00    +0.000 A 
ATOM     13  C   UNL     1      -1.173   3.191 -20.912  0.00  0.00    +0.000 A 
ATOM     14  C   UNL     1      -2.412   1.186 -21.422  0.00  0.00    +0.000 A 
ATOM     15  C   UNL     1      -2.118   3.932 -21.610  0.00  0.00    +0.000 A 
ATOM     16  C   UNL     1      -3.361   1.931 -22.123  0.00  0.00    +0.000 A 
ATOM     17  C   UNL     1      -3.204   3.308 -22.212  0.00  0.00    +0.000 A 
BRANCH  15  18
ATOM     18  O   UNL     1      -1.970   5.287 -21.702  0.00  0.00    +0.000 OA
ATOM     19  H   UNL     1      -1.238   5.506 -21.090  0.00  0.00    +0.000 HD
ENDBRANCH  15  18
BRANCH  17  20
ATOM     20  O   UNL     1      -4.106   4.083 -22.888  0.00  0.00    +0.000 OA
ATOM     21  H   UNL     1      -3.647   4.472 -23.654  0.00  0.00    +0.000 HD
ENDBRANCH  17  20
ENDBRANCH   5  12
BRANCH   8  22
ATOM     22  O   UNL     1       2.549  -2.484 -17.579  0.00  0.00    +0.000 OA
ATOM     23  H   UNL     1       2.380  -3.028 -18.379  0.00  0.00    +0.000 HD
ENDBRANCH   8  22
BRANCH  10  24
ATOM     24  O   UNL     1       5.085   1.532 -17.539  0.00  0.00    +0.000 OA
ATOM     25  H   UNL     1       5.806   1.257 -18.134  0.00  0.00    +0.000 HD
ENDBRANCH  10  24
TORSDOF 5
ENDMDL
MODEL 7
REMARK VINA RESULT:      -6.0     21.011     22.602
REMARK  Name = 5280445_Luteolin.pdbqt.pdb
REMARK  5 active torsions:
REMARK  status: ('A' for Active; 'I' for Inactive)
REMARK    1  A    between atoms: C_5  and  C_12
REMARK    2  A    between atoms: C_8  and  O_22
REMARK    3  A    between atoms: C_10  and  O_24
REMARK    4  A    between atoms: C_15  and  O_18
REMARK    5  A    between atoms: C_17  and  O_20
REMARK                            x       y       z     vdW  Elec       q    Type
REMARK                         _______ _______ _______ _____ _____    ______ ____
ROOT
ATOM      1  O   UNL     1       5.698   4.059  -0.654  0.00  0.00    +0.000 OA
ATOM      2  O   UNL     1       8.272   4.111   2.555  0.00  0.00    +0.000 OA
ATOM      3  C   UNL     1       7.913   4.729   0.262  0.00  0.00    +0.000 A 
ATOM      4  C   UNL     1       6.955   4.657  -0.779  0.00  0.00    +0.000 A 
ATOM      5  C   UNL     1       5.341   3.485   0.573  0.00  0.00    +0.000 A 
ATOM      6  C   UNL     1       7.563   4.132   1.565  0.00  0.00    +0.000 A 
ATOM      7  C   UNL     1       6.257   3.585   1.477  0.00  0.00    +0.000 A 
ATOM      8  C   UNL     1       9.146   5.346   0.053  0.00  0.00    +0.000 A 
ATOM      9  C   UNL     1       7.249   5.209  -2.021  0.00  0.00    +0.000 A 
ATOM     10  C   UNL     1       8.485   5.823  -2.215  0.00  0.00    +0.000 A 
ATOM     11  C   UNL     1       9.433   5.895  -1.193  0.00  0.00    +0.000 A 
ENDROOT
BRANCH   5  12
ATOM     12  C   UNL     1       4.030   2.862   0.701  0.00  0.00    +0.000 A 
ATOM     13  C   UNL     1       2.868   3.632   0.593  0.00  0.00    +0.000 A 
ATOM     14  C   UNL     1       3.912   1.485   0.932  0.00  0.00    +0.000 A 
ATOM     15  C   UNL     1       1.623   3.028   0.717  0.00  0.00    +0.000 A 
ATOM     16  C   UNL     1       2.662   0.879   1.057  0.00  0.00    +0.000 A 
ATOM     17  C   UNL     1       1.520   1.661   0.947  0.00  0.00    +0.000 A 
BRANCH  15  18
ATOM     18  O   UNL     1       0.496   3.791   0.609  0.00  0.00    +0.000 OA
ATOM     19  H   UNL     1      -0.005   3.402  -0.136  0.00  0.00    +0.000 HD
ENDBRANCH  15  18
BRANCH  17  20
ATOM     20  O   UNL     1       0.271   1.114   1.061  0.00  0.00    +0.000 OA
ATOM     21  H   UNL     1      -0.333   1.636   0.501  0.00  0.00    +0.000 HD
ENDBRANCH  17  20
ENDBRANCH   5  12
BRANCH   8  22
ATOM     22  O   UNL     1      10.110   5.446   1.018  0.00  0.00    +0.000 OA
ATOM     23  H   UNL     1      10.349   4.548   1.338  0.00  0.00    +0.000 HD
ENDBRANCH   8  22
BRANCH  10  24
ATOM     24  O   UNL     1       8.754   6.357  -3.443  0.00  0.00    +0.000 OA
ATOM     25  H   UNL     1       9.558   5.933  -3.791  0.00  0.00    +0.000 HD
ENDBRANCH  10  24
TORSDOF 5
ENDMDL
MODEL 8
REMARK VINA RESULT:      -6.0     17.097     18.821
REMARK  Name = 5280445_Luteolin.pdbqt.pdb
REMARK  5 active torsions:
REMARK  status: ('A' for Active; 'I' for Inactive)
REMARK    1  A    between atoms: C_5  and  C_12
REMARK    2  A    between atoms: C_8  and  O_22
REMARK    3  A    between atoms: C_10  and  O_24
REMARK    4  A    between atoms: C_15  and  O_18
REMARK    5  A    between atoms: C_17  and  O_20
REMARK                            x       y       z     vdW  Elec       q    Type
REMARK                         _______ _______ _______ _____ _____    ______ ____
ROOT
ATOM      1  O   UNL     1     -13.499   7.240  -9.681  0.00  0.00    +0.000 OA
ATOM      2  O   UNL     1     -10.907   4.115  -9.021  0.00  0.00    +0.000 OA
ATOM      3  C   UNL     1     -11.697   6.256  -8.274  0.00  0.00    +0.000 A 
ATOM      4  C   UNL     1     -12.626   7.278  -8.590  0.00  0.00    +0.000 A 
ATOM      5  C   UNL     1     -13.470   6.128 -10.532  0.00  0.00    +0.000 A 
ATOM      6  C   UNL     1     -11.645   5.074  -9.155  0.00  0.00    +0.000 A 
ATOM      7  C   UNL     1     -12.603   5.235 -10.189  0.00  0.00    +0.000 A 
ATOM      8  C   UNL     1     -10.861   6.373  -7.164  0.00  0.00    +0.000 A 
ATOM      9  C   UNL     1     -12.704   8.408  -7.783  0.00  0.00    +0.000 A 
ATOM     10  C   UNL     1     -11.862   8.510  -6.677  0.00  0.00    +0.000 A 
ATOM     11  C   UNL     1     -10.945   7.507  -6.362  0.00  0.00    +0.000 A 
ENDROOT
BRANCH   5  12
ATOM     12  C   UNL     1     -14.381   6.091 -11.669  0.00  0.00    +0.000 A 
ATOM     13  C   UNL     1     -14.134   5.236 -12.746  0.00  0.00    +0.000 A 
ATOM     14  C   UNL     1     -15.519   6.909 -11.701  0.00  0.00    +0.000 A 
ATOM     15  C   UNL     1     -15.008   5.208 -13.825  0.00  0.00    +0.000 A 
ATOM     16  C   UNL     1     -16.397   6.882 -12.784  0.00  0.00    +0.000 A 
ATOM     17  C   UNL     1     -16.133   6.025 -13.844  0.00  0.00    +0.000 A 
BRANCH  15  18
ATOM     18  O   UNL     1     -14.755   4.368 -14.871  0.00  0.00    +0.000 OA
ATOM     19  H   UNL     1     -14.183   4.880 -15.477  0.00  0.00    +0.000 HD
ENDBRANCH  15  18
BRANCH  17  20
ATOM     20  O   UNL     1     -16.964   5.961 -14.930  0.00  0.00    +0.000 OA
ATOM     21  H   UNL     1     -17.594   6.701 -14.864  0.00  0.00    +0.000 HD
ENDBRANCH  17  20
ENDBRANCH   5  12
BRANCH   8  22
ATOM     22  O   UNL     1      -9.945   5.421  -6.810  0.00  0.00    +0.000 OA
ATOM     23  H   UNL     1      -9.563   5.015  -7.619  0.00  0.00    +0.000 HD
ENDBRANCH   8  22
BRANCH  10  24
ATOM     24  O   UNL     1     -11.955   9.628  -5.899  0.00  0.00    +0.000 OA
ATOM     25  H   UNL     1     -12.782   9.576  -5.386  0.00  0.00    +0.000 HD
ENDBRANCH  10  24
TORSDOF 5
ENDMDL
MODEL 9
REMARK VINA RESULT:      -5.9     18.867     21.198
REMARK  Name = 5280445_Luteolin.pdbqt.pdb
REMARK  5 active torsions:
REMARK  status: ('A' for Active; 'I' for Inactive)
REMARK    1  A    between atoms: C_5  and  C_12
REMARK    2  A    between atoms: C_8  and  O_22
REMARK    3  A    between atoms: C_10  and  O_24
REMARK    4  A    between atoms: C_15  and  O_18
REMARK    5  A    between atoms: C_17  and  O_20
REMARK                            x       y       z     vdW  Elec       q    Type
REMARK                         _______ _______ _______ _____ _____    ______ ____
ROOT
ATOM      1  O   UNL     1      -8.669  -2.347   0.412  0.00  0.00    +0.000 OA
ATOM      2  O   UNL     1      -8.840  -3.077  -3.632  0.00  0.00    +0.000 OA
ATOM      3  C   UNL     1      -9.822  -3.483  -1.479  0.00  0.00    +0.000 A 
ATOM      4  C   UNL     1      -9.674  -3.170  -0.105  0.00  0.00    +0.000 A 
ATOM      5  C   UNL     1      -7.735  -1.786  -0.467  0.00  0.00    +0.000 A 
ATOM      6  C   UNL     1      -8.851  -2.905  -2.427  0.00  0.00    +0.000 A 
ATOM      7  C   UNL     1      -7.926  -2.111  -1.702  0.00  0.00    +0.000 A 
ATOM      8  C   UNL     1     -10.855  -4.314  -1.912  0.00  0.00    +0.000 A 
ATOM      9  C   UNL     1     -10.570  -3.696   0.819  0.00  0.00    +0.000 A 
ATOM     10  C   UNL     1     -11.598  -4.524   0.372  0.00  0.00    +0.000 A 
ATOM     11  C   UNL     1     -11.747  -4.837  -0.981  0.00  0.00    +0.000 A 
ENDROOT
BRANCH   5  12
ATOM     12  C   UNL     1      -6.689  -0.928   0.074  0.00  0.00    +0.000 A 
ATOM     13  C   UNL     1      -6.876   0.456   0.147  0.00  0.00    +0.000 A 
ATOM     14  C   UNL     1      -5.482  -1.473   0.531  0.00  0.00    +0.000 A 
ATOM     15  C   UNL     1      -5.872   1.264   0.664  0.00  0.00    +0.000 A 
ATOM     16  C   UNL     1      -4.473  -0.661   1.051  0.00  0.00    +0.000 A 
ATOM     17  C   UNL     1      -4.679   0.710   1.114  0.00  0.00    +0.000 A 
BRANCH  15  18
ATOM     18  O   UNL     1      -6.067   2.614   0.730  0.00  0.00    +0.000 OA
ATOM     19  H   UNL     1      -5.720   2.880   1.605  0.00  0.00    +0.000 HD
ENDBRANCH  15  18
BRANCH  17  20
ATOM     20  O   UNL     1      -3.721   1.550   1.615  0.00  0.00    +0.000 OA
ATOM     21  H   UNL     1      -4.010   1.832   2.502  0.00  0.00    +0.000 HD
ENDBRANCH  17  20
ENDBRANCH   5  12
BRANCH   8  22
ATOM     22  O   UNL     1     -11.047  -4.653  -3.222  0.00  0.00    +0.000 OA
ATOM     23  H   UNL     1     -11.219  -5.617  -3.290  0.00  0.00    +0.000 HD
ENDBRANCH   8  22
BRANCH  10  24
ATOM     24  O   UNL     1     -12.466  -5.031   1.296  0.00  0.00    +0.000 OA
ATOM     25  H   UNL     1     -12.299  -4.586   2.147  0.00  0.00    +0.000 HD
ENDBRANCH  10  24
TORSDOF 5
ENDMDL
