MODEL 1
REMARK VINA RESULT:      -6.6      0.000      0.000
REMARK  Name = 5281224_Astaxanthin.pdbqt.pdb
REMARK  16 active torsions:
REMARK  status: ('A' for Active; 'I' for Inactive)
REMARK    1  A    between atoms: C_1  and  C_5
REMARK    2  A    between atoms: C_2  and  C_27
REMARK    3  A    between atoms: C_3  and  C_5
REMARK    4  A    between atoms: C_3  and  C_7
REMARK    5  A    between atoms: C_6  and  C_10
REMARK    6  A    between atoms: C_8  and  C_10
REMARK    7  A    between atoms: C_8  and  C_12
REMARK    8  A    between atoms: C_11  and  C_16
REMARK    9  A    between atoms: C_17  and  O_23
REMARK   10  A    between atoms: C_25  and  C_27
REMARK   11  A    between atoms: C_25  and  C_29
REMARK   12  A    between atoms: C_28  and  C_32
REMARK   13  A    between atoms: C_30  and  C_32
REMARK   14  A    between atoms: C_30  and  C_34
REMARK   15  A    between atoms: C_33  and  C_38
REMARK   16  A    between atoms: C_39  and  O_45
REMARK                            x       y       z     vdW  Elec       q    Type
REMARK                         _______ _______ _______ _____ _____    ______ ____
ROOT
ATOM      1  C   UNL     1       4.731  15.256 -21.487  0.00  0.00    +0.000 C 
ATOM      2  C   UNL     1       5.912  15.180 -21.685  0.00  0.00    +0.000 C 
ENDROOT
BRANCH   2   3
ATOM      3  C   UNL     1       7.422  15.092 -21.940  0.00  0.00    +0.000 C 
BRANCH   3   4
ATOM      4  C   UNL     1       8.697  15.012 -22.157  0.00  0.00    +0.000 C 
ATOM      5  C   UNL     1       9.330  15.859 -23.219  0.00  0.00    +0.000 C 
BRANCH   4   7
ATOM      6  C   UNL     1      10.142  13.268 -20.848  0.00  0.00    +0.000 C 
ATOM      7  C   UNL     1       9.477  14.067 -21.448  0.00  0.00    +0.000 C 
BRANCH   6   8
ATOM      8  C   UNL     1      10.994  12.249 -20.083  0.00  0.00    +0.000 C 
BRANCH   8   9
ATOM      9  C   UNL     1      11.718  11.384 -19.442  0.00  0.00    +0.000 C 
ATOM     10  C   UNL     1      12.804  10.641 -20.159  0.00  0.00    +0.000 C 
BRANCH   9  12
ATOM     11  C   UNL     1      11.479  11.168 -16.842  0.00  0.00    +0.000 C 
ATOM     12  C   UNL     1      11.583  11.257 -18.037  0.00  0.00    +0.000 C 
BRANCH  11  16
ATOM     13  O   UNL     1      10.010  13.016 -12.547  0.00  0.00    +0.000 OA
ATOM     14  C   UNL     1      11.946   9.813 -14.713  0.00  0.00    +0.000 C 
ATOM     15  C   UNL     1      11.688   9.996 -13.295  0.00  0.00    +0.000 C 
ATOM     16  C   UNL     1      11.364  11.075 -15.400  0.00  0.00    +0.000 C 
ATOM     17  C   UNL     1      11.097  10.944 -12.466  0.00  0.00    +0.000 C 
ATOM     18  C   UNL     1      11.200   8.563 -15.234  0.00  0.00    +0.000 C 
ATOM     19  C   UNL     1      13.467   9.742 -14.973  0.00  0.00    +0.000 C 
ATOM     20  C   UNL     1      10.753  12.079 -14.704  0.00  0.00    +0.000 C 
ATOM     21  C   UNL     1      10.557  12.122 -13.180  0.00  0.00    +0.000 C 
ATOM     22  C   UNL     1      10.195  13.280 -15.482  0.00  0.00    +0.000 C 
BRANCH  17  23
ATOM     23  O   UNL     1      11.015  10.801 -11.107  0.00  0.00    +0.000 OA
ATOM     24  H   UNL     1      11.882  10.544 -10.731  0.00  0.00    +0.000 HD
ENDBRANCH  17  23
ENDBRANCH  11  16
ENDBRANCH   9  12
ENDBRANCH   8   9
ENDBRANCH   6   8
ENDBRANCH   4   7
ENDBRANCH   3   4
ENDBRANCH   2   3
BRANCH   1  25
ATOM     25  C   UNL     1       3.222  15.361 -21.238  0.00  0.00    +0.000 C 
BRANCH  25  26
ATOM     26  C   UNL     1       1.947  15.453 -21.023  0.00  0.00    +0.000 C 
ATOM     27  C   UNL     1       0.978  14.963 -22.057  0.00  0.00    +0.000 C 
BRANCH  26  29
ATOM     28  C   UNL     1       1.064  16.631 -18.861  0.00  0.00    +0.000 C 
ATOM     29  C   UNL     1       1.470  16.091 -19.854  0.00  0.00    +0.000 C 
BRANCH  28  30
ATOM     30  C   UNL     1       0.542  17.319 -17.593  0.00  0.00    +0.000 C 
BRANCH  30  31
ATOM     31  C   UNL     1       0.095  17.893 -16.521  0.00  0.00    +0.000 C 
ATOM     32  C   UNL     1       0.789  19.105 -15.977  0.00  0.00    +0.000 C 
BRANCH  31  34
ATOM     33  C   UNL     1      -2.189  17.113 -15.501  0.00  0.00    +0.000 C 
ATOM     34  C   UNL     1      -1.136  17.472 -15.959  0.00  0.00    +0.000 C 
BRANCH  33  38
ATOM     35  O   UNL     1      -6.077  17.854 -12.611  0.00  0.00    +0.000 OA
ATOM     36  C   UNL     1      -4.030  15.325 -15.460  0.00  0.00    +0.000 C 
ATOM     37  C   UNL     1      -5.297  15.163 -14.766  0.00  0.00    +0.000 C 
ATOM     38  C   UNL     1      -3.467  16.683 -14.967  0.00  0.00    +0.000 C 
ATOM     39  C   UNL     1      -6.068  15.865 -13.845  0.00  0.00    +0.000 C 
ATOM     40  C   UNL     1      -4.264  15.400 -16.987  0.00  0.00    +0.000 C 
ATOM     41  C   UNL     1      -3.058  14.191 -15.067  0.00  0.00    +0.000 C 
ATOM     42  C   UNL     1      -4.123  17.474 -14.068  0.00  0.00    +0.000 C 
ATOM     43  C   UNL     1      -5.479  17.153 -13.417  0.00  0.00    +0.000 C 
ATOM     44  C   UNL     1      -3.486  18.808 -13.656  0.00  0.00    +0.000 C 
BRANCH  39  45
ATOM     45  O   UNL     1      -7.270  15.409 -13.377  0.00  0.00    +0.000 OA
ATOM     46  H   UNL     1      -7.162  14.545 -12.927  0.00  0.00    +0.000 HD
ENDBRANCH  39  45
ENDBRANCH  33  38
ENDBRANCH  31  34
ENDBRANCH  30  31
ENDBRANCH  28  30
ENDBRANCH  26  29
ENDBRANCH  25  26
ENDBRANCH   1  25
TORSDOF 16
ENDMDL
MODEL 2
REMARK VINA RESULT:      -6.6      1.737      2.584
REMARK  Name = 5281224_Astaxanthin.pdbqt.pdb
REMARK  16 active torsions:
REMARK  status: ('A' for Active; 'I' for Inactive)
REMARK    1  A    between atoms: C_1  and  C_5
REMARK    2  A    between atoms: C_2  and  C_27
REMARK    3  A    between atoms: C_3  and  C_5
REMARK    4  A    between atoms: C_3  and  C_7
REMARK    5  A    between atoms: C_6  and  C_10
REMARK    6  A    between atoms: C_8  and  C_10
REMARK    7  A    between atoms: C_8  and  C_12
REMARK    8  A    between atoms: C_11  and  C_16
REMARK    9  A    between atoms: C_17  and  O_23
REMARK   10  A    between atoms: C_25  and  C_27
REMARK   11  A    between atoms: C_25  and  C_29
REMARK   12  A    between atoms: C_28  and  C_32
REMARK   13  A    between atoms: C_30  and  C_32
REMARK   14  A    between atoms: C_30  and  C_34
REMARK   15  A    between atoms: C_33  and  C_38
REMARK   16  A    between atoms: C_39  and  O_45
REMARK                            x       y       z     vdW  Elec       q    Type
REMARK                         _______ _______ _______ _____ _____    ______ ____
ROOT
ATOM      1  C   UNL     1       5.319  13.797 -21.660  0.00  0.00    +0.000 C 
ATOM      2  C   UNL     1       6.087  12.875 -21.663  0.00  0.00    +0.000 C 
ENDROOT
BRANCH   2   3
ATOM      3  C   UNL     1       7.074  11.701 -21.660  0.00  0.00    +0.000 C 
BRANCH   3   4
ATOM      4  C   UNL     1       7.906  10.707 -21.663  0.00  0.00    +0.000 C 
ATOM      5  C   UNL     1       7.667   9.535 -22.566  0.00  0.00    +0.000 C 
BRANCH   4   7
ATOM      6  C   UNL     1       9.915  10.683 -19.988  0.00  0.00    +0.000 C 
ATOM      7  C   UNL     1       8.994  10.693 -20.758  0.00  0.00    +0.000 C 
BRANCH   6   8
ATOM      8  C   UNL     1      11.089  10.671 -19.002  0.00  0.00    +0.000 C 
BRANCH   8   9
ATOM      9  C   UNL     1      12.086  10.665 -18.173  0.00  0.00    +0.000 C 
ATOM     10  C   UNL     1      13.491  10.630 -18.694  0.00  0.00    +0.000 C 
BRANCH   9  12
ATOM     11  C   UNL     1      11.652  11.020 -15.614  0.00  0.00    +0.000 C 
ATOM     12  C   UNL     1      11.850  10.845 -16.787  0.00  0.00    +0.000 C 
BRANCH  11  16
ATOM     13  O   UNL     1      10.534   9.345 -11.145  0.00  0.00    +0.000 OA
ATOM     14  C   UNL     1      11.549  12.701 -13.677  0.00  0.00    +0.000 C 
ATOM     15  C   UNL     1      11.264  12.621 -12.254  0.00  0.00    +0.000 C 
ATOM     16  C   UNL     1      11.417  11.248 -14.202  0.00  0.00    +0.000 C 
ATOM     17  C   UNL     1      10.928  11.646 -11.320  0.00  0.00    +0.000 C 
ATOM     18  C   UNL     1      12.999  13.190 -13.904  0.00  0.00    +0.000 C 
ATOM     19  C   UNL     1      10.508  13.599 -14.380  0.00  0.00    +0.000 C 
ATOM     20  C   UNL     1      11.097  10.196 -13.391  0.00  0.00    +0.000 C 
ATOM     21  C   UNL     1      10.820  10.281 -11.881  0.00  0.00    +0.000 C 
ATOM     22  C   UNL     1      11.005   8.793 -14.007  0.00  0.00    +0.000 C 
BRANCH  17  23
ATOM     23  O   UNL     1      10.721  11.921  -9.995  0.00  0.00    +0.000 OA
ATOM     24  H   UNL     1      10.967  12.845  -9.790  0.00  0.00    +0.000 HD
ENDBRANCH  17  23
ENDBRANCH  11  16
ENDBRANCH   9  12
ENDBRANCH   8   9
ENDBRANCH   6   8
ENDBRANCH   4   7
ENDBRANCH   3   4
ENDBRANCH   2   3
BRANCH   1  25
ATOM     25  C   UNL     1       4.343  14.979 -21.650  0.00  0.00    +0.000 C 
BRANCH  25  26
ATOM     26  C   UNL     1       3.520  15.981 -21.646  0.00  0.00    +0.000 C 
ATOM     27  C   UNL     1       3.261  16.740 -22.914  0.00  0.00    +0.000 C 
BRANCH  26  29
ATOM     28  C   UNL     1       2.436  16.776 -19.403  0.00  0.00    +0.000 C 
ATOM     29  C   UNL     1       2.935  16.411 -20.433  0.00  0.00    +0.000 C 
BRANCH  28  30
ATOM     30  C   UNL     1       1.795  17.240 -18.089  0.00  0.00    +0.000 C 
BRANCH  30  31
ATOM     31  C   UNL     1       1.249  17.625 -16.978  0.00  0.00    +0.000 C 
ATOM     32  C   UNL     1       1.951  18.621 -16.106  0.00  0.00    +0.000 C 
BRANCH  31  34
ATOM     33  C   UNL     1      -1.194  16.886 -16.388  0.00  0.00    +0.000 C 
ATOM     34  C   UNL     1      -0.075  17.226 -16.670  0.00  0.00    +0.000 C 
BRANCH  33  38
ATOM     35  O   UNL     1      -5.057  17.061 -13.377  0.00  0.00    +0.000 OA
ATOM     36  C   UNL     1      -3.256  15.474 -16.974  0.00  0.00    +0.000 C 
ATOM     37  C   UNL     1      -4.558  15.248 -16.370  0.00  0.00    +0.000 C 
ATOM     38  C   UNL     1      -2.537  16.471 -16.030  0.00  0.00    +0.000 C 
ATOM     39  C   UNL     1      -5.265  15.669 -15.248  0.00  0.00    +0.000 C 
ATOM     40  C   UNL     1      -3.420  16.125 -18.368  0.00  0.00    +0.000 C 
ATOM     41  C   UNL     1      -2.458  14.152 -17.030  0.00  0.00    +0.000 C 
ATOM     42  C   UNL     1      -3.117  16.967 -14.897  0.00  0.00    +0.000 C 
ATOM     43  C   UNL     1      -4.527  16.623 -14.390  0.00  0.00    +0.000 C 
ATOM     44  C   UNL     1      -2.324  17.962 -14.039  0.00  0.00    +0.000 C 
BRANCH  39  45
ATOM     45  O   UNL     1      -6.534  15.245 -14.962  0.00  0.00    +0.000 OA
ATOM     46  H   UNL     1      -7.091  15.251 -15.767  0.00  0.00    +0.000 HD
ENDBRANCH  39  45
ENDBRANCH  33  38
ENDBRANCH  31  34
ENDBRANCH  30  31
ENDBRANCH  28  30
ENDBRANCH  26  29
ENDBRANCH  25  26
ENDBRANCH   1  25
TORSDOF 16
ENDMDL
MODEL 3
REMARK VINA RESULT:      -6.4     12.152     18.593
REMARK  Name = 5281224_Astaxanthin.pdbqt.pdb
REMARK  16 active torsions:
REMARK  status: ('A' for Active; 'I' for Inactive)
REMARK    1  A    between atoms: C_1  and  C_5
REMARK    2  A    between atoms: C_2  and  C_27
REMARK    3  A    between atoms: C_3  and  C_5
REMARK    4  A    between atoms: C_3  and  C_7
REMARK    5  A    between atoms: C_6  and  C_10
REMARK    6  A    between atoms: C_8  and  C_10
REMARK    7  A    between atoms: C_8  and  C_12
REMARK    8  A    between atoms: C_11  and  C_16
REMARK    9  A    between atoms: C_17  and  O_23
REMARK   10  A    between atoms: C_25  and  C_27
REMARK   11  A    between atoms: C_25  and  C_29
REMARK   12  A    between atoms: C_28  and  C_32
REMARK   13  A    between atoms: C_30  and  C_32
REMARK   14  A    between atoms: C_30  and  C_34
REMARK   15  A    between atoms: C_33  and  C_38
REMARK   16  A    between atoms: C_39  and  O_45
REMARK                            x       y       z     vdW  Elec       q    Type
REMARK                         _______ _______ _______ _____ _____    ______ ____
ROOT
ATOM      1  C   UNL     1     -14.974  12.194 -16.632  0.00  0.00    +0.000 C 
ATOM      2  C   UNL     1     -14.147  12.219 -17.500  0.00  0.00    +0.000 C 
ENDROOT
BRANCH   2   3
ATOM      3  C   UNL     1     -13.091  12.260 -18.612  0.00  0.00    +0.000 C 
BRANCH   3   4
ATOM      4  C   UNL     1     -12.204  12.292 -19.556  0.00  0.00    +0.000 C 
ATOM      5  C   UNL     1     -12.337  11.380 -20.739  0.00  0.00    +0.000 C 
BRANCH   4   7
ATOM      6  C   UNL     1     -10.104  13.835 -19.329  0.00  0.00    +0.000 C 
ATOM      7  C   UNL     1     -11.068  13.128 -19.431  0.00  0.00    +0.000 C 
BRANCH   6   8
ATOM      8  C   UNL     1      -8.871  14.738 -19.202  0.00  0.00    +0.000 C 
BRANCH   8   9
ATOM      9  C   UNL     1      -7.833  15.508 -19.090  0.00  0.00    +0.000 C 
ATOM     10  C   UNL     1      -7.157  16.034 -20.320  0.00  0.00    +0.000 C 
BRANCH   9  12
ATOM     11  C   UNL     1      -7.109  16.383 -16.730  0.00  0.00    +0.000 C 
ATOM     12  C   UNL     1      -7.436  15.971 -17.812  0.00  0.00    +0.000 C 
BRANCH  11  16
ATOM     13  O   UNL     1      -8.105  18.966 -12.686  0.00  0.00    +0.000 OA
ATOM     14  C   UNL     1      -5.306  16.532 -14.908  0.00  0.00    +0.000 C 
ATOM     15  C   UNL     1      -5.202  17.173 -13.608  0.00  0.00    +0.000 C 
ATOM     16  C   UNL     1      -6.720  16.896 -15.431  0.00  0.00    +0.000 C 
ATOM     17  C   UNL     1      -5.990  17.967 -12.782  0.00  0.00    +0.000 C 
ATOM     18  C   UNL     1      -5.204  14.996 -14.756  0.00  0.00    +0.000 C 
ATOM     19  C   UNL     1      -4.240  17.100 -15.870  0.00  0.00    +0.000 C 
ATOM     20  C   UNL     1      -7.595  17.665 -14.718  0.00  0.00    +0.000 C 
ATOM     21  C   UNL     1      -7.328  18.277 -13.333  0.00  0.00    +0.000 C 
ATOM     22  C   UNL     1      -8.978  17.955 -15.319  0.00  0.00    +0.000 C 
BRANCH  17  23
ATOM     23  O   UNL     1      -5.570  18.421 -11.560  0.00  0.00    +0.000 OA
ATOM     24  H   UNL     1      -5.666  17.724 -10.880  0.00  0.00    +0.000 HD
ENDBRANCH  17  23
ENDBRANCH  11  16
ENDBRANCH   9  12
ENDBRANCH   8   9
ENDBRANCH   6   8
ENDBRANCH   4   7
ENDBRANCH   3   4
ENDBRANCH   2   3
BRANCH   1  25
ATOM     25  C   UNL     1     -16.035  12.172 -15.525  0.00  0.00    +0.000 C 
BRANCH  25  26
ATOM     26  C   UNL     1     -16.934  12.148 -14.591  0.00  0.00    +0.000 C 
ATOM     27  C   UNL     1     -17.890  13.294 -14.447  0.00  0.00    +0.000 C 
BRANCH  26  29
ATOM     28  C   UNL     1     -16.979  10.182 -12.867  0.00  0.00    +0.000 C 
ATOM     29  C   UNL     1     -16.957  11.086 -13.658  0.00  0.00    +0.000 C 
BRANCH  28  30
ATOM     30  C   UNL     1     -17.009   9.026 -11.858  0.00  0.00    +0.000 C 
BRANCH  30  31
ATOM     31  C   UNL     1     -17.043   8.049 -11.008  0.00  0.00    +0.000 C 
ATOM     32  C   UNL     1     -18.290   7.233 -10.856  0.00  0.00    +0.000 C 
BRANCH  31  34
ATOM     33  C   UNL     1     -14.840   7.342  -9.778  0.00  0.00    +0.000 C 
ATOM     34  C   UNL     1     -15.855   7.656 -10.341  0.00  0.00    +0.000 C 
BRANCH  33  38
ATOM     35  O   UNL     1     -11.012   4.337  -9.199  0.00  0.00    +0.000 OA
ATOM     36  C   UNL     1     -13.109   7.914  -7.972  0.00  0.00    +0.000 C 
ATOM     37  C   UNL     1     -11.877   7.309  -7.493  0.00  0.00    +0.000 C 
ATOM     38  C   UNL     1     -13.608   6.980  -9.104  0.00  0.00    +0.000 C 
ATOM     39  C   UNL     1     -11.096   6.192  -7.775  0.00  0.00    +0.000 C 
ATOM     40  C   UNL     1     -12.820   9.315  -8.562  0.00  0.00    +0.000 C 
ATOM     41  C   UNL     1     -14.157   7.956  -6.839  0.00  0.00    +0.000 C 
ATOM     42  C   UNL     1     -12.936   5.854  -9.484  0.00  0.00    +0.000 C 
ATOM     43  C   UNL     1     -11.623   5.344  -8.867  0.00  0.00    +0.000 C 
ATOM     44  C   UNL     1     -13.508   5.006 -10.628  0.00  0.00    +0.000 C 
BRANCH  39  45
ATOM     45  O   UNL     1      -9.939   5.902  -7.105  0.00  0.00    +0.000 OA
ATOM     46  H   UNL     1     -10.116   5.305  -6.349  0.00  0.00    +0.000 HD
ENDBRANCH  39  45
ENDBRANCH  33  38
ENDBRANCH  31  34
ENDBRANCH  30  31
ENDBRANCH  28  30
ENDBRANCH  26  29
ENDBRANCH  25  26
ENDBRANCH   1  25
TORSDOF 16
ENDMDL
MODEL 4
REMARK VINA RESULT:      -6.4     23.451     29.355
REMARK  Name = 5281224_Astaxanthin.pdbqt.pdb
REMARK  16 active torsions:
REMARK  status: ('A' for Active; 'I' for Inactive)
REMARK    1  A    between atoms: C_1  and  C_5
REMARK    2  A    between atoms: C_2  and  C_27
REMARK    3  A    between atoms: C_3  and  C_5
REMARK    4  A    between atoms: C_3  and  C_7
REMARK    5  A    between atoms: C_6  and  C_10
REMARK    6  A    between atoms: C_8  and  C_10
REMARK    7  A    between atoms: C_8  and  C_12
REMARK    8  A    between atoms: C_11  and  C_16
REMARK    9  A    between atoms: C_17  and  O_23
REMARK   10  A    between atoms: C_25  and  C_27
REMARK   11  A    between atoms: C_25  and  C_29
REMARK   12  A    between atoms: C_28  and  C_32
REMARK   13  A    between atoms: C_30  and  C_32
REMARK   14  A    between atoms: C_30  and  C_34
REMARK   15  A    between atoms: C_33  and  C_38
REMARK   16  A    between atoms: C_39  and  O_45
REMARK                            x       y       z     vdW  Elec       q    Type
REMARK                         _______ _______ _______ _____ _____    ______ ____
ROOT
ATOM      1  C   UNL     1      14.259 -12.794 -13.449  0.00  0.00    +0.000 C 
ATOM      2  C   UNL     1      14.945 -12.601 -12.484  0.00  0.00    +0.000 C 
ENDROOT
BRANCH   2   3
ATOM      3  C   UNL     1      15.823 -12.347 -11.252  0.00  0.00    +0.000 C 
BRANCH   3   4
ATOM      4  C   UNL     1      16.570 -12.134 -10.214  0.00  0.00    +0.000 C 
ATOM      5  C   UNL     1      17.480 -13.215  -9.714  0.00  0.00    +0.000 C 
BRANCH   4   7
ATOM      6  C   UNL     1      16.384  -9.876  -8.907  0.00  0.00    +0.000 C 
ATOM      7  C   UNL     1      16.467 -10.912  -9.507  0.00  0.00    +0.000 C 
BRANCH   6   8
ATOM      8  C   UNL     1      16.281  -8.552  -8.141  0.00  0.00    +0.000 C 
BRANCH   8   9
ATOM      9  C   UNL     1      16.188  -7.435  -7.487  0.00  0.00    +0.000 C 
ATOM     10  C   UNL     1      17.373  -6.523  -7.394  0.00  0.00    +0.000 C 
BRANCH   9  12
ATOM     11  C   UNL     1      13.851  -6.650  -6.601  0.00  0.00    +0.000 C 
ATOM     12  C   UNL     1      14.928  -7.011  -6.997  0.00  0.00    +0.000 C 
BRANCH  11  16
ATOM     13  O   UNL     1       9.909  -3.772  -7.045  0.00  0.00    +0.000 OA
ATOM     14  C   UNL     1      11.957  -6.910  -4.887  0.00  0.00    +0.000 C 
ATOM     15  C   UNL     1      10.668  -6.277  -4.669  0.00  0.00    +0.000 C 
ATOM     16  C   UNL     1      12.548  -6.213  -6.140  0.00  0.00    +0.000 C 
ATOM     17  C   UNL     1       9.893  -5.281  -5.255  0.00  0.00    +0.000 C 
ATOM     18  C   UNL     1      11.768  -8.416  -5.189  0.00  0.00    +0.000 C 
ATOM     19  C   UNL     1      12.885  -6.664  -3.677  0.00  0.00    +0.000 C 
ATOM     20  C   UNL     1      11.890  -5.224  -6.814  0.00  0.00    +0.000 C 
ATOM     21  C   UNL     1      10.508  -4.657  -6.448  0.00  0.00    +0.000 C 
ATOM     22  C   UNL     1      12.555  -4.609  -8.053  0.00  0.00    +0.000 C 
BRANCH  17  23
ATOM     23  O   UNL     1       8.665  -4.911  -4.777  0.00  0.00    +0.000 OA
ATOM     24  H   UNL     1       8.757  -4.278  -4.036  0.00  0.00    +0.000 HD
ENDBRANCH  17  23
ENDBRANCH  11  16
ENDBRANCH   9  12
ENDBRANCH   8   9
ENDBRANCH   6   8
ENDBRANCH   4   7
ENDBRANCH   3   4
ENDBRANCH   2   3
BRANCH   1  25
ATOM     25  C   UNL     1      13.381 -13.029 -14.684  0.00  0.00    +0.000 C 
BRANCH  25  26
ATOM     26  C   UNL     1      12.636 -13.231 -15.725  0.00  0.00    +0.000 C 
ATOM     27  C   UNL     1      12.979 -12.573 -17.028  0.00  0.00    +0.000 C 
BRANCH  26  29
ATOM     28  C   UNL     1      10.451 -14.653 -15.511  0.00  0.00    +0.000 C 
ATOM     29  C   UNL     1      11.454 -14.000 -15.611  0.00  0.00    +0.000 C 
BRANCH  28  30
ATOM     30  C   UNL     1       9.171 -15.488 -15.381  0.00  0.00    +0.000 C 
BRANCH  30  31
ATOM     31  C   UNL     1       8.093 -16.198 -15.264  0.00  0.00    +0.000 C 
ATOM     32  C   UNL     1       7.503 -16.866 -16.468  0.00  0.00    +0.000 C 
BRANCH  31  34
ATOM     33  C   UNL     1       7.106 -16.714 -12.892  0.00  0.00    +0.000 C 
ATOM     34  C   UNL     1       7.567 -16.470 -13.976  0.00  0.00    +0.000 C 
BRANCH  33  38
ATOM     35  O   UNL     1       7.536 -18.521  -8.357  0.00  0.00    +0.000 OA
ATOM     36  C   UNL     1       5.051 -16.644 -11.357  0.00  0.00    +0.000 C 
ATOM     37  C   UNL     1       4.765 -17.060  -9.994  0.00  0.00    +0.000 C 
ATOM     38  C   UNL     1       6.536 -17.019 -11.594  0.00  0.00    +0.000 C 
ATOM     39  C   UNL     1       5.437 -17.663  -8.934  0.00  0.00    +0.000 C 
ATOM     40  C   UNL     1       4.888 -15.112 -11.491  0.00  0.00    +0.000 C 
ATOM     41  C   UNL     1       4.159 -17.421 -12.350  0.00  0.00    +0.000 C 
ATOM     42  C   UNL     1       7.312 -17.610 -10.638  0.00  0.00    +0.000 C 
ATOM     43  C   UNL     1       6.850 -17.992  -9.222  0.00  0.00    +0.000 C 
ATOM     44  C   UNL     1       8.776 -17.927 -10.970  0.00  0.00    +0.000 C 
BRANCH  39  45
ATOM     45  O   UNL     1       4.846 -17.924  -7.729  0.00  0.00    +0.000 OA
ATOM     46  H   UNL     1       5.031 -17.206  -7.089  0.00  0.00    +0.000 HD
ENDBRANCH  39  45
ENDBRANCH  33  38
ENDBRANCH  31  34
ENDBRANCH  30  31
ENDBRANCH  28  30
ENDBRANCH  26  29
ENDBRANCH  25  26
ENDBRANCH   1  25
TORSDOF 16
ENDMDL
MODEL 5
REMARK VINA RESULT:      -6.3      1.015     14.157
REMARK  Name = 5281224_Astaxanthin.pdbqt.pdb
REMARK  16 active torsions:
REMARK  status: ('A' for Active; 'I' for Inactive)
REMARK    1  A    between atoms: C_1  and  C_5
REMARK    2  A    between atoms: C_2  and  C_27
REMARK    3  A    between atoms: C_3  and  C_5
REMARK    4  A    between atoms: C_3  and  C_7
REMARK    5  A    between atoms: C_6  and  C_10
REMARK    6  A    between atoms: C_8  and  C_10
REMARK    7  A    between atoms: C_8  and  C_12
REMARK    8  A    between atoms: C_11  and  C_16
REMARK    9  A    between atoms: C_17  and  O_23
REMARK   10  A    between atoms: C_25  and  C_27
REMARK   11  A    between atoms: C_25  and  C_29
REMARK   12  A    between atoms: C_28  and  C_32
REMARK   13  A    between atoms: C_30  and  C_32
REMARK   14  A    between atoms: C_30  and  C_34
REMARK   15  A    between atoms: C_33  and  C_38
REMARK   16  A    between atoms: C_39  and  O_45
REMARK                            x       y       z     vdW  Elec       q    Type
REMARK                         _______ _______ _______ _____ _____    ______ ____
ROOT
ATOM      1  C   UNL     1       6.664  15.084 -21.210  0.00  0.00    +0.000 C 
ATOM      2  C   UNL     1       5.474  15.210 -21.125  0.00  0.00    +0.000 C 
ENDROOT
BRANCH   2   3
ATOM      3  C   UNL     1       3.953  15.380 -21.014  0.00  0.00    +0.000 C 
BRANCH   3   4
ATOM      4  C   UNL     1       2.670  15.530 -20.923  0.00  0.00    +0.000 C 
ATOM      5  C   UNL     1       1.783  15.080 -22.045  0.00  0.00    +0.000 C 
BRANCH   4   7
ATOM      6  C   UNL     1       1.642  16.747 -18.848  0.00  0.00    +0.000 C 
ATOM      7  C   UNL     1       2.112  16.189 -19.801  0.00  0.00    +0.000 C 
BRANCH   6   8
ATOM      8  C   UNL     1       1.046  17.460 -17.629  0.00  0.00    +0.000 C 
BRANCH   8   9
ATOM      9  C   UNL     1       0.533  18.062 -16.600  0.00  0.00    +0.000 C 
ATOM     10  C   UNL     1       1.192  19.289 -16.047  0.00  0.00    +0.000 C 
BRANCH   9  12
ATOM     11  C   UNL     1      -1.789  17.275 -15.677  0.00  0.00    +0.000 C 
ATOM     12  C   UNL     1      -0.726  17.648 -16.099  0.00  0.00    +0.000 C 
BRANCH  11  16
ATOM     13  O   UNL     1      -5.677  17.818 -12.743  0.00  0.00    +0.000 OA
ATOM     14  C   UNL     1      -3.629  15.487 -15.754  0.00  0.00    +0.000 C 
ATOM     15  C   UNL     1      -4.895  15.278 -15.073  0.00  0.00    +0.000 C 
ATOM     16  C   UNL     1      -3.065  16.809 -15.172  0.00  0.00    +0.000 C 
ATOM     17  C   UNL     1      -5.666  15.915 -14.107  0.00  0.00    +0.000 C 
ATOM     18  C   UNL     1      -3.862  15.662 -17.273  0.00  0.00    +0.000 C 
ATOM     19  C   UNL     1      -2.655  14.330 -15.437  0.00  0.00    +0.000 C 
ATOM     20  C   UNL     1      -3.723  17.537 -14.222  0.00  0.00    +0.000 C 
ATOM     21  C   UNL     1      -5.079  17.173 -13.594  0.00  0.00    +0.000 C 
ATOM     22  C   UNL     1      -3.087  18.842 -13.723  0.00  0.00    +0.000 C 
BRANCH  17  23
ATOM     23  O   UNL     1      -6.869  15.429 -13.670  0.00  0.00    +0.000 OA
ATOM     24  H   UNL     1      -7.446  16.156 -13.360  0.00  0.00    +0.000 HD
ENDBRANCH  17  23
ENDBRANCH  11  16
ENDBRANCH   9  12
ENDBRANCH   8   9
ENDBRANCH   6   8
ENDBRANCH   4   7
ENDBRANCH   3   4
ENDBRANCH   2   3
BRANCH   1  25
ATOM     25  C   UNL     1       8.186  14.932 -21.315  0.00  0.00    +0.000 C 
BRANCH  25  26
ATOM     26  C   UNL     1       9.473  14.805 -21.399  0.00  0.00    +0.000 C 
ATOM     27  C   UNL     1      10.226  15.527 -22.476  0.00  0.00    +0.000 C 
BRANCH  26  29
ATOM     28  C   UNL     1      10.731  13.165 -19.795  0.00  0.00    +0.000 C 
ATOM     29  C   UNL     1      10.155  13.919 -20.532  0.00  0.00    +0.000 C 
BRANCH  28  30
ATOM     30  C   UNL     1      11.464  12.202 -18.853  0.00  0.00    +0.000 C 
BRANCH  30  31
ATOM     31  C   UNL     1      12.081  11.394 -18.050  0.00  0.00    +0.000 C 
ATOM     32  C   UNL     1      13.146  10.482 -18.580  0.00  0.00    +0.000 C 
BRANCH  31  34
ATOM     33  C   UNL     1      11.686  11.581 -15.467  0.00  0.00    +0.000 C 
ATOM     34  C   UNL     1      11.861  11.485 -16.653  0.00  0.00    +0.000 C 
BRANCH  33  38
ATOM     35  O   UNL     1      10.744   9.591 -11.089  0.00  0.00    +0.000 OA
ATOM     36  C   UNL     1      11.605  13.129 -13.421  0.00  0.00    +0.000 C 
ATOM     37  C   UNL     1      11.365  12.949 -11.999  0.00  0.00    +0.000 C 
ATOM     38  C   UNL     1      11.489  11.710 -14.036  0.00  0.00    +0.000 C 
ATOM     39  C   UNL     1      11.080  11.907 -11.122  0.00  0.00    +0.000 C 
ATOM     40  C   UNL     1      13.037  13.667 -13.656  0.00  0.00    +0.000 C 
ATOM     41  C   UNL     1      10.523  14.045 -14.033  0.00  0.00    +0.000 C 
ATOM     42  C   UNL     1      11.219  10.600 -13.289  0.00  0.00    +0.000 C 
ATOM     43  C   UNL     1      10.987  10.580 -11.769  0.00  0.00    +0.000 C 
ATOM     44  C   UNL     1      11.140   9.239 -13.993  0.00  0.00    +0.000 C 
BRANCH  39  45
ATOM     45  O   UNL     1      10.906  12.090  -9.777  0.00  0.00    +0.000 OA
ATOM     46  H   UNL     1       9.955  12.066  -9.545  0.00  0.00    +0.000 HD
ENDBRANCH  39  45
ENDBRANCH  33  38
ENDBRANCH  31  34
ENDBRANCH  30  31
ENDBRANCH  28  30
ENDBRANCH  26  29
ENDBRANCH  25  26
ENDBRANCH   1  25
TORSDOF 16
ENDMDL
MODEL 6
REMARK VINA RESULT:      -6.2     11.146     19.670
REMARK  Name = 5281224_Astaxanthin.pdbqt.pdb
REMARK  16 active torsions:
REMARK  status: ('A' for Active; 'I' for Inactive)
REMARK    1  A    between atoms: C_1  and  C_5
REMARK    2  A    between atoms: C_2  and  C_27
REMARK    3  A    between atoms: C_3  and  C_5
REMARK    4  A    between atoms: C_3  and  C_7
REMARK    5  A    between atoms: C_6  and  C_10
REMARK    6  A    between atoms: C_8  and  C_10
REMARK    7  A    between atoms: C_8  and  C_12
REMARK    8  A    between atoms: C_11  and  C_16
REMARK    9  A    between atoms: C_17  and  O_23
REMARK   10  A    between atoms: C_25  and  C_27
REMARK   11  A    between atoms: C_25  and  C_29
REMARK   12  A    between atoms: C_28  and  C_32
REMARK   13  A    between atoms: C_30  and  C_32
REMARK   14  A    between atoms: C_30  and  C_34
REMARK   15  A    between atoms: C_33  and  C_38
REMARK   16  A    between atoms: C_39  and  O_45
REMARK                            x       y       z     vdW  Elec       q    Type
REMARK                         _______ _______ _______ _____ _____    ______ ____
ROOT
ATOM      1  C   UNL     1      -8.340  16.599  -5.339  0.00  0.00    +0.000 C 
ATOM      2  C   UNL     1      -9.414  16.071  -5.253  0.00  0.00    +0.000 C 
ENDROOT
BRANCH   2   3
ATOM      3  C   UNL     1     -10.784  15.388  -5.147  0.00  0.00    +0.000 C 
BRANCH   3   4
ATOM      4  C   UNL     1     -11.942  14.815  -5.052  0.00  0.00    +0.000 C 
ATOM      5  C   UNL     1     -13.177  15.647  -4.880  0.00  0.00    +0.000 C 
BRANCH   4   7
ATOM      6  C   UNL     1     -12.106  12.204  -5.007  0.00  0.00    +0.000 C 
ATOM      7  C   UNL     1     -12.032  13.402  -5.029  0.00  0.00    +0.000 C 
BRANCH   6   8
ATOM      8  C   UNL     1     -12.198  10.674  -4.975  0.00  0.00    +0.000 C 
BRANCH   8   9
ATOM      9  C   UNL     1     -12.276   9.380  -4.940  0.00  0.00    +0.000 C 
ATOM     10  C   UNL     1     -12.461   8.677  -3.629  0.00  0.00    +0.000 C 
BRANCH   9  12
ATOM     11  C   UNL     1     -12.378   8.010  -7.171  0.00  0.00    +0.000 C 
ATOM     12  C   UNL     1     -12.339   8.647  -6.150  0.00  0.00    +0.000 C 
BRANCH  11  16
ATOM     13  O   UNL     1     -10.485   4.557 -10.089  0.00  0.00    +0.000 OA
ATOM     14  C   UNL     1     -13.566   7.510  -9.390  0.00  0.00    +0.000 C 
ATOM     15  C   UNL     1     -13.341   6.599 -10.500  0.00  0.00    +0.000 C 
ATOM     16  C   UNL     1     -12.410   7.233  -8.394  0.00  0.00    +0.000 C 
ATOM     17  C   UNL     1     -12.421   5.620 -10.864  0.00  0.00    +0.000 C 
ATOM     18  C   UNL     1     -14.913   7.189  -8.702  0.00  0.00    +0.000 C 
ATOM     19  C   UNL     1     -13.487   8.974  -9.877  0.00  0.00    +0.000 C 
ATOM     20  C   UNL     1     -11.443   6.297  -8.626  0.00  0.00    +0.000 C 
ATOM     21  C   UNL     1     -11.345   5.400  -9.872  0.00  0.00    +0.000 C 
ATOM     22  C   UNL     1     -10.350   6.090  -7.569  0.00  0.00    +0.000 C 
BRANCH  17  23
ATOM     23  O   UNL     1     -12.504   4.915 -12.034  0.00  0.00    +0.000 OA
ATOM     24  H   UNL     1     -13.251   4.282 -12.005  0.00  0.00    +0.000 HD
ENDBRANCH  17  23
ENDBRANCH  11  16
ENDBRANCH   9  12
ENDBRANCH   8   9
ENDBRANCH   6   8
ENDBRANCH   4   7
ENDBRANCH   3   4
ENDBRANCH   2   3
BRANCH   1  25
ATOM     25  C   UNL     1      -6.964  17.265  -5.453  0.00  0.00    +0.000 C 
BRANCH  25  26
ATOM     26  C   UNL     1      -5.799  17.824  -5.550  0.00  0.00    +0.000 C 
ATOM     27  C   UNL     1      -4.932  17.959  -4.334  0.00  0.00    +0.000 C 
BRANCH  26  29
ATOM     28  C   UNL     1      -5.027  18.857  -7.826  0.00  0.00    +0.000 C 
ATOM     29  C   UNL     1      -5.382  18.381  -6.781  0.00  0.00    +0.000 C 
BRANCH  28  30
ATOM     30  C   UNL     1      -4.576  19.469  -9.158  0.00  0.00    +0.000 C 
BRANCH  30  31
ATOM     31  C   UNL     1      -4.201  19.981 -10.288  0.00  0.00    +0.000 C 
ATOM     32  C   UNL     1      -3.503  21.307 -10.313  0.00  0.00    +0.000 C 
BRANCH  31  34
ATOM     33  C   UNL     1      -4.422  18.570 -12.484  0.00  0.00    +0.000 C 
ATOM     34  C   UNL     1      -4.309  19.217 -11.477  0.00  0.00    +0.000 C 
BRANCH  33  38
ATOM     35  O   UNL     1      -2.505  16.348 -16.409  0.00  0.00    +0.000 OA
ATOM     36  C   UNL     1      -6.012  17.347 -14.085  0.00  0.00    +0.000 C 
ATOM     37  C   UNL     1      -5.858  16.592 -15.317  0.00  0.00    +0.000 C 
ATOM     38  C   UNL     1      -4.578  17.787 -13.695  0.00  0.00    +0.000 C 
ATOM     39  C   UNL     1      -4.828  16.197 -16.166  0.00  0.00    +0.000 C 
ATOM     40  C   UNL     1      -6.583  16.438 -12.971  0.00  0.00    +0.000 C 
ATOM     41  C   UNL     1      -6.886  18.597 -14.332  0.00  0.00    +0.000 C 
ATOM     42  C   UNL     1      -3.478  17.464 -14.436  0.00  0.00    +0.000 C 
ATOM     43  C   UNL     1      -3.485  16.644 -15.737  0.00  0.00    +0.000 C 
ATOM     44  C   UNL     1      -2.100  17.937 -13.954  0.00  0.00    +0.000 C 
BRANCH  39  45
ATOM     45  O   UNL     1      -5.036  15.455 -17.297  0.00  0.00    +0.000 OA
ATOM     46  H   UNL     1      -4.375  15.680 -17.985  0.00  0.00    +0.000 HD
ENDBRANCH  39  45
ENDBRANCH  33  38
ENDBRANCH  31  34
ENDBRANCH  30  31
ENDBRANCH  28  30
ENDBRANCH  26  29
ENDBRANCH  25  26
ENDBRANCH   1  25
TORSDOF 16
ENDMDL
MODEL 7
REMARK VINA RESULT:      -6.1     10.318     13.724
REMARK  Name = 5281224_Astaxanthin.pdbqt.pdb
REMARK  16 active torsions:
REMARK  status: ('A' for Active; 'I' for Inactive)
REMARK    1  A    between atoms: C_1  and  C_5
REMARK    2  A    between atoms: C_2  and  C_27
REMARK    3  A    between atoms: C_3  and  C_5
REMARK    4  A    between atoms: C_3  and  C_7
REMARK    5  A    between atoms: C_6  and  C_10
REMARK    6  A    between atoms: C_8  and  C_10
REMARK    7  A    between atoms: C_8  and  C_12
REMARK    8  A    between atoms: C_11  and  C_16
REMARK    9  A    between atoms: C_17  and  O_23
REMARK   10  A    between atoms: C_25  and  C_27
REMARK   11  A    between atoms: C_25  and  C_29
REMARK   12  A    between atoms: C_28  and  C_32
REMARK   13  A    between atoms: C_30  and  C_32
REMARK   14  A    between atoms: C_30  and  C_34
REMARK   15  A    between atoms: C_33  and  C_38
REMARK   16  A    between atoms: C_39  and  O_45
REMARK                            x       y       z     vdW  Elec       q    Type
REMARK                         _______ _______ _______ _____ _____    ______ ____
ROOT
ATOM      1  C   UNL     1      11.127  10.516 -23.844  0.00  0.00    +0.000 C 
ATOM      2  C   UNL     1      11.878  11.164 -23.168  0.00  0.00    +0.000 C 
ENDROOT
BRANCH   2   3
ATOM      3  C   UNL     1      12.832  11.992 -22.297  0.00  0.00    +0.000 C 
BRANCH   3   4
ATOM      4  C   UNL     1      13.633  12.693 -21.558  0.00  0.00    +0.000 C 
ATOM      5  C   UNL     1      14.159  14.003 -22.061  0.00  0.00    +0.000 C 
BRANCH   4   7
ATOM      6  C   UNL     1      14.447  11.750 -19.258  0.00  0.00    +0.000 C 
ATOM      7  C   UNL     1      14.073  12.184 -20.312  0.00  0.00    +0.000 C 
BRANCH   6   8
ATOM      8  C   UNL     1      14.927  11.193 -17.912  0.00  0.00    +0.000 C 
BRANCH   8   9
ATOM      9  C   UNL     1      15.339  10.717 -16.778  0.00  0.00    +0.000 C 
ATOM     10  C   UNL     1      16.767  10.290 -16.621  0.00  0.00    +0.000 C 
BRANCH   9  12
ATOM     11  C   UNL     1      13.759  10.747 -14.688  0.00  0.00    +0.000 C 
ATOM     12  C   UNL     1      14.480  10.744 -15.651  0.00  0.00    +0.000 C 
BRANCH  11  16
ATOM     13  O   UNL     1      13.115  11.117  -9.844  0.00  0.00    +0.000 OA
ATOM     14  C   UNL     1      11.380  10.501 -13.756  0.00  0.00    +0.000 C 
ATOM     15  C   UNL     1      10.780  10.541 -12.434  0.00  0.00    +0.000 C 
ATOM     16  C   UNL     1      12.896  10.734 -13.524  0.00  0.00    +0.000 C 
ATOM     17  C   UNL     1      11.191  10.721 -11.117  0.00  0.00    +0.000 C 
ATOM     18  C   UNL     1      10.821  11.647 -14.631  0.00  0.00    +0.000 C 
ATOM     19  C   UNL     1      11.166   9.112 -14.398  0.00  0.00    +0.000 C 
ATOM     20  C   UNL     1      13.431  10.929 -12.283  0.00  0.00    +0.000 C 
ATOM     21  C   UNL     1      12.646  10.942 -10.961  0.00  0.00    +0.000 C 
ATOM     22  C   UNL     1      14.943  11.166 -12.162  0.00  0.00    +0.000 C 
BRANCH  17  23
ATOM     23  O   UNL     1      10.327  10.701 -10.055  0.00  0.00    +0.000 OA
ATOM     24  H   UNL     1      10.546  11.411  -9.417  0.00  0.00    +0.000 HD
ENDBRANCH  17  23
ENDBRANCH  11  16
ENDBRANCH   9  12
ENDBRANCH   8   9
ENDBRANCH   6   8
ENDBRANCH   4   7
ENDBRANCH   3   4
ENDBRANCH   2   3
BRANCH   1  25
ATOM     25  C   UNL     1      10.161   9.688 -24.699  0.00  0.00    +0.000 C 
BRANCH  25  26
ATOM     26  C   UNL     1       9.344   8.985 -25.418  0.00  0.00    +0.000 C 
ATOM     27  C   UNL     1       8.564   9.641 -26.519  0.00  0.00    +0.000 C 
BRANCH  26  29
ATOM     28  C   UNL     1       8.938   6.465 -24.850  0.00  0.00    +0.000 C 
ATOM     29  C   UNL     1       9.123   7.623 -25.110  0.00  0.00    +0.000 C 
BRANCH  28  30
ATOM     30  C   UNL     1       8.703   4.985 -24.521  0.00  0.00    +0.000 C 
BRANCH  30  31
ATOM     31  C   UNL     1       8.505   3.737 -24.233  0.00  0.00    +0.000 C 
ATOM     32  C   UNL     1       7.781   2.852 -25.203  0.00  0.00    +0.000 C 
BRANCH  31  34
ATOM     33  C   UNL     1       9.613   2.718 -22.089  0.00  0.00    +0.000 C 
ATOM     34  C   UNL     1       9.108   3.177 -23.080  0.00  0.00    +0.000 C 
BRANCH  33  38
ATOM     35  O   UNL     1       9.463   1.797 -17.278  0.00  0.00    +0.000 OA
ATOM     36  C   UNL     1      11.621   1.533 -21.016  0.00  0.00    +0.000 C 
ATOM     37  C   UNL     1      11.964   1.094 -19.674  0.00  0.00    +0.000 C 
ATOM     38  C   UNL     1      10.218   2.181 -20.886  0.00  0.00    +0.000 C 
ATOM     39  C   UNL     1      11.395   1.107 -18.404  0.00  0.00    +0.000 C 
ATOM     40  C   UNL     1      11.530   0.317 -21.968  0.00  0.00    +0.000 C 
ATOM     41  C   UNL     1      12.634   2.591 -21.506  0.00  0.00    +0.000 C 
ATOM     42  C   UNL     1       9.546   2.257 -19.700  0.00  0.00    +0.000 C 
ATOM     43  C   UNL     1      10.057   1.735 -18.347  0.00  0.00    +0.000 C 
ATOM     44  C   UNL     1       8.155   2.905 -19.682  0.00  0.00    +0.000 C 
BRANCH  39  45
ATOM     45  O   UNL     1      12.015   0.583 -17.303  0.00  0.00    +0.000 OA
ATOM     46  H   UNL     1      11.995  -0.396 -17.328  0.00  0.00    +0.000 HD
ENDBRANCH  39  45
ENDBRANCH  33  38
ENDBRANCH  31  34
ENDBRANCH  30  31
ENDBRANCH  28  30
ENDBRANCH  26  29
ENDBRANCH  25  26
ENDBRANCH   1  25
TORSDOF 16
ENDMDL
MODEL 8
REMARK VINA RESULT:      -6.1     22.954     26.473
REMARK  Name = 5281224_Astaxanthin.pdbqt.pdb
REMARK  16 active torsions:
REMARK  status: ('A' for Active; 'I' for Inactive)
REMARK    1  A    between atoms: C_1  and  C_5
REMARK    2  A    between atoms: C_2  and  C_27
REMARK    3  A    between atoms: C_3  and  C_5
REMARK    4  A    between atoms: C_3  and  C_7
REMARK    5  A    between atoms: C_6  and  C_10
REMARK    6  A    between atoms: C_8  and  C_10
REMARK    7  A    between atoms: C_8  and  C_12
REMARK    8  A    between atoms: C_11  and  C_16
REMARK    9  A    between atoms: C_17  and  O_23
REMARK   10  A    between atoms: C_25  and  C_27
REMARK   11  A    between atoms: C_25  and  C_29
REMARK   12  A    between atoms: C_28  and  C_32
REMARK   13  A    between atoms: C_30  and  C_32
REMARK   14  A    between atoms: C_30  and  C_34
REMARK   15  A    between atoms: C_33  and  C_38
REMARK   16  A    between atoms: C_39  and  O_45
REMARK                            x       y       z     vdW  Elec       q    Type
REMARK                         _______ _______ _______ _____ _____    ______ ____
ROOT
ATOM      1  C   UNL     1       1.414 -12.876 -21.084  0.00  0.00    +0.000 C 
ATOM      2  C   UNL     1       1.225 -13.644 -20.181  0.00  0.00    +0.000 C 
ENDROOT
BRANCH   2   3
ATOM      3  C   UNL     1       0.976 -14.628 -19.031  0.00  0.00    +0.000 C 
BRANCH   3   4
ATOM      4  C   UNL     1       0.763 -15.463 -18.064  0.00  0.00    +0.000 C 
ATOM      5  C   UNL     1      -0.316 -16.496 -18.191  0.00  0.00    +0.000 C 
BRANCH   4   7
ATOM      6  C   UNL     1       2.115 -15.248 -15.834  0.00  0.00    +0.000 C 
ATOM      7  C   UNL     1       1.494 -15.349 -16.857  0.00  0.00    +0.000 C 
BRANCH   6   8
ATOM      8  C   UNL     1       2.908 -15.117 -14.529  0.00  0.00    +0.000 C 
BRANCH   8   9
ATOM      9  C   UNL     1       3.577 -14.997 -13.424  0.00  0.00    +0.000 C 
ATOM     10  C   UNL     1       2.932 -14.372 -12.224  0.00  0.00    +0.000 C 
BRANCH   9  12
ATOM     11  C   UNL     1       5.934 -16.120 -13.210  0.00  0.00    +0.000 C 
ATOM     12  C   UNL     1       4.857 -15.594 -13.309  0.00  0.00    +0.000 C 
BRANCH  11  16
ATOM     13  O   UNL     1       9.263 -18.532 -10.541  0.00  0.00    +0.000 OA
ATOM     14  C   UNL     1       8.130 -16.814 -14.344  0.00  0.00    +0.000 C 
ATOM     15  C   UNL     1       9.332 -17.514 -13.925  0.00  0.00    +0.000 C 
ATOM     16  C   UNL     1       7.224 -16.770 -13.086  0.00  0.00    +0.000 C 
ATOM     17  C   UNL     1       9.834 -18.107 -12.771  0.00  0.00    +0.000 C 
ATOM     18  C   UNL     1       7.410 -17.609 -15.458  0.00  0.00    +0.000 C 
ATOM     19  C   UNL     1       8.476 -15.372 -14.778  0.00  0.00    +0.000 C 
ATOM     20  C   UNL     1       7.593 -17.318 -11.891  0.00  0.00    +0.000 C 
ATOM     21  C   UNL     1       8.923 -18.036 -11.607  0.00  0.00    +0.000 C 
ATOM     22  C   UNL     1       6.616 -17.235 -10.710  0.00  0.00    +0.000 C 
BRANCH  17  23
ATOM     23  O   UNL     1      11.062 -18.710 -12.714  0.00  0.00    +0.000 OA
ATOM     24  H   UNL     1      11.479 -18.733 -13.599  0.00  0.00    +0.000 HD
ENDBRANCH  17  23
ENDBRANCH  11  16
ENDBRANCH   9  12
ENDBRANCH   8   9
ENDBRANCH   6   8
ENDBRANCH   4   7
ENDBRANCH   3   4
ENDBRANCH   2   3
BRANCH   1  25
ATOM     25  C   UNL     1       1.646 -11.897 -22.241  0.00  0.00    +0.000 C 
BRANCH  25  26
ATOM     26  C   UNL     1       1.846 -11.068 -23.216  0.00  0.00    +0.000 C 
ATOM     27  C   UNL     1       2.843 -11.400 -24.286  0.00  0.00    +0.000 C 
BRANCH  26  29
ATOM     28  C   UNL     1       0.635  -8.750 -23.237  0.00  0.00    +0.000 C 
ATOM     29  C   UNL     1       1.191  -9.814 -23.226  0.00  0.00    +0.000 C 
BRANCH  28  30
ATOM     30  C   UNL     1      -0.075  -7.390 -23.254  0.00  0.00    +0.000 C 
BRANCH  30  31
ATOM     31  C   UNL     1      -0.675  -6.241 -23.277  0.00  0.00    +0.000 C 
ATOM     32  C   UNL     1      -1.874  -6.041 -24.153  0.00  0.00    +0.000 C 
BRANCH  31  34
ATOM     33  C   UNL     1       0.047  -4.385 -21.574  0.00  0.00    +0.000 C 
ATOM     34  C   UNL     1      -0.293  -5.231 -22.359  0.00  0.00    +0.000 C 
BRANCH  33  38
ATOM     35  O   UNL     1      -0.537  -0.013 -19.437  0.00  0.00    +0.000 OA
ATOM     36  C   UNL     1       1.720  -3.688 -19.757  0.00  0.00    +0.000 C 
ATOM     37  C   UNL     1       1.898  -2.520 -18.911  0.00  0.00    +0.000 C 
ATOM     38  C   UNL     1       0.470  -3.378 -20.620  0.00  0.00    +0.000 C 
ATOM     39  C   UNL     1       1.277  -1.293 -18.697  0.00  0.00    +0.000 C 
ATOM     40  C   UNL     1       1.441  -4.938 -18.890  0.00  0.00    +0.000 C 
ATOM     41  C   UNL     1       2.947  -3.871 -20.678  0.00  0.00    +0.000 C 
ATOM     42  C   UNL     1      -0.236  -2.215 -20.509  0.00  0.00    +0.000 C 
ATOM     43  C   UNL     1       0.089  -1.060 -19.546  0.00  0.00    +0.000 C 
ATOM     44  C   UNL     1      -1.470  -2.014 -21.399  0.00  0.00    +0.000 C 
BRANCH  39  45
ATOM     45  O   UNL     1       1.721  -0.382 -17.778  0.00  0.00    +0.000 OA
ATOM     46  H   UNL     1       2.445   0.162 -18.152  0.00  0.00    +0.000 HD
ENDBRANCH  39  45
ENDBRANCH  33  38
ENDBRANCH  31  34
ENDBRANCH  30  31
ENDBRANCH  28  30
ENDBRANCH  26  29
ENDBRANCH  25  26
ENDBRANCH   1  25
TORSDOF 16
ENDMDL
MODEL 9
REMARK VINA RESULT:      -6.1      3.444      6.093
REMARK  Name = 5281224_Astaxanthin.pdbqt.pdb
REMARK  16 active torsions:
REMARK  status: ('A' for Active; 'I' for Inactive)
REMARK    1  A    between atoms: C_1  and  C_5
REMARK    2  A    between atoms: C_2  and  C_27
REMARK    3  A    between atoms: C_3  and  C_5
REMARK    4  A    between atoms: C_3  and  C_7
REMARK    5  A    between atoms: C_6  and  C_10
REMARK    6  A    between atoms: C_8  and  C_10
REMARK    7  A    between atoms: C_8  and  C_12
REMARK    8  A    between atoms: C_11  and  C_16
REMARK    9  A    between atoms: C_17  and  O_23
REMARK   10  A    between atoms: C_25  and  C_27
REMARK   11  A    between atoms: C_25  and  C_29
REMARK   12  A    between atoms: C_28  and  C_32
REMARK   13  A    between atoms: C_30  and  C_32
REMARK   14  A    between atoms: C_30  and  C_34
REMARK   15  A    between atoms: C_33  and  C_38
REMARK   16  A    between atoms: C_39  and  O_45
REMARK                            x       y       z     vdW  Elec       q    Type
REMARK                         _______ _______ _______ _____ _____    ______ ____
ROOT
ATOM      1  C   UNL     1       6.113  20.025 -13.415  0.00  0.00    +0.000 C 
ATOM      2  C   UNL     1       7.175  19.613 -13.038  0.00  0.00    +0.000 C 
ENDROOT
BRANCH   2   3
ATOM      3  C   UNL     1       8.536  19.092 -12.561  0.00  0.00    +0.000 C 
BRANCH   3   4
ATOM      4  C   UNL     1       9.684  18.646 -12.157  0.00  0.00    +0.000 C 
ATOM      5  C   UNL     1      10.640  19.566 -11.459  0.00  0.00    +0.000 C 
BRANCH   4   7
ATOM      6  C   UNL     1      10.389  16.183 -12.686  0.00  0.00    +0.000 C 
ATOM      7  C   UNL     1      10.067  17.314 -12.445  0.00  0.00    +0.000 C 
BRANCH   6   8
ATOM      8  C   UNL     1      10.798  14.738 -12.992  0.00  0.00    +0.000 C 
BRANCH   8   9
ATOM      9  C   UNL     1      11.147  13.517 -13.259  0.00  0.00    +0.000 C 
ATOM     10  C   UNL     1      11.184  12.494 -12.164  0.00  0.00    +0.000 C 
BRANCH   9  12
ATOM     11  C   UNL     1      11.491  12.771 -15.746  0.00  0.00    +0.000 C 
ATOM     12  C   UNL     1      11.343  13.120 -14.605  0.00  0.00    +0.000 C 
BRANCH  11  16
ATOM     13  O   UNL     1      11.330  13.680 -20.560  0.00  0.00    +0.000 OA
ATOM     14  C   UNL     1      12.115  10.877 -17.363  0.00  0.00    +0.000 C 
ATOM     15  C   UNL     1      12.193  10.735 -18.806  0.00  0.00    +0.000 C 
ATOM     16  C   UNL     1      11.656  12.338 -17.120  0.00  0.00    +0.000 C 
ATOM     17  C   UNL     1      11.976  11.518 -19.935  0.00  0.00    +0.000 C 
ATOM     18  C   UNL     1      13.512  10.674 -16.730  0.00  0.00    +0.000 C 
ATOM     19  C   UNL     1      11.061   9.905 -16.787  0.00  0.00    +0.000 C 
ATOM     20  C   UNL     1      11.413  13.214 -18.139  0.00  0.00    +0.000 C 
ATOM     21  C   UNL     1      11.544  12.903 -19.639  0.00  0.00    +0.000 C 
ATOM     22  C   UNL     1      10.978  14.645 -17.791  0.00  0.00    +0.000 C 
BRANCH  17  23
ATOM     23  O   UNL     1      12.152  11.055 -21.212  0.00  0.00    +0.000 OA
ATOM     24  H   UNL     1      11.358  11.231 -21.757  0.00  0.00    +0.000 HD
ENDBRANCH  17  23
ENDBRANCH  11  16
ENDBRANCH   9  12
ENDBRANCH   8   9
ENDBRANCH   6   8
ENDBRANCH   4   7
ENDBRANCH   3   4
ENDBRANCH   2   3
BRANCH   1  25
ATOM     25  C   UNL     1       4.761  20.557 -13.904  0.00  0.00    +0.000 C 
BRANCH  25  26
ATOM     26  C   UNL     1       3.620  21.010 -14.321  0.00  0.00    +0.000 C 
ATOM     27  C   UNL     1       3.209  22.414 -13.990  0.00  0.00    +0.000 C 
BRANCH  26  29
ATOM     28  C   UNL     1       1.972  19.429 -15.595  0.00  0.00    +0.000 C 
ATOM     29  C   UNL     1       2.728  20.157 -15.011  0.00  0.00    +0.000 C 
BRANCH  28  30
ATOM     30  C   UNL     1       1.008  18.497 -16.341  0.00  0.00    +0.000 C 
BRANCH  30  31
ATOM     31  C   UNL     1       0.201  17.707 -16.975  0.00  0.00    +0.000 C 
ATOM     32  C   UNL     1       0.631  17.076 -18.265  0.00  0.00    +0.000 C 
BRANCH  31  34
ATOM     33  C   UNL     1      -2.059  17.007 -15.850  0.00  0.00    +0.000 C 
ATOM     34  C   UNL     1      -1.021  17.317 -16.371  0.00  0.00    +0.000 C 
BRANCH  33  38
ATOM     35  O   UNL     1      -5.693  18.001 -12.714  0.00  0.00    +0.000 OA
ATOM     36  C   UNL     1      -3.965  15.303 -15.619  0.00  0.00    +0.000 C 
ATOM     37  C   UNL     1      -5.184  15.217 -14.832  0.00  0.00    +0.000 C 
ATOM     38  C   UNL     1      -3.312  16.649 -15.212  0.00  0.00    +0.000 C 
ATOM     39  C   UNL     1      -5.856  15.978 -13.881  0.00  0.00    +0.000 C 
ATOM     40  C   UNL     1      -4.307  15.343 -17.128  0.00  0.00    +0.000 C 
ATOM     41  C   UNL     1      -3.015  14.140 -15.261  0.00  0.00    +0.000 C 
ATOM     42  C   UNL     1      -3.867  17.493 -14.294  0.00  0.00    +0.000 C 
ATOM     43  C   UNL     1      -5.184  17.251 -13.538  0.00  0.00    +0.000 C 
ATOM     44  C   UNL     1      -3.146  18.809 -13.972  0.00  0.00    +0.000 C 
BRANCH  39  45
ATOM     45  O   UNL     1      -7.039  15.589 -13.313  0.00  0.00    +0.000 OA
ATOM     46  H   UNL     1      -7.507  14.951 -13.890  0.00  0.00    +0.000 HD
ENDBRANCH  39  45
ENDBRANCH  33  38
ENDBRANCH  31  34
ENDBRANCH  30  31
ENDBRANCH  28  30
ENDBRANCH  26  29
ENDBRANCH  25  26
ENDBRANCH   1  25
TORSDOF 16
ENDMDL
