MODEL 1
REMARK VINA RESULT:      -6.5      0.000      0.000
REMARK  Name = 5281239_Fucoxanthin.pdbqt.pdb
REMARK  19 active torsions:
REMARK  status: ('A' for Active; 'I' for Inactive)
REMARK    1  A    between atoms: C_1  and  C_5
REMARK    2  A    between atoms: C_2  and  C_26
REMARK    3  A    between atoms: C_3  and  C_5
REMARK    4  A    between atoms: C_3  and  C_7
REMARK    5  A    between atoms: C_6  and  C_10
REMARK    6  A    between atoms: C_8  and  C_10
REMARK    7  A    between atoms: C_8  and  C_12
REMARK    8  A    between atoms: C_12  and  C_13
REMARK    9  A    between atoms: C_13  and  C_15
REMARK   10  A    between atoms: C_20  and  O_24
REMARK   11  A    between atoms: C_26  and  C_27
REMARK   12  A    between atoms: C_27  and  C_30
REMARK   13  A    between atoms: C_29  and  C_33
REMARK   14  A    between atoms: C_31  and  C_33
REMARK   15  A    between atoms: C_31  and  C_44
REMARK   16  A    between atoms: C_35  and  O_45
REMARK   17  A    between atoms: C_37  and  O_47
REMARK   18  A    between atoms: C_39  and  C_43
REMARK   19  A    between atoms: O_47  and  C_49
REMARK                            x       y       z     vdW  Elec       q    Type
REMARK                         _______ _______ _______ _____ _____    ______ ____
ROOT
ATOM      1  C   UNL     1      -2.488   0.328 -18.602  0.00  0.00    +0.000 C 
ATOM      2  C   UNL     1      -1.674   0.916 -19.259  0.00  0.00    +0.000 C 
ENDROOT
BRANCH   2   3
ATOM      3  C   UNL     1      -0.640   1.673 -20.100  0.00  0.00    +0.000 C 
BRANCH   3   4
ATOM      4  C   UNL     1       0.236   2.310 -20.813  0.00  0.00    +0.000 C 
ATOM      5  C   UNL     1      -0.030   3.722 -21.239  0.00  0.00    +0.000 C 
BRANCH   4   7
ATOM      6  C   UNL     1       2.503   1.157 -21.427  0.00  0.00    +0.000 C 
ATOM      7  C   UNL     1       1.463   1.687 -21.144  0.00  0.00    +0.000 C 
BRANCH   6   8
ATOM      8  C   UNL     1       3.828   0.479 -21.793  0.00  0.00    +0.000 C 
BRANCH   8   9
ATOM      9  C   UNL     1       4.949  -0.090 -22.111  0.00  0.00    +0.000 C 
ATOM     10  C   UNL     1       5.014  -1.029 -23.276  0.00  0.00    +0.000 C 
BRANCH   9  12
ATOM     11  C   UNL     1       7.053   0.242 -20.585  0.00  0.00    +0.000 C 
ATOM     12  C   UNL     1       6.088   0.087 -21.286  0.00  0.00    +0.000 C 
BRANCH  11  18
ATOM     13  C   UNL     1       8.309   1.677 -18.959  0.00  0.00    +0.000 C 
ATOM     14  C   UNL     1       9.235  -0.608 -19.788  0.00  0.00    +0.000 C 
ATOM     15  C   UNL     1       9.396   1.495 -17.988  0.00  0.00    +0.000 C 
ATOM     16  C   UNL     1      10.385   0.548 -17.658  0.00  0.00    +0.000 C 
ATOM     17  C   UNL     1      10.135  -0.415 -18.657  0.00  0.00    +0.000 C 
ATOM     18  C   UNL     1       8.112   0.416 -19.819  0.00  0.00    +0.000 C 
ATOM     19  C   UNL     1       8.631   2.870 -19.899  0.00  0.00    +0.000 C 
ATOM     20  C   UNL     1       6.996   1.965 -18.169  0.00  0.00    +0.000 C 
ATOM     21  C   UNL     1      10.001  -0.618 -21.115  0.00  0.00    +0.000 C 
BRANCH  14  22
ATOM     22  O   UNL     1       8.681  -1.900 -19.679  0.00  0.00    +0.000 OA
ATOM     23  H   UNL     1       8.185  -1.969 -20.516  0.00  0.00    +0.000 HD
ENDBRANCH  14  22
BRANCH  16  24
ATOM     24  O   UNL     1      11.680   0.982 -17.408  0.00  0.00    +0.000 OA
BRANCH  24  26
ATOM     25  O   UNL     1      11.831  -0.493 -15.590  0.00  0.00    +0.000 OA
ATOM     26  C   UNL     1      12.097   0.526 -16.201  0.00  0.00    +0.000 C 
ATOM     27  C   UNL     1      13.037   1.439 -15.496  0.00  0.00    +0.000 C 
ENDBRANCH  24  26
ENDBRANCH  16  24
ENDBRANCH  11  18
ENDBRANCH   9  12
ENDBRANCH   8   9
ENDBRANCH   6   8
ENDBRANCH   4   7
ENDBRANCH   3   4
ENDBRANCH   2   3
BRANCH   1  28
ATOM     28  C   UNL     1      -3.534  -0.415 -17.764  0.00  0.00    +0.000 C 
BRANCH  28  29
ATOM     29  C   UNL     1      -4.426  -1.037 -17.060  0.00  0.00    +0.000 C 
ATOM     30  C   UNL     1      -4.370  -0.985 -15.563  0.00  0.00    +0.000 C 
BRANCH  29  32
ATOM     31  C   UNL     1      -6.290  -2.428 -18.258  0.00  0.00    +0.000 C 
ATOM     32  C   UNL     1      -5.430  -1.796 -17.708  0.00  0.00    +0.000 C 
BRANCH  31  33
ATOM     33  C   UNL     1      -7.399  -3.223 -18.959  0.00  0.00    +0.000 C 
BRANCH  33  34
ATOM     34  C   UNL     1      -8.337  -3.891 -19.561  0.00  0.00    +0.000 C 
ATOM     35  C   UNL     1      -9.438  -4.459 -18.689  0.00  0.00    +0.000 C 
BRANCH  34  37
ATOM     36  O   UNL     1      -7.368  -4.730 -21.578  0.00  0.00    +0.000 OA
ATOM     37  C   UNL     1      -8.281  -4.111 -21.039  0.00  0.00    +0.000 C 
BRANCH  37  38
ATOM     38  C   UNL     1      -9.315  -3.600 -21.906  0.00  0.00    +0.000 C 
BRANCH  38  40
ATOM     39  O   UNL     1      -9.801  -2.198 -23.761  0.00  0.00    +0.000 OA
ATOM     40  C   UNL     1     -10.363  -3.120 -22.787  0.00  0.00    +0.000 C 
ATOM     41  C   UNL     1     -10.281  -3.430 -24.296  0.00  0.00    +0.000 C 
ATOM     42  C   UNL     1     -11.763  -2.737 -22.186  0.00  0.00    +0.000 C 
ATOM     43  C   UNL     1     -11.471  -3.257 -25.064  0.00  0.00    +0.000 C 
ATOM     44  C   UNL     1     -12.683  -2.581 -23.314  0.00  0.00    +0.000 C 
ATOM     45  C   UNL     1     -12.752  -2.801 -24.704  0.00  0.00    +0.000 C 
ATOM     46  C   UNL     1      -9.177  -4.297 -24.909  0.00  0.00    +0.000 C 
ATOM     47  C   UNL     1     -12.171  -3.934 -21.294  0.00  0.00    +0.000 C 
ATOM     48  C   UNL     1     -11.537  -1.443 -21.372  0.00  0.00    +0.000 C 
BRANCH  45  49
ATOM     49  O   UNL     1     -13.890  -3.257 -25.296  0.00  0.00    +0.000 OA
ATOM     50  H   UNL     1     -13.874  -3.148 -26.264  0.00  0.00    +0.000 HD
ENDBRANCH  45  49
ENDBRANCH  38  40
ENDBRANCH  37  38
ENDBRANCH  34  37
ENDBRANCH  33  34
ENDBRANCH  31  33
ENDBRANCH  29  32
ENDBRANCH  28  29
ENDBRANCH   1  28
TORSDOF 19
ENDMDL
MODEL 2
REMARK VINA RESULT:      -6.4     12.204     15.409
REMARK  Name = 5281239_Fucoxanthin.pdbqt.pdb
REMARK  19 active torsions:
REMARK  status: ('A' for Active; 'I' for Inactive)
REMARK    1  A    between atoms: C_1  and  C_5
REMARK    2  A    between atoms: C_2  and  C_26
REMARK    3  A    between atoms: C_3  and  C_5
REMARK    4  A    between atoms: C_3  and  C_7
REMARK    5  A    between atoms: C_6  and  C_10
REMARK    6  A    between atoms: C_8  and  C_10
REMARK    7  A    between atoms: C_8  and  C_12
REMARK    8  A    between atoms: C_12  and  C_13
REMARK    9  A    between atoms: C_13  and  C_15
REMARK   10  A    between atoms: C_20  and  O_24
REMARK   11  A    between atoms: C_26  and  C_27
REMARK   12  A    between atoms: C_27  and  C_30
REMARK   13  A    between atoms: C_29  and  C_33
REMARK   14  A    between atoms: C_31  and  C_33
REMARK   15  A    between atoms: C_31  and  C_44
REMARK   16  A    between atoms: C_35  and  O_45
REMARK   17  A    between atoms: C_37  and  O_47
REMARK   18  A    between atoms: C_39  and  C_43
REMARK   19  A    between atoms: O_47  and  C_49
REMARK                            x       y       z     vdW  Elec       q    Type
REMARK                         _______ _______ _______ _____ _____    ______ ____
ROOT
ATOM      1  C   UNL     1       1.395 -12.084 -21.459  0.00  0.00    +0.000 C 
ATOM      2  C   UNL     1       1.698 -10.998 -21.870  0.00  0.00    +0.000 C 
ENDROOT
BRANCH   2   3
ATOM      3  C   UNL     1       2.078  -9.608 -22.394  0.00  0.00    +0.000 C 
BRANCH   3   4
ATOM      4  C   UNL     1       2.396  -8.433 -22.838  0.00  0.00    +0.000 C 
ATOM      5  C   UNL     1       3.095  -8.296 -24.156  0.00  0.00    +0.000 C 
BRANCH   4   7
ATOM      6  C   UNL     1       1.734  -6.298 -21.478  0.00  0.00    +0.000 C 
ATOM      7  C   UNL     1       2.037  -7.279 -22.101  0.00  0.00    +0.000 C 
BRANCH   6   8
ATOM      8  C   UNL     1       1.347  -5.043 -20.687  0.00  0.00    +0.000 C 
BRANCH   8   9
ATOM      9  C   UNL     1       1.013  -3.979 -20.025  0.00  0.00    +0.000 C 
ATOM     10  C   UNL     1      -0.423  -3.722 -19.687  0.00  0.00    +0.000 C 
BRANCH   9  12
ATOM     11  C   UNL     1       2.829  -2.174 -19.469  0.00  0.00    +0.000 C 
ATOM     12  C   UNL     1       1.993  -3.002 -19.722  0.00  0.00    +0.000 C 
BRANCH  11  18
ATOM     13  C   UNL     1       5.077  -1.183 -19.961  0.00  0.00    +0.000 C 
ATOM     14  C   UNL     1       3.563  -0.291 -18.042  0.00  0.00    +0.000 C 
ATOM     15  C   UNL     1       5.781   0.073 -19.666  0.00  0.00    +0.000 C 
ATOM     16  C   UNL     1       5.660   1.191 -18.818  0.00  0.00    +0.000 C 
ATOM     17  C   UNL     1       4.502   0.823 -18.102  0.00  0.00    +0.000 C 
ATOM     18  C   UNL     1       3.747  -1.270 -19.191  0.00  0.00    +0.000 C 
ATOM     19  C   UNL     1       5.961  -2.394 -19.559  0.00  0.00    +0.000 C 
ATOM     20  C   UNL     1       4.783  -1.225 -21.491  0.00  0.00    +0.000 C 
ATOM     21  C   UNL     1       3.637  -1.012 -16.693  0.00  0.00    +0.000 C 
BRANCH  14  22
ATOM     22  O   UNL     1       2.259   0.245 -18.096  0.00  0.00    +0.000 OA
ATOM     23  H   UNL     1       2.438   1.159 -18.385  0.00  0.00    +0.000 HD
ENDBRANCH  14  22
BRANCH  16  24
ATOM     24  O   UNL     1       6.784   1.655 -18.146  0.00  0.00    +0.000 OA
BRANCH  24  26
ATOM     25  O   UNL     1       7.213   2.989 -20.028  0.00  0.00    +0.000 OA
ATOM     26  C   UNL     1       7.467   2.523 -18.933  0.00  0.00    +0.000 C 
ATOM     27  C   UNL     1       8.763   2.975 -18.356  0.00  0.00    +0.000 C 
ENDBRANCH  24  26
ENDBRANCH  16  24
ENDBRANCH  11  18
ENDBRANCH   9  12
ENDBRANCH   8   9
ENDBRANCH   6   8
ENDBRANCH   4   7
ENDBRANCH   3   4
ENDBRANCH   2   3
BRANCH   1  28
ATOM     28  C   UNL     1       1.000 -13.467 -20.928  0.00  0.00    +0.000 C 
BRANCH  28  29
ATOM     29  C   UNL     1       0.655 -14.633 -20.481  0.00  0.00    +0.000 C 
ATOM     30  C   UNL     1      -0.235 -15.516 -21.300  0.00  0.00    +0.000 C 
BRANCH  29  32
ATOM     31  C   UNL     1       1.458 -15.423 -18.119  0.00  0.00    +0.000 C 
ATOM     32  C   UNL     1       1.091 -15.053 -19.201  0.00  0.00    +0.000 C 
BRANCH  31  33
ATOM     33  C   UNL     1       1.924 -15.911 -16.743  0.00  0.00    +0.000 C 
BRANCH  33  34
ATOM     34  C   UNL     1       2.312 -16.330 -15.575  0.00  0.00    +0.000 C 
ATOM     35  C   UNL     1       1.234 -16.834 -14.637  0.00  0.00    +0.000 C 
BRANCH  34  37
ATOM     36  O   UNL     1       4.631 -15.907 -15.970  0.00  0.00    +0.000 OA
ATOM     37  C   UNL     1       3.755 -16.262 -15.187  0.00  0.00    +0.000 C 
BRANCH  37  38
ATOM     38  C   UNL     1       4.184 -16.613 -13.854  0.00  0.00    +0.000 C 
BRANCH  38  40
ATOM     39  O   UNL     1       5.557 -18.043 -12.546  0.00  0.00    +0.000 OA
ATOM     40  C   UNL     1       4.619 -16.933 -12.508  0.00  0.00    +0.000 C 
ATOM     41  C   UNL     1       6.112 -16.792 -12.145  0.00  0.00    +0.000 C 
ATOM     42  C   UNL     1       3.571 -16.939 -11.338  0.00  0.00    +0.000 C 
ATOM     43  C   UNL     1       6.448 -16.770 -10.758  0.00  0.00    +0.000 C 
ATOM     44  C   UNL     1       4.330 -16.995 -10.086  0.00  0.00    +0.000 C 
ATOM     45  C   UNL     1       5.651 -16.897  -9.607  0.00  0.00    +0.000 C 
ATOM     46  C   UNL     1       7.159 -16.251 -13.123  0.00  0.00    +0.000 C 
ATOM     47  C   UNL     1       2.801 -15.603 -11.465  0.00  0.00    +0.000 C 
ATOM     48  C   UNL     1       2.668 -18.168 -11.583  0.00  0.00    +0.000 C 
BRANCH  45  49
ATOM     49  O   UNL     1       5.937 -16.260  -8.438  0.00  0.00    +0.000 OA
ATOM     50  H   UNL     1       5.456 -16.638  -7.681  0.00  0.00    +0.000 HD
ENDBRANCH  45  49
ENDBRANCH  38  40
ENDBRANCH  37  38
ENDBRANCH  34  37
ENDBRANCH  33  34
ENDBRANCH  31  33
ENDBRANCH  29  32
ENDBRANCH  28  29
ENDBRANCH   1  28
TORSDOF 19
ENDMDL
MODEL 3
REMARK VINA RESULT:      -6.3     20.190     22.443
REMARK  Name = 5281239_Fucoxanthin.pdbqt.pdb
REMARK  19 active torsions:
REMARK  status: ('A' for Active; 'I' for Inactive)
REMARK    1  A    between atoms: C_1  and  C_5
REMARK    2  A    between atoms: C_2  and  C_26
REMARK    3  A    between atoms: C_3  and  C_5
REMARK    4  A    between atoms: C_3  and  C_7
REMARK    5  A    between atoms: C_6  and  C_10
REMARK    6  A    between atoms: C_8  and  C_10
REMARK    7  A    between atoms: C_8  and  C_12
REMARK    8  A    between atoms: C_12  and  C_13
REMARK    9  A    between atoms: C_13  and  C_15
REMARK   10  A    between atoms: C_20  and  O_24
REMARK   11  A    between atoms: C_26  and  C_27
REMARK   12  A    between atoms: C_27  and  C_30
REMARK   13  A    between atoms: C_29  and  C_33
REMARK   14  A    between atoms: C_31  and  C_33
REMARK   15  A    between atoms: C_31  and  C_44
REMARK   16  A    between atoms: C_35  and  O_45
REMARK   17  A    between atoms: C_37  and  O_47
REMARK   18  A    between atoms: C_39  and  C_43
REMARK   19  A    between atoms: O_47  and  C_49
REMARK                            x       y       z     vdW  Elec       q    Type
REMARK                         _______ _______ _______ _____ _____    ______ ____
ROOT
ATOM      1  C   UNL     1      -5.931  -0.302   2.996  0.00  0.00    +0.000 C 
ATOM      2  C   UNL     1      -5.001  -0.426   2.248  0.00  0.00    +0.000 C 
ENDROOT
BRANCH   2   3
ATOM      3  C   UNL     1      -3.811  -0.590   1.295  0.00  0.00    +0.000 C 
BRANCH   3   4
ATOM      4  C   UNL     1      -2.804  -0.732   0.492  0.00  0.00    +0.000 C 
ATOM      5  C   UNL     1      -2.699  -1.955  -0.367  0.00  0.00    +0.000 C 
BRANCH   4   7
ATOM      6  C   UNL     1      -1.006   1.160   0.304  0.00  0.00    +0.000 C 
ATOM      7  C   UNL     1      -1.833   0.293   0.390  0.00  0.00    +0.000 C 
BRANCH   6   8
ATOM      8  C   UNL     1       0.052   2.264   0.192  0.00  0.00    +0.000 C 
BRANCH   8   9
ATOM      9  C   UNL     1       0.953   3.191   0.093  0.00  0.00    +0.000 C 
ATOM     10  C   UNL     1       0.752   4.340  -0.846  0.00  0.00    +0.000 C 
BRANCH   9  12
ATOM     11  C   UNL     1       3.220   2.942   1.383  0.00  0.00    +0.000 C 
ATOM     12  C   UNL     1       2.181   3.056   0.788  0.00  0.00    +0.000 C 
BRANCH  11  18
ATOM     13  C   UNL     1       4.423   2.741   3.572  0.00  0.00    +0.000 C 
ATOM     14  C   UNL     1       5.690   2.812   1.301  0.00  0.00    +0.000 C 
ATOM     15  C   UNL     1       5.753   2.313   4.027  0.00  0.00    +0.000 C 
ATOM     16  C   UNL     1       7.027   2.041   3.494  0.00  0.00    +0.000 C 
ATOM     17  C   UNL     1       6.786   2.339   2.137  0.00  0.00    +0.000 C 
ATOM     18  C   UNL     1       4.359   2.821   2.036  0.00  0.00    +0.000 C 
ATOM     19  C   UNL     1       4.087   4.140   4.154  0.00  0.00    +0.000 C 
ATOM     20  C   UNL     1       3.380   1.695   4.072  0.00  0.00    +0.000 C 
ATOM     21  C   UNL     1       5.995   4.190   0.707  0.00  0.00    +0.000 C 
BRANCH  14  22
ATOM     22  O   UNL     1       5.597   1.950   0.189  0.00  0.00    +0.000 OA
ATOM     23  H   UNL     1       5.196   1.158   0.591  0.00  0.00    +0.000 HD
ENDBRANCH  14  22
BRANCH  16  24
ATOM     24  O   UNL     1       8.151   2.544   4.136  0.00  0.00    +0.000 OA
BRANCH  24  26
ATOM     25  O   UNL     1       7.869   4.869   3.998  0.00  0.00    +0.000 OA
ATOM     26  C   UNL     1       8.398   3.809   3.716  0.00  0.00    +0.000 C 
ATOM     27  C   UNL     1       9.504   3.917   2.726  0.00  0.00    +0.000 C 
ENDBRANCH  24  26
ENDBRANCH  16  24
ENDBRANCH  11  18
ENDBRANCH   9  12
ENDBRANCH   8   9
ENDBRANCH   6   8
ENDBRANCH   4   7
ENDBRANCH   3   4
ENDBRANCH   2   3
BRANCH   1  28
ATOM     28  C   UNL     1      -7.115  -0.152   3.959  0.00  0.00    +0.000 C 
BRANCH  28  29
ATOM     29  C   UNL     1      -8.113  -0.036   4.776  0.00  0.00    +0.000 C 
ATOM     30  C   UNL     1      -7.866   0.259   6.224  0.00  0.00    +0.000 C 
BRANCH  29  32
ATOM     31  C   UNL     1     -10.560  -0.377   3.914  0.00  0.00    +0.000 C 
ATOM     32  C   UNL     1      -9.434  -0.226   4.305  0.00  0.00    +0.000 C 
BRANCH  31  33
ATOM     33  C   UNL     1     -12.002  -0.559   3.426  0.00  0.00    +0.000 C 
BRANCH  33  34
ATOM     34  C   UNL     1     -13.222  -0.711   3.004  0.00  0.00    +0.000 C 
ATOM     35  C   UNL     1     -14.312  -0.723   4.056  0.00  0.00    +0.000 C 
BRANCH  34  37
ATOM     36  O   UNL     1     -14.590  -0.655   1.045  0.00  0.00    +0.000 OA
ATOM     37  C   UNL     1     -13.500  -0.910   1.548  0.00  0.00    +0.000 C 
BRANCH  37  38
ATOM     38  C   UNL     1     -12.480  -1.413   0.659  0.00  0.00    +0.000 C 
BRANCH  38  40
ATOM     39  O   UNL     1     -11.274  -1.067  -1.359  0.00  0.00    +0.000 OA
ATOM     40  C   UNL     1     -11.446  -1.942  -0.210  0.00  0.00    +0.000 C 
ATOM     41  C   UNL     1     -10.170  -1.110  -0.458  0.00  0.00    +0.000 C 
ATOM     42  C   UNL     1     -11.387  -3.487  -0.490  0.00  0.00    +0.000 C 
ATOM     43  C   UNL     1      -9.046  -1.790  -1.015  0.00  0.00    +0.000 C 
ATOM     44  C   UNL     1     -10.100  -3.755  -1.135  0.00  0.00    +0.000 C 
ATOM     45  C   UNL     1      -8.879  -3.120  -1.438  0.00  0.00    +0.000 C 
ATOM     46  C   UNL     1      -9.900   0.227   0.237  0.00  0.00    +0.000 C 
ATOM     47  C   UNL     1     -11.467  -4.162   0.900  0.00  0.00    +0.000 C 
ATOM     48  C   UNL     1     -12.614  -3.805  -1.374  0.00  0.00    +0.000 C 
BRANCH  45  49
ATOM     49  O   UNL     1      -7.692  -3.781  -1.343  0.00  0.00    +0.000 OA
ATOM     50  H   UNL     1      -7.731  -4.527  -0.719  0.00  0.00    +0.000 HD
ENDBRANCH  45  49
ENDBRANCH  38  40
ENDBRANCH  37  38
ENDBRANCH  34  37
ENDBRANCH  33  34
ENDBRANCH  31  33
ENDBRANCH  29  32
ENDBRANCH  28  29
ENDBRANCH   1  28
TORSDOF 19
ENDMDL
MODEL 4
REMARK VINA RESULT:      -5.9     13.580     18.303
REMARK  Name = 5281239_Fucoxanthin.pdbqt.pdb
REMARK  19 active torsions:
REMARK  status: ('A' for Active; 'I' for Inactive)
REMARK    1  A    between atoms: C_1  and  C_5
REMARK    2  A    between atoms: C_2  and  C_26
REMARK    3  A    between atoms: C_3  and  C_5
REMARK    4  A    between atoms: C_3  and  C_7
REMARK    5  A    between atoms: C_6  and  C_10
REMARK    6  A    between atoms: C_8  and  C_10
REMARK    7  A    between atoms: C_8  and  C_12
REMARK    8  A    between atoms: C_12  and  C_13
REMARK    9  A    between atoms: C_13  and  C_15
REMARK   10  A    between atoms: C_20  and  O_24
REMARK   11  A    between atoms: C_26  and  C_27
REMARK   12  A    between atoms: C_27  and  C_30
REMARK   13  A    between atoms: C_29  and  C_33
REMARK   14  A    between atoms: C_31  and  C_33
REMARK   15  A    between atoms: C_31  and  C_44
REMARK   16  A    between atoms: C_35  and  O_45
REMARK   17  A    between atoms: C_37  and  O_47
REMARK   18  A    between atoms: C_39  and  C_43
REMARK   19  A    between atoms: O_47  and  C_49
REMARK                            x       y       z     vdW  Elec       q    Type
REMARK                         _______ _______ _______ _____ _____    ______ ____
ROOT
ATOM      1  C   UNL     1       1.717 -11.415 -21.657  0.00  0.00    +0.000 C 
ATOM      2  C   UNL     1       1.494 -12.469 -21.127  0.00  0.00    +0.000 C 
ENDROOT
BRANCH   2   3
ATOM      3  C   UNL     1       1.204 -13.812 -20.446  0.00  0.00    +0.000 C 
BRANCH   3   4
ATOM      4  C   UNL     1       0.955 -14.946 -19.872  0.00  0.00    +0.000 C 
ATOM      5  C   UNL     1       0.423 -16.092 -20.678  0.00  0.00    +0.000 C 
BRANCH   4   7
ATOM      6  C   UNL     1       1.471 -15.264 -17.326  0.00  0.00    +0.000 C 
ATOM      7  C   UNL     1       1.233 -15.117 -18.494  0.00  0.00    +0.000 C 
BRANCH   6   8
ATOM      8  C   UNL     1       1.780 -15.452 -15.837  0.00  0.00    +0.000 C 
BRANCH   8   9
ATOM      9  C   UNL     1       2.045 -15.621 -14.579  0.00  0.00    +0.000 C 
ATOM     10  C   UNL     1       3.010 -14.711 -13.882  0.00  0.00    +0.000 C 
BRANCH   9  12
ATOM     11  C   UNL     1       1.050 -17.682 -13.304  0.00  0.00    +0.000 C 
ATOM     12  C   UNL     1       1.509 -16.738 -13.890  0.00  0.00    +0.000 C 
BRANCH  11  18
ATOM     13  C   UNL     1       1.249 -19.349 -11.444  0.00  0.00    +0.000 C 
ATOM     14  C   UNL     1      -0.741 -19.380 -13.119  0.00  0.00    +0.000 C 
ATOM     15  C   UNL     1       0.354 -20.272 -10.733  0.00  0.00    +0.000 C 
ATOM     16  C   UNL     1      -0.929 -20.834 -10.873  0.00  0.00    +0.000 C 
ATOM     17  C   UNL     1      -1.305 -20.265 -12.106  0.00  0.00    +0.000 C 
ATOM     18  C   UNL     1       0.547 -18.716 -12.658  0.00  0.00    +0.000 C 
ATOM     19  C   UNL     1       2.508 -20.108 -11.941  0.00  0.00    +0.000 C 
ATOM     20  C   UNL     1       1.668 -18.221 -10.452  0.00  0.00    +0.000 C 
ATOM     21  C   UNL     1      -0.533 -20.112 -14.447  0.00  0.00    +0.000 C 
BRANCH  14  22
ATOM     22  O   UNL     1      -1.700 -18.384 -13.399  0.00  0.00    +0.000 OA
ATOM     23  H   UNL     1      -2.016 -18.663 -14.278  0.00  0.00    +0.000 HD
ENDBRANCH  14  22
BRANCH  16  24
ATOM     24  O   UNL     1      -1.102 -22.193 -10.643  0.00  0.00    +0.000 OA
BRANCH  24  26
ATOM     25  O   UNL     1      -3.208 -21.996  -9.629  0.00  0.00    +0.000 OA
ATOM     26  C   UNL     1      -2.412 -22.463 -10.423  0.00  0.00    +0.000 C 
ATOM     27  C   UNL     1      -2.970 -23.528 -11.300  0.00  0.00    +0.000 C 
ENDBRANCH  24  26
ENDBRANCH  16  24
ENDBRANCH  11  18
ENDBRANCH   9  12
ENDBRANCH   8   9
ENDBRANCH   6   8
ENDBRANCH   4   7
ENDBRANCH   3   4
ENDBRANCH   2   3
BRANCH   1  28
ATOM     28  C   UNL     1       1.994 -10.065 -22.328  0.00  0.00    +0.000 C 
BRANCH  28  29
ATOM     29  C   UNL     1       2.235  -8.930 -22.902  0.00  0.00    +0.000 C 
ATOM     30  C   UNL     1       2.991  -8.889 -24.195  0.00  0.00    +0.000 C 
BRANCH  29  32
ATOM     31  C   UNL     1       1.469  -6.708 -21.752  0.00  0.00    +0.000 C 
ATOM     32  C   UNL     1       1.816  -7.726 -22.286  0.00  0.00    +0.000 C 
BRANCH  31  33
ATOM     33  C   UNL     1       1.035  -5.412 -21.057  0.00  0.00    +0.000 C 
BRANCH  33  34
ATOM     34  C   UNL     1       0.673  -4.308 -20.473  0.00  0.00    +0.000 C 
ATOM     35  C   UNL     1      -0.419  -3.504 -21.150  0.00  0.00    +0.000 C 
BRANCH  34  37
ATOM     36  O   UNL     1       1.412  -4.559 -18.215  0.00  0.00    +0.000 OA
ATOM     37  C   UNL     1       1.352  -3.857 -19.220  0.00  0.00    +0.000 C 
BRANCH  37  38
ATOM     38  C   UNL     1       1.979  -2.559 -19.140  0.00  0.00    +0.000 C 
BRANCH  38  40
ATOM     39  O   UNL     1       2.561  -0.639 -20.412  0.00  0.00    +0.000 OA
ATOM     40  C   UNL     1       2.595  -1.247 -19.092  0.00  0.00    +0.000 C 
ATOM     41  C   UNL     1       1.746  -0.003 -19.429  0.00  0.00    +0.000 C 
ATOM     42  C   UNL     1       3.910  -1.040 -18.258  0.00  0.00    +0.000 C 
ATOM     43  C   UNL     1       2.266   1.268 -19.039  0.00  0.00    +0.000 C 
ATOM     44  C   UNL     1       4.123   0.405 -18.149  0.00  0.00    +0.000 C 
ATOM     45  C   UNL     1       3.472   1.626 -18.413  0.00  0.00    +0.000 C 
ATOM     46  C   UNL     1       0.249  -0.076 -19.742  0.00  0.00    +0.000 C 
ATOM     47  C   UNL     1       3.625  -1.669 -16.873  0.00  0.00    +0.000 C 
ATOM     48  C   UNL     1       5.022  -1.786 -19.028  0.00  0.00    +0.000 C 
BRANCH  45  49
ATOM     49  O   UNL     1       3.576   2.684 -17.563  0.00  0.00    +0.000 OA
ATOM     50  H   UNL     1       2.812   3.286 -17.624  0.00  0.00    +0.000 HD
ENDBRANCH  45  49
ENDBRANCH  38  40
ENDBRANCH  37  38
ENDBRANCH  34  37
ENDBRANCH  33  34
ENDBRANCH  31  33
ENDBRANCH  29  32
ENDBRANCH  28  29
ENDBRANCH   1  28
TORSDOF 19
ENDMDL
MODEL 5
REMARK VINA RESULT:      -5.9     11.085     18.149
REMARK  Name = 5281239_Fucoxanthin.pdbqt.pdb
REMARK  19 active torsions:
REMARK  status: ('A' for Active; 'I' for Inactive)
REMARK    1  A    between atoms: C_1  and  C_5
REMARK    2  A    between atoms: C_2  and  C_26
REMARK    3  A    between atoms: C_3  and  C_5
REMARK    4  A    between atoms: C_3  and  C_7
REMARK    5  A    between atoms: C_6  and  C_10
REMARK    6  A    between atoms: C_8  and  C_10
REMARK    7  A    between atoms: C_8  and  C_12
REMARK    8  A    between atoms: C_12  and  C_13
REMARK    9  A    between atoms: C_13  and  C_15
REMARK   10  A    between atoms: C_20  and  O_24
REMARK   11  A    between atoms: C_26  and  C_27
REMARK   12  A    between atoms: C_27  and  C_30
REMARK   13  A    between atoms: C_29  and  C_33
REMARK   14  A    between atoms: C_31  and  C_33
REMARK   15  A    between atoms: C_31  and  C_44
REMARK   16  A    between atoms: C_35  and  O_45
REMARK   17  A    between atoms: C_37  and  O_47
REMARK   18  A    between atoms: C_39  and  C_43
REMARK   19  A    between atoms: O_47  and  C_49
REMARK                            x       y       z     vdW  Elec       q    Type
REMARK                         _______ _______ _______ _____ _____    ______ ____
ROOT
ATOM      1  C   UNL     1      -8.059 -10.622 -25.615  0.00  0.00    +0.000 C 
ATOM      2  C   UNL     1      -8.763 -11.593 -25.584  0.00  0.00    +0.000 C 
ENDROOT
BRANCH   2   3
ATOM      3  C   UNL     1      -9.660 -12.836 -25.537  0.00  0.00    +0.000 C 
BRANCH   3   4
ATOM      4  C   UNL     1     -10.422 -13.884 -25.499  0.00  0.00    +0.000 C 
ATOM      5  C   UNL     1     -10.357 -14.895 -26.604  0.00  0.00    +0.000 C 
BRANCH   4   7
ATOM      6  C   UNL     1     -11.998 -14.281 -23.449  0.00  0.00    +0.000 C 
ATOM      7  C   UNL     1     -11.275 -14.097 -24.390  0.00  0.00    +0.000 C 
BRANCH   6   8
ATOM      8  C   UNL     1     -12.916 -14.518 -22.245  0.00  0.00    +0.000 C 
BRANCH   8   9
ATOM      9  C   UNL     1     -13.701 -14.714 -21.231  0.00  0.00    +0.000 C 
ATOM     10  C   UNL     1     -15.150 -15.023 -21.449  0.00  0.00    +0.000 C 
BRANCH   9  12
ATOM     11  C   UNL     1     -12.793 -14.355 -18.800  0.00  0.00    +0.000 C 
ATOM     12  C   UNL     1     -13.213 -14.520 -19.915  0.00  0.00    +0.000 C 
BRANCH  11  18
ATOM     13  C   UNL     1     -11.712 -15.325 -16.758  0.00  0.00    +0.000 C 
ATOM     14  C   UNL     1     -12.439 -12.830 -16.884  0.00  0.00    +0.000 C 
ATOM     15  C   UNL     1     -11.014 -14.814 -15.571  0.00  0.00    +0.000 C 
ATOM     16  C   UNL     1     -10.811 -13.596 -14.894  0.00  0.00    +0.000 C 
ATOM     17  C   UNL     1     -11.589 -12.742 -15.702  0.00  0.00    +0.000 C 
ATOM     18  C   UNL     1     -12.331 -14.179 -17.578  0.00  0.00    +0.000 C 
ATOM     19  C   UNL     1     -12.847 -16.294 -16.329  0.00  0.00    +0.000 C 
ATOM     20  C   UNL     1     -10.675 -16.082 -17.642  0.00  0.00    +0.000 C 
ATOM     21  C   UNL     1     -13.897 -12.503 -16.549  0.00  0.00    +0.000 C 
BRANCH  14  22
ATOM     22  O   UNL     1     -12.035 -11.817 -17.778  0.00  0.00    +0.000 OA
ATOM     23  H   UNL     1     -12.751 -11.846 -18.439  0.00  0.00    +0.000 HD
ENDBRANCH  14  22
BRANCH  16  24
ATOM     24  O   UNL     1     -10.934 -13.561 -13.511  0.00  0.00    +0.000 OA
BRANCH  24  26
ATOM     25  O   UNL     1      -8.845 -12.600 -13.049  0.00  0.00    +0.000 OA
ATOM     26  C   UNL     1     -10.059 -12.667 -12.990  0.00  0.00    +0.000 C 
ATOM     27  C   UNL     1     -10.697 -11.584 -12.194  0.00  0.00    +0.000 C 
ENDBRANCH  24  26
ENDBRANCH  16  24
ENDBRANCH  11  18
ENDBRANCH   9  12
ENDBRANCH   8   9
ENDBRANCH   6   8
ENDBRANCH   4   7
ENDBRANCH   3   4
ENDBRANCH   2   3
BRANCH   1  28
ATOM     28  C   UNL     1      -7.153  -9.386 -25.647  0.00  0.00    +0.000 C 
BRANCH  28  29
ATOM     29  C   UNL     1      -6.381  -8.346 -25.667  0.00  0.00    +0.000 C 
ATOM     30  C   UNL     1      -5.138  -8.351 -26.504  0.00  0.00    +0.000 C 
BRANCH  29  32
ATOM     31  C   UNL     1      -6.951  -6.271 -24.179  0.00  0.00    +0.000 C 
ATOM     32  C   UNL     1      -6.695  -7.221 -24.867  0.00  0.00    +0.000 C 
BRANCH  31  33
ATOM     33  C   UNL     1      -7.267  -5.063 -23.289  0.00  0.00    +0.000 C 
BRANCH  33  34
ATOM     34  C   UNL     1      -7.526  -4.038 -22.532  0.00  0.00    +0.000 C 
ATOM     35  C   UNL     1      -6.354  -3.413 -21.804  0.00  0.00    +0.000 C 
BRANCH  34  37
ATOM     36  O   UNL     1      -9.835  -3.887 -23.131  0.00  0.00    +0.000 OA
ATOM     37  C   UNL     1      -8.931  -3.552 -22.371  0.00  0.00    +0.000 C 
BRANCH  37  38
ATOM     38  C   UNL     1      -9.289  -2.657 -21.297  0.00  0.00    +0.000 C 
BRANCH  38  40
ATOM     39  O   UNL     1      -9.213  -0.428 -20.479  0.00  0.00    +0.000 OA
ATOM     40  C   UNL     1      -9.674  -1.780 -20.207  0.00  0.00    +0.000 C 
ATOM     41  C   UNL     1     -10.629  -0.601 -20.489  0.00  0.00    +0.000 C 
ATOM     42  C   UNL     1      -9.538  -2.283 -18.725  0.00  0.00    +0.000 C 
ATOM     43  C   UNL     1     -11.255   0.015 -19.364  0.00  0.00    +0.000 C 
ATOM     44  C   UNL     1     -10.263  -1.329 -17.883  0.00  0.00    +0.000 C 
ATOM     45  C   UNL     1     -11.137  -0.229 -17.985  0.00  0.00    +0.000 C 
ATOM     46  C   UNL     1     -11.261  -0.352 -21.861  0.00  0.00    +0.000 C 
ATOM     47  C   UNL     1     -10.211  -3.676 -18.698  0.00  0.00    +0.000 C 
ATOM     48  C   UNL     1      -8.022  -2.352 -18.438  0.00  0.00    +0.000 C 
BRANCH  45  49
ATOM     49  O   UNL     1     -12.170  -0.059 -17.115  0.00  0.00    +0.000 OA
ATOM     50  H   UNL     1     -12.593  -0.902 -16.870  0.00  0.00    +0.000 HD
ENDBRANCH  45  49
ENDBRANCH  38  40
ENDBRANCH  37  38
ENDBRANCH  34  37
ENDBRANCH  33  34
ENDBRANCH  31  33
ENDBRANCH  29  32
ENDBRANCH  28  29
ENDBRANCH   1  28
TORSDOF 19
ENDMDL
MODEL 6
REMARK VINA RESULT:      -5.8     19.923     23.843
REMARK  Name = 5281239_Fucoxanthin.pdbqt.pdb
REMARK  19 active torsions:
REMARK  status: ('A' for Active; 'I' for Inactive)
REMARK    1  A    between atoms: C_1  and  C_5
REMARK    2  A    between atoms: C_2  and  C_26
REMARK    3  A    between atoms: C_3  and  C_5
REMARK    4  A    between atoms: C_3  and  C_7
REMARK    5  A    between atoms: C_6  and  C_10
REMARK    6  A    between atoms: C_8  and  C_10
REMARK    7  A    between atoms: C_8  and  C_12
REMARK    8  A    between atoms: C_12  and  C_13
REMARK    9  A    between atoms: C_13  and  C_15
REMARK   10  A    between atoms: C_20  and  O_24
REMARK   11  A    between atoms: C_26  and  C_27
REMARK   12  A    between atoms: C_27  and  C_30
REMARK   13  A    between atoms: C_29  and  C_33
REMARK   14  A    between atoms: C_31  and  C_33
REMARK   15  A    between atoms: C_31  and  C_44
REMARK   16  A    between atoms: C_35  and  O_45
REMARK   17  A    between atoms: C_37  and  O_47
REMARK   18  A    between atoms: C_39  and  C_43
REMARK   19  A    between atoms: O_47  and  C_49
REMARK                            x       y       z     vdW  Elec       q    Type
REMARK                         _______ _______ _______ _____ _____    ______ ____
ROOT
ATOM      1  C   UNL     1      -1.542  16.889 -16.070  0.00  0.00    +0.000 C 
ATOM      2  C   UNL     1      -0.399  17.081 -16.382  0.00  0.00    +0.000 C 
ENDROOT
BRANCH   2   3
ATOM      3  C   UNL     1       1.063  17.321 -16.775  0.00  0.00    +0.000 C 
BRANCH   3   4
ATOM      4  C   UNL     1       2.298  17.526 -17.112  0.00  0.00    +0.000 C 
ATOM      5  C   UNL     1       2.773  17.143 -18.481  0.00  0.00    +0.000 C 
BRANCH   4   7
ATOM      6  C   UNL     1       3.930  18.694 -15.434  0.00  0.00    +0.000 C 
ATOM      7  C   UNL     1       3.182  18.156 -16.204  0.00  0.00    +0.000 C 
BRANCH   6   8
ATOM      8  C   UNL     1       4.882  19.382 -14.449  0.00  0.00    +0.000 C 
BRANCH   8   9
ATOM      9  C   UNL     1       5.682  19.960 -13.607  0.00  0.00    +0.000 C 
ATOM     10  C   UNL     1       7.108  20.223 -13.983  0.00  0.00    +0.000 C 
BRANCH   9  12
ATOM     11  C   UNL     1       4.859  20.477 -11.174  0.00  0.00    +0.000 C 
ATOM     12  C   UNL     1       5.238  20.237 -12.290  0.00  0.00    +0.000 C 
BRANCH  11  18
ATOM     13  C   UNL     1       4.557  22.148  -9.332  0.00  0.00    +0.000 C 
ATOM     14  C   UNL     1       3.882  19.651  -9.056  0.00  0.00    +0.000 C 
ATOM     15  C   UNL     1       3.766  22.250  -8.098  0.00  0.00    +0.000 C 
ATOM     16  C   UNL     1       3.004  21.427  -7.247  0.00  0.00    +0.000 C 
ATOM     17  C   UNL     1       3.180  20.187  -7.896  0.00  0.00    +0.000 C 
ATOM     18  C   UNL     1       4.446  20.744  -9.951  0.00  0.00    +0.000 C 
ATOM     19  C   UNL     1       6.051  22.438  -9.029  0.00  0.00    +0.000 C 
ATOM     20  C   UNL     1       4.009  23.198 -10.347  0.00  0.00    +0.000 C 
ATOM     21  C   UNL     1       4.979  18.667  -8.640  0.00  0.00    +0.000 C 
BRANCH  14  22
ATOM     22  O   UNL     1       2.962  18.878  -9.794  0.00  0.00    +0.000 OA
ATOM     23  H   UNL     1       3.559  18.325 -10.329  0.00  0.00    +0.000 HD
ENDBRANCH  14  22
BRANCH  16  24
ATOM     24  O   UNL     1       3.174  21.532  -5.873  0.00  0.00    +0.000 OA
BRANCH  24  26
ATOM     25  O   UNL     1       1.587  20.435  -4.537  0.00  0.00    +0.000 OA
ATOM     26  C   UNL     1       1.988  21.342  -5.244  0.00  0.00    +0.000 C 
ATOM     27  C   UNL     1       0.999  22.432  -5.467  0.00  0.00    +0.000 C 
ENDBRANCH  24  26
ENDBRANCH  16  24
ENDBRANCH  11  18
ENDBRANCH   9  12
ENDBRANCH   8   9
ENDBRANCH   6   8
ENDBRANCH   4   7
ENDBRANCH   3   4
ENDBRANCH   2   3
BRANCH   1  28
ATOM     28  C   UNL     1      -2.998  16.635 -15.665  0.00  0.00    +0.000 C 
BRANCH  28  29
ATOM     29  C   UNL     1      -4.233  16.429 -15.330  0.00  0.00    +0.000 C 
ATOM     30  C   UNL     1      -5.093  15.524 -16.158  0.00  0.00    +0.000 C 
BRANCH  29  32
ATOM     31  C   UNL     1      -5.226  17.650 -13.240  0.00  0.00    +0.000 C 
ATOM     32  C   UNL     1      -4.776  17.092 -14.204  0.00  0.00    +0.000 C 
BRANCH  31  33
ATOM     33  C   UNL     1      -5.789  18.356 -12.000  0.00  0.00    +0.000 C 
BRANCH  33  34
ATOM     34  C   UNL     1      -6.259  18.961 -10.950  0.00  0.00    +0.000 C 
ATOM     35  C   UNL     1      -7.684  19.467 -11.035  0.00  0.00    +0.000 C 
BRANCH  34  37
ATOM     36  O   UNL     1      -5.742  18.840  -8.620  0.00  0.00    +0.000 OA
ATOM     37  C   UNL     1      -5.394  19.173  -9.748  0.00  0.00    +0.000 C 
BRANCH  37  38
ATOM     38  C   UNL     1      -4.092  19.785  -9.869  0.00  0.00    +0.000 C 
BRANCH  38  40
ATOM     39  O   UNL     1      -2.371  20.994  -8.764  0.00  0.00    +0.000 OA
ATOM     40  C   UNL     1      -2.788  20.400 -10.025  0.00  0.00    +0.000 C 
ATOM     41  C   UNL     1      -1.601  19.872  -9.192  0.00  0.00    +0.000 C 
ATOM     42  C   UNL     1      -2.471  21.222 -11.326  0.00  0.00    +0.000 C 
ATOM     43  C   UNL     1      -0.290  20.247  -9.613  0.00  0.00    +0.000 C 
ATOM     44  C   UNL     1      -1.025  21.459 -11.339  0.00  0.00    +0.000 C 
ATOM     45  C   UNL     1       0.149  21.073 -10.663  0.00  0.00    +0.000 C 
ATOM     46  C   UNL     1      -1.713  18.666  -8.255  0.00  0.00    +0.000 C 
ATOM     47  C   UNL     1      -2.898  20.312 -12.503  0.00  0.00    +0.000 C 
ATOM     48  C   UNL     1      -3.320  22.508 -11.233  0.00  0.00    +0.000 C 
BRANCH  45  49
ATOM     49  O   UNL     1       1.316  20.858 -11.330  0.00  0.00    +0.000 OA
ATOM     50  H   UNL     1       1.869  20.180 -10.904  0.00  0.00    +0.000 HD
ENDBRANCH  45  49
ENDBRANCH  38  40
ENDBRANCH  37  38
ENDBRANCH  34  37
ENDBRANCH  33  34
ENDBRANCH  31  33
ENDBRANCH  29  32
ENDBRANCH  28  29
ENDBRANCH   1  28
TORSDOF 19
ENDMDL
MODEL 7
REMARK VINA RESULT:      -5.8     17.295     19.913
REMARK  Name = 5281239_Fucoxanthin.pdbqt.pdb
REMARK  19 active torsions:
REMARK  status: ('A' for Active; 'I' for Inactive)
REMARK    1  A    between atoms: C_1  and  C_5
REMARK    2  A    between atoms: C_2  and  C_26
REMARK    3  A    between atoms: C_3  and  C_5
REMARK    4  A    between atoms: C_3  and  C_7
REMARK    5  A    between atoms: C_6  and  C_10
REMARK    6  A    between atoms: C_8  and  C_10
REMARK    7  A    between atoms: C_8  and  C_12
REMARK    8  A    between atoms: C_12  and  C_13
REMARK    9  A    between atoms: C_13  and  C_15
REMARK   10  A    between atoms: C_20  and  O_24
REMARK   11  A    between atoms: C_26  and  C_27
REMARK   12  A    between atoms: C_27  and  C_30
REMARK   13  A    between atoms: C_29  and  C_33
REMARK   14  A    between atoms: C_31  and  C_33
REMARK   15  A    between atoms: C_31  and  C_44
REMARK   16  A    between atoms: C_35  and  O_45
REMARK   17  A    between atoms: C_37  and  O_47
REMARK   18  A    between atoms: C_39  and  C_43
REMARK   19  A    between atoms: O_47  and  C_49
REMARK                            x       y       z     vdW  Elec       q    Type
REMARK                         _______ _______ _______ _____ _____    ______ ____
ROOT
ATOM      1  C   UNL     1     -14.875  12.337 -16.747  0.00  0.00    +0.000 C 
ATOM      2  C   UNL     1     -14.040  12.354 -17.609  0.00  0.00    +0.000 C 
ENDROOT
BRANCH   2   3
ATOM      3  C   UNL     1     -12.976  12.382 -18.712  0.00  0.00    +0.000 C 
BRANCH   3   4
ATOM      4  C   UNL     1     -12.073  12.403 -19.642  0.00  0.00    +0.000 C 
ATOM      5  C   UNL     1     -12.261  11.588 -20.885  0.00  0.00    +0.000 C 
BRANCH   4   7
ATOM      6  C   UNL     1      -9.972  13.941 -19.385  0.00  0.00    +0.000 C 
ATOM      7  C   UNL     1     -10.937  13.236 -19.505  0.00  0.00    +0.000 C 
BRANCH   6   8
ATOM      8  C   UNL     1      -8.738  14.837 -19.232  0.00  0.00    +0.000 C 
BRANCH   8   9
ATOM      9  C   UNL     1      -7.691  15.593 -19.113  0.00  0.00    +0.000 C 
ATOM     10  C   UNL     1      -6.804  15.844 -20.293  0.00  0.00    +0.000 C 
BRANCH   9  12
ATOM     11  C   UNL     1      -7.009  16.510 -16.755  0.00  0.00    +0.000 C 
ATOM     12  C   UNL     1      -7.321  16.086 -17.837  0.00  0.00    +0.000 C 
BRANCH  11  18
ATOM     13  C   UNL     1      -5.612  16.287 -14.688  0.00  0.00    +0.000 C 
ATOM     14  C   UNL     1      -7.337  18.210 -14.988  0.00  0.00    +0.000 C 
ATOM     15  C   UNL     1      -5.196  17.154 -13.577  0.00  0.00    +0.000 C 
ATOM     16  C   UNL     1      -5.534  18.399 -13.011  0.00  0.00    +0.000 C 
ATOM     17  C   UNL     1      -6.605  18.761 -13.854  0.00  0.00    +0.000 C 
ATOM     18  C   UNL     1      -6.664  16.978 -15.572  0.00  0.00    +0.000 C 
ATOM     19  C   UNL     1      -6.220  14.970 -14.133  0.00  0.00    +0.000 C 
ATOM     20  C   UNL     1      -4.352  15.967 -15.549  0.00  0.00    +0.000 C 
ATOM     21  C   UNL     1      -8.794  17.914 -14.621  0.00  0.00    +0.000 C 
BRANCH  14  22
ATOM     22  O   UNL     1      -7.409  19.212 -15.978  0.00  0.00    +0.000 OA
ATOM     23  H   UNL     1      -6.465  19.360 -16.172  0.00  0.00    +0.000 HD
ENDBRANCH  14  22
BRANCH  16  24
ATOM     24  O   UNL     1      -5.657  18.505 -11.632  0.00  0.00    +0.000 OA
BRANCH  24  26
ATOM     25  O   UNL     1      -3.514  19.249 -11.034  0.00  0.00    +0.000 OA
ATOM     26  C   UNL     1      -4.721  19.358 -11.147  0.00  0.00    +0.000 C 
ATOM     27  C   UNL     1      -5.272  20.650 -10.656  0.00  0.00    +0.000 C 
ENDBRANCH  24  26
ENDBRANCH  16  24
ENDBRANCH  11  18
ENDBRANCH   9  12
ENDBRANCH   8   9
ENDBRANCH   6   8
ENDBRANCH   4   7
ENDBRANCH   3   4
ENDBRANCH   2   3
BRANCH   1  28
ATOM     28  C   UNL     1     -15.942  12.326 -15.647  0.00  0.00    +0.000 C 
BRANCH  28  29
ATOM     29  C   UNL     1     -16.847  12.306 -14.720  0.00  0.00    +0.000 C 
ATOM     30  C   UNL     1     -17.746  13.489 -14.525  0.00  0.00    +0.000 C 
BRANCH  29  32
ATOM     31  C   UNL     1     -17.047  10.234 -13.136  0.00  0.00    +0.000 C 
ATOM     32  C   UNL     1     -16.958  11.181 -13.869  0.00  0.00    +0.000 C 
BRANCH  31  33
ATOM     33  C   UNL     1     -17.154   9.033 -12.188  0.00  0.00    +0.000 C 
BRANCH  33  34
ATOM     34  C   UNL     1     -17.253   8.017 -11.382  0.00  0.00    +0.000 C 
ATOM     35  C   UNL     1     -18.347   8.080 -10.336  0.00  0.00    +0.000 C 
BRANCH  34  37
ATOM     36  O   UNL     1     -16.607   5.786 -11.943  0.00  0.00    +0.000 OA
ATOM     37  C   UNL     1     -16.290   6.877 -11.480  0.00  0.00    +0.000 C 
BRANCH  37  38
ATOM     38  C   UNL     1     -14.926   7.017 -11.028  0.00  0.00    +0.000 C 
BRANCH  38  40
ATOM     39  O   UNL     1     -12.978   8.363 -11.211  0.00  0.00    +0.000 OA
ATOM     40  C   UNL     1     -13.560   7.191 -10.576  0.00  0.00    +0.000 C 
ATOM     41  C   UNL     1     -13.179   8.472  -9.803  0.00  0.00    +0.000 C 
ATOM     42  C   UNL     1     -12.626   5.936 -10.431  0.00  0.00    +0.000 C 
ATOM     43  C   UNL     1     -11.948   8.457  -9.080  0.00  0.00    +0.000 C 
ATOM     44  C   UNL     1     -11.440   6.369  -9.689  0.00  0.00    +0.000 C 
ATOM     45  C   UNL     1     -10.953   7.472  -8.960  0.00  0.00    +0.000 C 
ATOM     46  C   UNL     1     -14.200   9.546  -9.417  0.00  0.00    +0.000 C 
ATOM     47  C   UNL     1     -13.446   4.903  -9.619  0.00  0.00    +0.000 C 
ATOM     48  C   UNL     1     -12.331   5.458 -11.869  0.00  0.00    +0.000 C 
BRANCH  45  49
ATOM     49  O   UNL     1     -10.213   7.306  -7.829  0.00  0.00    +0.000 OA
ATOM     50  H   UNL     1      -9.996   6.372  -7.661  0.00  0.00    +0.000 HD
ENDBRANCH  45  49
ENDBRANCH  38  40
ENDBRANCH  37  38
ENDBRANCH  34  37
ENDBRANCH  33  34
ENDBRANCH  31  33
ENDBRANCH  29  32
ENDBRANCH  28  29
ENDBRANCH   1  28
TORSDOF 19
ENDMDL
MODEL 8
REMARK VINA RESULT:      -5.8     18.260     25.216
REMARK  Name = 5281239_Fucoxanthin.pdbqt.pdb
REMARK  19 active torsions:
REMARK  status: ('A' for Active; 'I' for Inactive)
REMARK    1  A    between atoms: C_1  and  C_5
REMARK    2  A    between atoms: C_2  and  C_26
REMARK    3  A    between atoms: C_3  and  C_5
REMARK    4  A    between atoms: C_3  and  C_7
REMARK    5  A    between atoms: C_6  and  C_10
REMARK    6  A    between atoms: C_8  and  C_10
REMARK    7  A    between atoms: C_8  and  C_12
REMARK    8  A    between atoms: C_12  and  C_13
REMARK    9  A    between atoms: C_13  and  C_15
REMARK   10  A    between atoms: C_20  and  O_24
REMARK   11  A    between atoms: C_26  and  C_27
REMARK   12  A    between atoms: C_27  and  C_30
REMARK   13  A    between atoms: C_29  and  C_33
REMARK   14  A    between atoms: C_31  and  C_33
REMARK   15  A    between atoms: C_31  and  C_44
REMARK   16  A    between atoms: C_35  and  O_45
REMARK   17  A    between atoms: C_37  and  O_47
REMARK   18  A    between atoms: C_39  and  C_43
REMARK   19  A    between atoms: O_47  and  C_49
REMARK                            x       y       z     vdW  Elec       q    Type
REMARK                         _______ _______ _______ _____ _____    ______ ____
ROOT
ATOM      1  C   UNL     1       9.752 -14.277  -1.801  0.00  0.00    +0.000 C 
ATOM      2  C   UNL     1       8.616 -14.603  -1.596  0.00  0.00    +0.000 C 
ENDROOT
BRANCH   2   3
ATOM      3  C   UNL     1       7.166 -15.028  -1.334  0.00  0.00    +0.000 C 
BRANCH   3   4
ATOM      4  C   UNL     1       5.941 -15.389  -1.117  0.00  0.00    +0.000 C 
ATOM      5  C   UNL     1       5.229 -14.916   0.114  0.00  0.00    +0.000 C 
BRANCH   4   7
ATOM      6  C   UNL     1       4.684 -16.863  -2.876  0.00  0.00    +0.000 C 
ATOM      7  C   UNL     1       5.261 -16.188  -2.067  0.00  0.00    +0.000 C 
BRANCH   6   8
ATOM      8  C   UNL     1       3.950 -17.723  -3.912  0.00  0.00    +0.000 C 
BRANCH   8   9
ATOM      9  C   UNL     1       3.326 -18.456  -4.780  0.00  0.00    +0.000 C 
ATOM     10  C   UNL     1       2.317 -19.466  -4.327  0.00  0.00    +0.000 C 
BRANCH   9  12
ATOM     11  C   UNL     1       3.983 -18.315  -7.312  0.00  0.00    +0.000 C 
ATOM     12  C   UNL     1       3.682 -18.383  -6.150  0.00  0.00    +0.000 C 
BRANCH  11  18
ATOM     13  C   UNL     1       3.437 -18.858  -9.697  0.00  0.00    +0.000 C 
ATOM     14  C   UNL     1       5.604 -17.583  -9.031  0.00  0.00    +0.000 C 
ATOM     15  C   UNL     1       3.852 -18.384 -11.024  0.00  0.00    +0.000 C 
ATOM     16  C   UNL     1       4.868 -17.606 -11.611  0.00  0.00    +0.000 C 
ATOM     17  C   UNL     1       5.626 -17.300 -10.462  0.00  0.00    +0.000 C 
ATOM     18  C   UNL     1       4.308 -18.241  -8.588  0.00  0.00    +0.000 C 
ATOM     19  C   UNL     1       3.562 -20.403  -9.622  0.00  0.00    +0.000 C 
ATOM     20  C   UNL     1       1.953 -18.435  -9.474  0.00  0.00    +0.000 C 
ATOM     21  C   UNL     1       6.815 -18.422  -8.610  0.00  0.00    +0.000 C 
BRANCH  14  22
ATOM     22  O   UNL     1       5.758 -16.357  -8.350  0.00  0.00    +0.000 OA
ATOM     23  H   UNL     1       4.992 -16.375  -7.746  0.00  0.00    +0.000 HD
ENDBRANCH  14  22
BRANCH  16  24
ATOM     24  O   UNL     1       5.492 -18.065 -12.763  0.00  0.00    +0.000 OA
BRANCH  24  26
ATOM     25  O   UNL     1       4.953 -16.580 -14.498  0.00  0.00    +0.000 OA
ATOM     26  C   UNL     1       5.674 -17.039 -13.632  0.00  0.00    +0.000 C 
ATOM     27  C   UNL     1       6.994 -16.364 -13.508  0.00  0.00    +0.000 C 
ENDBRANCH  24  26
ENDBRANCH  16  24
ENDBRANCH  11  18
ENDBRANCH   9  12
ENDBRANCH   8   9
ENDBRANCH   6   8
ENDBRANCH   4   7
ENDBRANCH   3   4
ENDBRANCH   2   3
BRANCH   1  28
ATOM     28  C   UNL     1      11.207 -13.869  -2.064  0.00  0.00    +0.000 C 
BRANCH  28  29
ATOM     29  C   UNL     1      12.435 -13.516  -2.277  0.00  0.00    +0.000 C 
ATOM     30  C   UNL     1      13.553 -14.461  -1.955  0.00  0.00    +0.000 C 
BRANCH  29  32
ATOM     31  C   UNL     1      12.945 -11.125  -3.208  0.00  0.00    +0.000 C 
ATOM     32  C   UNL     1      12.719 -12.224  -2.779  0.00  0.00    +0.000 C 
BRANCH  31  33
ATOM     33  C   UNL     1      13.219  -9.720  -3.758  0.00  0.00    +0.000 C 
BRANCH  33  34
ATOM     34  C   UNL     1      13.442  -8.529  -4.228  0.00  0.00    +0.000 C 
ATOM     35  C   UNL     1      14.046  -7.520  -3.272  0.00  0.00    +0.000 C 
BRANCH  34  37
ATOM     36  O   UNL     1      13.588  -8.730  -6.604  0.00  0.00    +0.000 OA
ATOM     37  C   UNL     1      13.068  -8.187  -5.635  0.00  0.00    +0.000 C 
BRANCH  37  38
ATOM     38  C   UNL     1      12.061  -7.191  -5.914  0.00  0.00    +0.000 C 
BRANCH  38  40
ATOM     39  O   UNL     1       9.754  -6.794  -6.322  0.00  0.00    +0.000 OA
ATOM     40  C   UNL     1      11.069  -6.179  -6.221  0.00  0.00    +0.000 C 
ATOM     41  C   UNL     1       9.929  -5.911  -5.216  0.00  0.00    +0.000 C 
ATOM     42  C   UNL     1      11.403  -5.063  -7.275  0.00  0.00    +0.000 C 
ATOM     43  C   UNL     1       9.192  -4.698  -5.373  0.00  0.00    +0.000 C 
ATOM     44  C   UNL     1      10.362  -4.039  -7.157  0.00  0.00    +0.000 C 
ATOM     45  C   UNL     1       9.281  -3.674  -6.331  0.00  0.00    +0.000 C 
ATOM     46  C   UNL     1       9.834  -6.612  -3.858  0.00  0.00    +0.000 C 
ATOM     47  C   UNL     1      12.785  -4.503  -6.860  0.00  0.00    +0.000 C 
ATOM     48  C   UNL     1      11.439  -5.771  -8.647  0.00  0.00    +0.000 C 
BRANCH  45  49
ATOM     49  O   UNL     1       9.016  -2.370  -6.042  0.00  0.00    +0.000 OA
ATOM     50  H   UNL     1       9.480  -1.756  -6.638  0.00  0.00    +0.000 HD
ENDBRANCH  45  49
ENDBRANCH  38  40
ENDBRANCH  37  38
ENDBRANCH  34  37
ENDBRANCH  33  34
ENDBRANCH  31  33
ENDBRANCH  29  32
ENDBRANCH  28  29
ENDBRANCH   1  28
TORSDOF 19
ENDMDL
MODEL 9
REMARK VINA RESULT:      -5.8     20.409     23.919
REMARK  Name = 5281239_Fucoxanthin.pdbqt.pdb
REMARK  19 active torsions:
REMARK  status: ('A' for Active; 'I' for Inactive)
REMARK    1  A    between atoms: C_1  and  C_5
REMARK    2  A    between atoms: C_2  and  C_26
REMARK    3  A    between atoms: C_3  and  C_5
REMARK    4  A    between atoms: C_3  and  C_7
REMARK    5  A    between atoms: C_6  and  C_10
REMARK    6  A    between atoms: C_8  and  C_10
REMARK    7  A    between atoms: C_8  and  C_12
REMARK    8  A    between atoms: C_12  and  C_13
REMARK    9  A    between atoms: C_13  and  C_15
REMARK   10  A    between atoms: C_20  and  O_24
REMARK   11  A    between atoms: C_26  and  C_27
REMARK   12  A    between atoms: C_27  and  C_30
REMARK   13  A    between atoms: C_29  and  C_33
REMARK   14  A    between atoms: C_31  and  C_33
REMARK   15  A    between atoms: C_31  and  C_44
REMARK   16  A    between atoms: C_35  and  O_45
REMARK   17  A    between atoms: C_37  and  O_47
REMARK   18  A    between atoms: C_39  and  C_43
REMARK   19  A    between atoms: O_47  and  C_49
REMARK                            x       y       z     vdW  Elec       q    Type
REMARK                         _______ _______ _______ _____ _____    ______ ____
ROOT
ATOM      1  C   UNL     1      10.961   0.620   1.237  0.00  0.00    +0.000 C 
ATOM      2  C   UNL     1      10.493   1.683   0.936  0.00  0.00    +0.000 C 
ENDROOT
BRANCH   2   3
ATOM      3  C   UNL     1       9.899   3.042   0.547  0.00  0.00    +0.000 C 
BRANCH   3   4
ATOM      4  C   UNL     1       9.398   4.190   0.213  0.00  0.00    +0.000 C 
ATOM      5  C   UNL     1       7.920   4.416   0.308  0.00  0.00    +0.000 C 
BRANCH   4   7
ATOM      6  C   UNL     1      10.982   6.134  -0.533  0.00  0.00    +0.000 C 
ATOM      7  C   UNL     1      10.254   5.243  -0.190  0.00  0.00    +0.000 C 
BRANCH   6   8
ATOM      8  C   UNL     1      11.914   7.269  -0.973  0.00  0.00    +0.000 C 
BRANCH   8   9
ATOM      9  C   UNL     1      12.710   8.222  -1.345  0.00  0.00    +0.000 C 
ATOM     10  C   UNL     1      12.505   9.617  -0.837  0.00  0.00    +0.000 C 
BRANCH   9  12
ATOM     11  C   UNL     1      14.551   7.757  -3.150  0.00  0.00    +0.000 C 
ATOM     12  C   UNL     1      13.704   7.968  -2.322  0.00  0.00    +0.000 C 
BRANCH  11  18
ATOM     13  C   UNL     1      16.718   8.430  -4.215  0.00  0.00    +0.000 C 
ATOM     14  C   UNL     1      15.344   6.385  -5.050  0.00  0.00    +0.000 C 
ATOM     15  C   UNL     1      17.727   7.802  -5.077  0.00  0.00    +0.000 C 
ATOM     16  C   UNL     1      17.877   6.661  -5.889  0.00  0.00    +0.000 C 
ATOM     17  C   UNL     1      16.596   6.090  -5.737  0.00  0.00    +0.000 C 
ATOM     18  C   UNL     1      15.479   7.530  -4.059  0.00  0.00    +0.000 C 
ATOM     19  C   UNL     1      16.269   9.786  -4.824  0.00  0.00    +0.000 C 
ATOM     20  C   UNL     1      17.357   8.665  -2.812  0.00  0.00    +0.000 C 
ATOM     21  C   UNL     1      14.212   6.655  -6.046  0.00  0.00    +0.000 C 
BRANCH  14  22
ATOM     22  O   UNL     1      14.950   5.220  -4.360  0.00  0.00    +0.000 OA
ATOM     23  H   UNL     1      14.456   5.598  -3.609  0.00  0.00    +0.000 HD
ENDBRANCH  14  22
BRANCH  16  24
ATOM     24  O   UNL     1      18.441   6.797  -7.151  0.00  0.00    +0.000 OA
BRANCH  24  26
ATOM     25  O   UNL     1      20.468   5.639  -6.911  0.00  0.00    +0.000 OA
ATOM     26  C   UNL     1      19.350   5.813  -7.361  0.00  0.00    +0.000 C 
ATOM     27  C   UNL     1      18.903   4.767  -8.320  0.00  0.00    +0.000 C 
ENDBRANCH  24  26
ENDBRANCH  16  24
ENDBRANCH  11  18
ENDBRANCH   9  12
ENDBRANCH   8   9
ENDBRANCH   6   8
ENDBRANCH   4   7
ENDBRANCH   3   4
ENDBRANCH   2   3
BRANCH   1  28
ATOM     28  C   UNL     1      11.566  -0.738   1.612  0.00  0.00    +0.000 C 
BRANCH  28  29
ATOM     29  C   UNL     1      12.067  -1.888   1.934  0.00  0.00    +0.000 C 
ATOM     30  C   UNL     1      12.745  -2.066   3.259  0.00  0.00    +0.000 C 
BRANCH  29  32
ATOM     31  C   UNL     1      11.948  -3.884   0.247  0.00  0.00    +0.000 C 
ATOM     32  C   UNL     1      12.007  -2.964   1.016  0.00  0.00    +0.000 C 
BRANCH  31  33
ATOM     33  C   UNL     1      11.863  -5.067  -0.725  0.00  0.00    +0.000 C 
BRANCH  33  34
ATOM     34  C   UNL     1      11.790  -6.064  -1.556  0.00  0.00    +0.000 C 
ATOM     35  C   UNL     1      12.723  -7.231  -1.306  0.00  0.00    +0.000 C 
BRANCH  34  37
ATOM     36  O   UNL     1       9.716  -5.556  -2.629  0.00  0.00    +0.000 OA
ATOM     37  C   UNL     1      10.851  -6.012  -2.720  0.00  0.00    +0.000 C 
BRANCH  37  38
ATOM     38  C   UNL     1      11.250  -6.501  -4.018  0.00  0.00    +0.000 C 
BRANCH  38  40
ATOM     39  O   UNL     1      10.466  -7.343  -6.096  0.00  0.00    +0.000 OA
ATOM     40  C   UNL     1      11.648  -7.025  -5.311  0.00  0.00    +0.000 C 
ATOM     41  C   UNL     1      11.250  -6.258  -6.590  0.00  0.00    +0.000 C 
ATOM     42  C   UNL     1      12.842  -8.041  -5.400  0.00  0.00    +0.000 C 
ATOM     43  C   UNL     1      11.938  -6.595  -7.794  0.00  0.00    +0.000 C 
ATOM     44  C   UNL     1      13.200  -8.157  -6.816  0.00  0.00    +0.000 C 
ATOM     45  C   UNL     1      12.925  -7.560  -8.061  0.00  0.00    +0.000 C 
ATOM     46  C   UNL     1      10.515  -4.915  -6.560  0.00  0.00    +0.000 C 
ATOM     47  C   UNL     1      13.992  -7.400  -4.585  0.00  0.00    +0.000 C 
ATOM     48  C   UNL     1      12.331  -9.355  -4.768  0.00  0.00    +0.000 C 
BRANCH  45  49
ATOM     49  O   UNL     1      13.902  -7.375  -8.992  0.00  0.00    +0.000 OA
ATOM     50  H   UNL     1      14.533  -6.679  -8.736  0.00  0.00    +0.000 HD
ENDBRANCH  45  49
ENDBRANCH  38  40
ENDBRANCH  37  38
ENDBRANCH  34  37
ENDBRANCH  33  34
ENDBRANCH  31  33
ENDBRANCH  29  32
ENDBRANCH  28  29
ENDBRANCH   1  28
TORSDOF 19
ENDMDL
