MODEL 1
REMARK VINA RESULT:      -5.3      0.000      0.000
REMARK  Name = 5281416_Esculetin.pdbqt.pdb
REMARK  2 active torsions:
REMARK  status: ('A' for Active; 'I' for Inactive)
REMARK    1  A    between atoms: C_7  and  O_12
REMARK    2  A    between atoms: C_8  and  O_14
REMARK                            x       y       z     vdW  Elec       q    Type
REMARK                         _______ _______ _______ _____ _____    ______ ____
ROOT
ATOM      1  O   UNL     1       8.829   0.552 -18.813  0.00  0.00    +0.000 OA
ATOM      2  O   UNL     1       7.284   1.414 -20.355  0.00  0.00    +0.000 OA
ATOM      3  C   UNL     1      10.064   2.223 -17.435  0.00  0.00    +0.000 A 
ATOM      4  C   UNL     1       9.801   0.871 -17.790  0.00  0.00    +0.000 A 
ATOM      5  C   UNL     1      10.993   2.536 -16.456  0.00  0.00    +0.000 A 
ATOM      6  C   UNL     1      10.461  -0.181 -17.173  0.00  0.00    +0.000 A 
ATOM      7  C   UNL     1      11.655   1.477 -15.839  0.00  0.00    +0.000 A 
ATOM      8  C   UNL     1      11.392   0.144 -16.192  0.00  0.00    +0.000 A 
ATOM      9  C   UNL     1       9.302   3.170 -18.162  0.00  0.00    +0.000 A 
ATOM     10  C   UNL     1       8.504   2.885 -19.003  0.00  0.00    +0.000 A 
ATOM     11  C   UNL     1       8.119   1.587 -19.482  0.00  0.00    +0.000 A 
ENDROOT
BRANCH   7  12
ATOM     12  O   UNL     1      12.588   1.704 -14.861  0.00  0.00    +0.000 OA
ATOM     13  H   UNL     1      12.799   2.656 -14.865  0.00  0.00    +0.000 HD
ENDBRANCH   7  12
BRANCH   8  14
ATOM     14  O   UNL     1      12.066  -0.864 -15.559  0.00  0.00    +0.000 OA
ATOM     15  H   UNL     1      12.901  -0.461 -15.247  0.00  0.00    +0.000 HD
ENDBRANCH   8  14
TORSDOF 2
ENDMDL
MODEL 2
REMARK VINA RESULT:      -5.2      2.552      3.402
REMARK  Name = 5281416_Esculetin.pdbqt.pdb
REMARK  2 active torsions:
REMARK  status: ('A' for Active; 'I' for Inactive)
REMARK    1  A    between atoms: C_7  and  O_12
REMARK    2  A    between atoms: C_8  and  O_14
REMARK                            x       y       z     vdW  Elec       q    Type
REMARK                         _______ _______ _______ _____ _____    ______ ____
ROOT
ATOM      1  O   UNL     1      11.814   2.762 -18.946  0.00  0.00    +0.000 OA
ATOM      2  O   UNL     1      12.378   3.088 -21.200  0.00  0.00    +0.000 OA
ATOM      3  C   UNL     1      11.634   0.395 -18.183  0.00  0.00    +0.000 A 
ATOM      4  C   UNL     1      11.558   1.788 -17.907  0.00  0.00    +0.000 A 
ATOM      5  C   UNL     1      11.391  -0.544 -17.193  0.00  0.00    +0.000 A 
ATOM      6  C   UNL     1      11.238   2.258 -16.641  0.00  0.00    +0.000 A 
ATOM      7  C   UNL     1      11.070  -0.068 -15.924  0.00  0.00    +0.000 A 
ATOM      8  C   UNL     1      10.995   1.307 -15.656  0.00  0.00    +0.000 A 
ATOM      9  C   UNL     1      11.973   0.089 -19.524  0.00  0.00    +0.000 A 
ATOM     10  C   UNL     1      12.180   0.909 -20.367  0.00  0.00    +0.000 A 
ATOM     11  C   UNL     1      12.147   2.342 -20.263  0.00  0.00    +0.000 A 
ENDROOT
BRANCH   7  12
ATOM     12  O   UNL     1      10.815  -0.932 -14.892  0.00  0.00    +0.000 OA
ATOM     13  H   UNL     1      10.585  -0.401 -14.107  0.00  0.00    +0.000 HD
ENDBRANCH   7  12
BRANCH   8  14
ATOM     14  O   UNL     1      10.676   1.730 -14.395  0.00  0.00    +0.000 OA
ATOM     15  H   UNL     1       9.770   2.093 -14.465  0.00  0.00    +0.000 HD
ENDBRANCH   8  14
TORSDOF 2
ENDMDL
MODEL 3
REMARK VINA RESULT:      -4.8      2.513      2.749
REMARK  Name = 5281416_Esculetin.pdbqt.pdb
REMARK  2 active torsions:
REMARK  status: ('A' for Active; 'I' for Inactive)
REMARK    1  A    between atoms: C_7  and  O_12
REMARK    2  A    between atoms: C_8  and  O_14
REMARK                            x       y       z     vdW  Elec       q    Type
REMARK                         _______ _______ _______ _____ _____    ______ ____
ROOT
ATOM      1  O   UNL     1      11.677  -0.472 -19.793  0.00  0.00    +0.000 OA
ATOM      2  O   UNL     1      12.116  -0.127 -22.072  0.00  0.00    +0.000 OA
ATOM      3  C   UNL     1      11.682   1.560 -18.347  0.00  0.00    +0.000 A 
ATOM      4  C   UNL     1      11.531   0.153 -18.496  0.00  0.00    +0.000 A 
ATOM      5  C   UNL     1      11.543   2.165 -17.108  0.00  0.00    +0.000 A 
ATOM      6  C   UNL     1      11.241  -0.662 -17.412  0.00  0.00    +0.000 A 
ATOM      7  C   UNL     1      11.251   1.343 -16.022  0.00  0.00    +0.000 A 
ATOM      8  C   UNL     1      11.103  -0.044 -16.174  0.00  0.00    +0.000 A 
ATOM      9  C   UNL     1      11.976   2.241 -19.554  0.00  0.00    +0.000 A 
ATOM     10  C   UNL     1      12.093   1.706 -20.614  0.00  0.00    +0.000 A 
ATOM     11  C   UNL     1      11.975   0.311 -20.942  0.00  0.00    +0.000 A 
ENDROOT
BRANCH   7  12
ATOM     12  O   UNL     1      11.099   1.866 -14.765  0.00  0.00    +0.000 OA
ATOM     13  H   UNL     1      10.182   1.696 -14.480  0.00  0.00    +0.000 HD
ENDBRANCH   7  12
BRANCH   8  14
ATOM     14  O   UNL     1      10.817  -0.813 -15.079  0.00  0.00    +0.000 OA
ATOM     15  H   UNL     1      11.656  -0.872 -14.579  0.00  0.00    +0.000 HD
ENDBRANCH   8  14
TORSDOF 2
ENDMDL
MODEL 4
REMARK VINA RESULT:      -4.7     20.889     21.615
REMARK  Name = 5281416_Esculetin.pdbqt.pdb
REMARK  2 active torsions:
REMARK  status: ('A' for Active; 'I' for Inactive)
REMARK    1  A    between atoms: C_7  and  O_12
REMARK    2  A    between atoms: C_8  and  O_14
REMARK                            x       y       z     vdW  Elec       q    Type
REMARK                         _______ _______ _______ _____ _____    ______ ____
ROOT
ATOM      1  O   UNL     1     -10.476  -3.070 -19.569  0.00  0.00    +0.000 OA
ATOM      2  O   UNL     1      -9.864  -4.846 -18.164  0.00  0.00    +0.000 OA
ATOM      3  C   UNL     1     -10.828  -0.861 -18.467  0.00  0.00    +0.000 A 
ATOM      4  C   UNL     1     -10.811  -1.664 -19.641  0.00  0.00    +0.000 A 
ATOM      5  C   UNL     1     -11.148   0.486 -18.528  0.00  0.00    +0.000 A 
ATOM      6  C   UNL     1     -11.114  -1.132 -20.886  0.00  0.00    +0.000 A 
ATOM      7  C   UNL     1     -11.451   1.017 -19.779  0.00  0.00    +0.000 A 
ATOM      8  C   UNL     1     -11.433   0.221 -20.935  0.00  0.00    +0.000 A 
ATOM      9  C   UNL     1     -10.495  -1.562 -17.282  0.00  0.00    +0.000 A 
ATOM     10  C   UNL     1     -10.222  -2.723 -17.244  0.00  0.00    +0.000 A 
ATOM     11  C   UNL     1     -10.157  -3.673 -18.321  0.00  0.00    +0.000 A 
ENDROOT
BRANCH   7  12
ATOM     12  O   UNL     1     -11.777   2.340 -19.923  0.00  0.00    +0.000 OA
ATOM     13  H   UNL     1     -12.364   2.585 -19.184  0.00  0.00    +0.000 HD
ENDBRANCH   7  12
BRANCH   8  14
ATOM     14  O   UNL     1     -11.737   0.784 -22.144  0.00  0.00    +0.000 OA
ATOM     15  H   UNL     1     -12.338   0.147 -22.582  0.00  0.00    +0.000 HD
ENDBRANCH   8  14
TORSDOF 2
ENDMDL
MODEL 5
REMARK VINA RESULT:      -4.7      2.940      4.838
REMARK  Name = 5281416_Esculetin.pdbqt.pdb
REMARK  2 active torsions:
REMARK  status: ('A' for Active; 'I' for Inactive)
REMARK    1  A    between atoms: C_7  and  O_12
REMARK    2  A    between atoms: C_8  and  O_14
REMARK                            x       y       z     vdW  Elec       q    Type
REMARK                         _______ _______ _______ _____ _____    ______ ____
ROOT
ATOM      1  O   UNL     1      11.212   2.357 -16.810  0.00  0.00    +0.000 OA
ATOM      2  O   UNL     1      10.508   1.796 -14.643  0.00  0.00    +0.000 OA
ATOM      3  C   UNL     1      11.604   0.454 -18.373  0.00  0.00    +0.000 A 
ATOM      4  C   UNL     1      11.592   1.852 -18.111  0.00  0.00    +0.000 A 
ATOM      5  C   UNL     1      11.967  -0.037 -19.616  0.00  0.00    +0.000 A 
ATOM      6  C   UNL     1      11.943   2.773 -19.088  0.00  0.00    +0.000 A 
ATOM      7  C   UNL     1      12.318   0.890 -20.594  0.00  0.00    +0.000 A 
ATOM      8  C   UNL     1      12.305   2.269 -20.332  0.00  0.00    +0.000 A 
ATOM      9  C   UNL     1      11.219  -0.344 -17.266  0.00  0.00    +0.000 A 
ATOM     10  C   UNL     1      10.909   0.094 -16.200  0.00  0.00    +0.000 A 
ATOM     11  C   UNL     1      10.842   1.463 -15.768  0.00  0.00    +0.000 A 
ENDROOT
BRANCH   7  12
ATOM     12  O   UNL     1      12.689   0.484 -21.849  0.00  0.00    +0.000 OA
ATOM     13  H   UNL     1      12.476   1.205 -22.471  0.00  0.00    +0.000 HD
ENDBRANCH   7  12
BRANCH   8  14
ATOM     14  O   UNL     1      12.658   3.145 -21.322  0.00  0.00    +0.000 OA
ATOM     15  H   UNL     1      12.099   2.906 -22.089  0.00  0.00    +0.000 HD
ENDBRANCH   8  14
TORSDOF 2
ENDMDL
MODEL 6
REMARK VINA RESULT:      -4.7     20.790     21.009
REMARK  Name = 5281416_Esculetin.pdbqt.pdb
REMARK  2 active torsions:
REMARK  status: ('A' for Active; 'I' for Inactive)
REMARK    1  A    between atoms: C_7  and  O_12
REMARK    2  A    between atoms: C_8  and  O_14
REMARK                            x       y       z     vdW  Elec       q    Type
REMARK                         _______ _______ _______ _____ _____    ______ ____
ROOT
ATOM      1  O   UNL     1     -11.037   1.384 -18.964  0.00  0.00    +0.000 OA
ATOM      2  O   UNL     1     -11.126   3.117 -20.543  0.00  0.00    +0.000 OA
ATOM      3  C   UNL     1     -10.379  -0.862 -19.824  0.00  0.00    +0.000 A 
ATOM      4  C   UNL     1     -10.767  -0.020 -18.745  0.00  0.00    +0.000 A 
ATOM      5  C   UNL     1     -10.119  -2.208 -19.622  0.00  0.00    +0.000 A 
ATOM      6  C   UNL     1     -10.898  -0.512 -17.454  0.00  0.00    +0.000 A 
ATOM      7  C   UNL     1     -10.252  -2.698 -18.325  0.00  0.00    +0.000 A 
ATOM      8  C   UNL     1     -10.634  -1.865 -17.263  0.00  0.00    +0.000 A 
ATOM      9  C   UNL     1     -10.294  -0.199 -21.073  0.00  0.00    +0.000 A 
ATOM     10  C   UNL     1     -10.521   0.962 -21.232  0.00  0.00    +0.000 A 
ATOM     11  C   UNL     1     -10.919   1.947 -20.264  0.00  0.00    +0.000 A 
ENDROOT
BRANCH   7  12
ATOM     12  O   UNL     1     -10.012  -4.018 -18.043  0.00  0.00    +0.000 OA
ATOM     13  H   UNL     1     -10.670  -4.551 -18.527  0.00  0.00    +0.000 HD
ENDBRANCH   7  12
BRANCH   8  14
ATOM     14  O   UNL     1     -10.752  -2.389 -16.005  0.00  0.00    +0.000 OA
ATOM     15  H   UNL     1     -11.713  -2.510 -15.865  0.00  0.00    +0.000 HD
ENDBRANCH   8  14
TORSDOF 2
ENDMDL
MODEL 7
REMARK VINA RESULT:      -4.7     13.681     14.900
REMARK  Name = 5281416_Esculetin.pdbqt.pdb
REMARK  2 active torsions:
REMARK  status: ('A' for Active; 'I' for Inactive)
REMARK    1  A    between atoms: C_7  and  O_12
REMARK    2  A    between atoms: C_8  and  O_14
REMARK                            x       y       z     vdW  Elec       q    Type
REMARK                         _______ _______ _______ _____ _____    ______ ____
ROOT
ATOM      1  O   UNL     1      -5.487   0.271 -20.350  0.00  0.00    +0.000 OA
ATOM      2  O   UNL     1      -5.365   2.491 -21.100  0.00  0.00    +0.000 OA
ATOM      3  C   UNL     1      -3.604  -0.516 -18.917  0.00  0.00    +0.000 A 
ATOM      4  C   UNL     1      -4.841  -0.765 -19.574  0.00  0.00    +0.000 A 
ATOM      5  C   UNL     1      -2.980  -1.503 -18.172  0.00  0.00    +0.000 A 
ATOM      6  C   UNL     1      -5.466  -2.001 -19.495  0.00  0.00    +0.000 A 
ATOM      7  C   UNL     1      -3.610  -2.742 -18.094  0.00  0.00    +0.000 A 
ATOM      8  C   UNL     1      -4.830  -2.985 -18.744  0.00  0.00    +0.000 A 
ATOM      9  C   UNL     1      -3.106   0.798 -19.102  0.00  0.00    +0.000 A 
ATOM     10  C   UNL     1      -3.656   1.638 -19.747  0.00  0.00    +0.000 A 
ATOM     11  C   UNL     1      -4.895   1.559 -20.469  0.00  0.00    +0.000 A 
ENDROOT
BRANCH   7  12
ATOM     12  O   UNL     1      -3.057  -3.770 -17.377  0.00  0.00    +0.000 OA
ATOM     13  H   UNL     1      -2.253  -4.063 -17.846  0.00  0.00    +0.000 HD
ENDBRANCH   7  12
BRANCH   8  14
ATOM     14  O   UNL     1      -5.414  -4.217 -18.641  0.00  0.00    +0.000 OA
ATOM     15  H   UNL     1      -6.175  -4.195 -19.256  0.00  0.00    +0.000 HD
ENDBRANCH   8  14
TORSDOF 2
ENDMDL
MODEL 8
REMARK VINA RESULT:      -4.7     18.154     18.329
REMARK  Name = 5281416_Esculetin.pdbqt.pdb
REMARK  2 active torsions:
REMARK  status: ('A' for Active; 'I' for Inactive)
REMARK    1  A    between atoms: C_7  and  O_12
REMARK    2  A    between atoms: C_8  and  O_14
REMARK                            x       y       z     vdW  Elec       q    Type
REMARK                         _______ _______ _______ _____ _____    ______ ____
ROOT
ATOM      1  O   UNL     1       4.494 -16.264 -15.365  0.00  0.00    +0.000 OA
ATOM      2  O   UNL     1       2.820 -15.935 -16.976  0.00  0.00    +0.000 OA
ATOM      3  C   UNL     1       4.110 -15.204 -13.141  0.00  0.00    +0.000 A 
ATOM      4  C   UNL     1       4.918 -15.988 -14.010  0.00  0.00    +0.000 A 
ATOM      5  C   UNL     1       4.510 -14.936 -11.842  0.00  0.00    +0.000 A 
ATOM      6  C   UNL     1       6.133 -16.511 -13.591  0.00  0.00    +0.000 A 
ATOM      7  C   UNL     1       5.730 -15.463 -11.425  0.00  0.00    +0.000 A 
ATOM      8  C   UNL     1       6.525 -16.236 -12.285  0.00  0.00    +0.000 A 
ATOM      9  C   UNL     1       2.903 -14.750 -13.728  0.00  0.00    +0.000 A 
ATOM     10  C   UNL     1       2.571 -14.989 -14.849  0.00  0.00    +0.000 A 
ATOM     11  C   UNL     1       3.259 -15.755 -15.852  0.00  0.00    +0.000 A 
ENDROOT
BRANCH   7  12
ATOM     12  O   UNL     1       6.195 -15.243 -10.155  0.00  0.00    +0.000 OA
ATOM     13  H   UNL     1       6.277 -14.279 -10.030  0.00  0.00    +0.000 HD
ENDBRANCH   7  12
BRANCH   8  14
ATOM     14  O   UNL     1       7.716 -16.734 -11.834  0.00  0.00    +0.000 OA
ATOM     15  H   UNL     1       8.249 -16.896 -12.638  0.00  0.00    +0.000 HD
ENDBRANCH   8  14
TORSDOF 2
ENDMDL
MODEL 9
REMARK VINA RESULT:      -4.6     19.835     20.658
REMARK  Name = 5281416_Esculetin.pdbqt.pdb
REMARK  2 active torsions:
REMARK  status: ('A' for Active; 'I' for Inactive)
REMARK    1  A    between atoms: C_7  and  O_12
REMARK    2  A    between atoms: C_8  and  O_14
REMARK                            x       y       z     vdW  Elec       q    Type
REMARK                         _______ _______ _______ _____ _____    ______ ____
ROOT
ATOM      1  O   UNL     1      -9.628  -0.413 -19.473  0.00  0.00    +0.000 OA
ATOM      2  O   UNL     1      -9.005   0.549 -21.521  0.00  0.00    +0.000 OA
ATOM      3  C   UNL     1      -9.865  -2.895 -19.446  0.00  0.00    +0.000 A 
ATOM      4  C   UNL     1      -9.925  -1.644 -18.772  0.00  0.00    +0.000 A 
ATOM      5  C   UNL     1     -10.148  -4.077 -18.781  0.00  0.00    +0.000 A 
ATOM      6  C   UNL     1     -10.267  -1.559 -17.431  0.00  0.00    +0.000 A 
ATOM      7  C   UNL     1     -10.491  -3.989 -17.434  0.00  0.00    +0.000 A 
ATOM      8  C   UNL     1     -10.549  -2.752 -16.773  0.00  0.00    +0.000 A 
ATOM      9  C   UNL     1      -9.500  -2.800 -20.811  0.00  0.00    +0.000 A 
ATOM     10  C   UNL     1      -9.259  -1.774 -21.371  0.00  0.00    +0.000 A 
ATOM     11  C   UNL     1      -9.271  -0.435 -20.850  0.00  0.00    +0.000 A 
ENDROOT
BRANCH   7  12
ATOM     12  O   UNL     1     -10.785  -5.113 -16.707  0.00  0.00    +0.000 OA
ATOM     13  H   UNL     1      -9.967  -5.638 -16.626  0.00  0.00    +0.000 HD
ENDBRANCH   7  12
BRANCH   8  14
ATOM     14  O   UNL     1     -10.890  -2.712 -15.449  0.00  0.00    +0.000 OA
ATOM     15  H   UNL     1     -10.175  -3.192 -14.984  0.00  0.00    +0.000 HD
ENDBRANCH   8  14
TORSDOF 2
ENDMDL
