MODEL 1
REMARK VINA RESULT:      -6.3      0.000      0.000
REMARK  Name = 5281698_sexangularetin.pdbqt.pdb
REMARK  6 active torsions:
REMARK  status: ('A' for Active; 'I' for Inactive)
REMARK    1  A    between atoms: C_5  and  C_12
REMARK    2  A    between atoms: C_6  and  O_20
REMARK    3  A    between atoms: C_8  and  O_22
REMARK    4  A    between atoms: C_9  and  O_24
REMARK    5  A    between atoms: C_10  and  O_26
REMARK    6  A    between atoms: C_17  and  O_18
REMARK                            x       y       z     vdW  Elec       q    Type
REMARK                         _______ _______ _______ _____ _____    ______ ____
ROOT
ATOM      1  O   UNL     1      -0.202  -1.561 -18.681  0.00  0.00    +0.000 OA
ATOM      2  O   UNL     1       0.677   2.241 -19.772  0.00  0.00    +0.000 OA
ATOM      3  C   UNL     1       1.481   0.112 -19.171  0.00  0.00    +0.000 A 
ATOM      4  C   UNL     1       1.111  -1.177 -18.789  0.00  0.00    +0.000 A 
ATOM      5  C   UNL     1      -1.212  -0.631 -18.900  0.00  0.00    +0.000 A 
ATOM      6  C   UNL     1       2.105  -2.129 -18.522  0.00  0.00    +0.000 A 
ATOM      7  C   UNL     1       0.422   1.089 -19.428  0.00  0.00    +0.000 A 
ATOM      8  C   UNL     1      -0.980   0.644 -19.267  0.00  0.00    +0.000 A 
ATOM      9  C   UNL     1       2.832   0.449 -19.312  0.00  0.00    +0.000 A 
ATOM     10  C   UNL     1       3.452  -1.795 -18.704  0.00  0.00    +0.000 A 
ATOM     11  C   UNL     1       3.817  -0.507 -19.086  0.00  0.00    +0.000 A 
ENDROOT
BRANCH   5  12
ATOM     12  C   UNL     1      -2.563  -1.196 -18.708  0.00  0.00    +0.000 A 
ATOM     13  C   UNL     1      -3.209  -1.043 -17.475  0.00  0.00    +0.000 A 
ATOM     14  C   UNL     1      -3.259  -1.826 -19.745  0.00  0.00    +0.000 A 
ATOM     15  C   UNL     1      -4.500  -1.525 -17.272  0.00  0.00    +0.000 A 
ATOM     16  C   UNL     1      -4.550  -2.314 -19.555  0.00  0.00    +0.000 A 
ATOM     17  C   UNL     1      -5.161  -2.159 -18.317  0.00  0.00    +0.000 A 
BRANCH  17  18
ATOM     18  O   UNL     1      -6.426  -2.642 -18.152  0.00  0.00    +0.000 OA
ATOM     19  H   UNL     1      -6.361  -3.561 -17.837  0.00  0.00    +0.000 HD
ENDBRANCH  17  18
ENDBRANCH   5  12
BRANCH   6  20
ATOM     20  O   UNL     1       1.783  -3.418 -18.173  0.00  0.00    +0.000 OA
ATOM     21  C   UNL     1       1.600  -4.223 -19.315  0.00  0.00    +0.000 C 
ENDBRANCH   6  20
BRANCH   8  22
ATOM     22  O   UNL     1      -1.968   1.574 -19.529  0.00  0.00    +0.000 OA
ATOM     23  H   UNL     1      -2.587   1.137 -20.151  0.00  0.00    +0.000 HD
ENDBRANCH   8  22
BRANCH   9  24
ATOM     24  O   UNL     1       3.259   1.693 -19.686  0.00  0.00    +0.000 OA
ATOM     25  H   UNL     1       2.492   2.204 -20.029  0.00  0.00    +0.000 HD
ENDBRANCH   9  24
BRANCH  10  26
ATOM     26  O   UNL     1       4.419  -2.743 -18.524  0.00  0.00    +0.000 OA
ATOM     27  H   UNL     1       4.853  -2.586 -17.664  0.00  0.00    +0.000 HD
ENDBRANCH  10  26
TORSDOF 6
ENDMDL
MODEL 2
REMARK VINA RESULT:      -6.3      5.363      8.501
REMARK  Name = 5281698_sexangularetin.pdbqt.pdb
REMARK  6 active torsions:
REMARK  status: ('A' for Active; 'I' for Inactive)
REMARK    1  A    between atoms: C_5  and  C_12
REMARK    2  A    between atoms: C_6  and  O_20
REMARK    3  A    between atoms: C_8  and  O_22
REMARK    4  A    between atoms: C_9  and  O_24
REMARK    5  A    between atoms: C_10  and  O_26
REMARK    6  A    between atoms: C_17  and  O_18
REMARK                            x       y       z     vdW  Elec       q    Type
REMARK                         _______ _______ _______ _____ _____    ______ ____
ROOT
ATOM      1  O   UNL     1       7.925   0.550 -18.879  0.00  0.00    +0.000 OA
ATOM      2  O   UNL     1       7.827   2.814 -22.238  0.00  0.00    +0.000 OA
ATOM      3  C   UNL     1       9.087   2.019 -20.415  0.00  0.00    +0.000 A 
ATOM      4  C   UNL     1       9.051   1.233 -19.264  0.00  0.00    +0.000 A 
ATOM      5  C   UNL     1       6.754   0.679 -19.617  0.00  0.00    +0.000 A 
ATOM      6  C   UNL     1      10.204   1.111 -18.475  0.00  0.00    +0.000 A 
ATOM      7  C   UNL     1       7.864   2.140 -21.211  0.00  0.00    +0.000 A 
ATOM      8  C   UNL     1       6.663   1.414 -20.741  0.00  0.00    +0.000 A 
ATOM      9  C   UNL     1      10.269   2.664 -20.795  0.00  0.00    +0.000 A 
ATOM     10  C   UNL     1      11.392   1.727 -18.885  0.00  0.00    +0.000 A 
ATOM     11  C   UNL     1      11.424   2.511 -20.035  0.00  0.00    +0.000 A 
ENDROOT
BRANCH   5  12
ATOM     12  C   UNL     1       5.629  -0.090 -19.047  0.00  0.00    +0.000 A 
ATOM     13  C   UNL     1       5.585  -1.479 -19.213  0.00  0.00    +0.000 A 
ATOM     14  C   UNL     1       4.628   0.516 -18.281  0.00  0.00    +0.000 A 
ATOM     15  C   UNL     1       4.562  -2.241 -18.653  0.00  0.00    +0.000 A 
ATOM     16  C   UNL     1       3.597  -0.233 -17.717  0.00  0.00    +0.000 A 
ATOM     17  C   UNL     1       3.574  -1.609 -17.908  0.00  0.00    +0.000 A 
BRANCH  17  18
ATOM     18  O   UNL     1       2.558  -2.325 -17.345  0.00  0.00    +0.000 OA
ATOM     19  H   UNL     1       1.744  -1.794 -17.404  0.00  0.00    +0.000 HD
ENDBRANCH  17  18
ENDBRANCH   5  12
BRANCH   6  20
ATOM     20  O   UNL     1      10.219   0.322 -17.351  0.00  0.00    +0.000 OA
ATOM     21  C   UNL     1      10.032   1.093 -16.187  0.00  0.00    +0.000 C 
ENDBRANCH   6  20
BRANCH   8  22
ATOM     22  O   UNL     1       5.521   1.527 -21.512  0.00  0.00    +0.000 OA
ATOM     23  H   UNL     1       5.767   1.192 -22.400  0.00  0.00    +0.000 HD
ENDBRANCH   8  22
BRANCH   9  24
ATOM     24  O   UNL     1      10.371   3.446 -21.913  0.00  0.00    +0.000 OA
ATOM     25  H   UNL     1      10.471   2.865 -22.701  0.00  0.00    +0.000 HD
ENDBRANCH   9  24
BRANCH  10  26
ATOM     26  O   UNL     1      12.537   1.545 -18.163  0.00  0.00    +0.000 OA
ATOM     27  H   UNL     1      13.018   2.392 -18.122  0.00  0.00    +0.000 HD
ENDBRANCH  10  26
TORSDOF 6
ENDMDL
MODEL 3
REMARK VINA RESULT:      -6.0      1.820      7.198
REMARK  Name = 5281698_sexangularetin.pdbqt.pdb
REMARK  6 active torsions:
REMARK  status: ('A' for Active; 'I' for Inactive)
REMARK    1  A    between atoms: C_5  and  C_12
REMARK    2  A    between atoms: C_6  and  O_20
REMARK    3  A    between atoms: C_8  and  O_22
REMARK    4  A    between atoms: C_9  and  O_24
REMARK    5  A    between atoms: C_10  and  O_26
REMARK    6  A    between atoms: C_17  and  O_18
REMARK                            x       y       z     vdW  Elec       q    Type
REMARK                         _______ _______ _______ _____ _____    ______ ____
ROOT
ATOM      1  O   UNL     1       0.507   0.376 -18.911  0.00  0.00    +0.000 OA
ATOM      2  O   UNL     1      -0.345  -3.568 -19.277  0.00  0.00    +0.000 OA
ATOM      3  C   UNL     1      -1.162  -1.366 -19.125  0.00  0.00    +0.000 A 
ATOM      4  C   UNL     1      -0.802  -0.026 -18.987  0.00  0.00    +0.000 A 
ATOM      5  C   UNL     1       1.522  -0.575 -18.912  0.00  0.00    +0.000 A 
ATOM      6  C   UNL     1      -1.802   0.956 -18.942  0.00  0.00    +0.000 A 
ATOM      7  C   UNL     1      -0.098  -2.370 -19.153  0.00  0.00    +0.000 A 
ATOM      8  C   UNL     1       1.299  -1.897 -19.034  0.00  0.00    +0.000 A 
ATOM      9  C   UNL     1      -2.509  -1.728 -19.244  0.00  0.00    +0.000 A 
ATOM     10  C   UNL     1      -3.142   0.588 -19.102  0.00  0.00    +0.000 A 
ATOM     11  C   UNL     1      -3.499  -0.751 -19.240  0.00  0.00    +0.000 A 
ENDROOT
BRANCH   5  12
ATOM     12  C   UNL     1       2.868   0.021 -18.787  0.00  0.00    +0.000 A 
ATOM     13  C   UNL     1       3.674   0.158 -19.924  0.00  0.00    +0.000 A 
ATOM     14  C   UNL     1       3.347   0.523 -17.572  0.00  0.00    +0.000 A 
ATOM     15  C   UNL     1       4.930   0.755 -19.849  0.00  0.00    +0.000 A 
ATOM     16  C   UNL     1       4.603   1.120 -17.483  0.00  0.00    +0.000 A 
ATOM     17  C   UNL     1       5.385   1.231 -18.625  0.00  0.00    +0.000 A 
BRANCH  17  18
ATOM     18  O   UNL     1       6.611   1.821 -18.518  0.00  0.00    +0.000 OA
ATOM     19  H   UNL     1       6.477   2.765 -18.322  0.00  0.00    +0.000 HD
ENDBRANCH  17  18
ENDBRANCH   5  12
BRANCH   6  20
ATOM     20  O   UNL     1      -1.488   2.289 -18.838  0.00  0.00    +0.000 OA
ATOM     21  C   UNL     1      -1.219   2.848 -20.102  0.00  0.00    +0.000 C 
ENDBRANCH   6  20
BRANCH   8  22
ATOM     22  O   UNL     1       2.292  -2.857 -19.078  0.00  0.00    +0.000 OA
ATOM     23  H   UNL     1       3.139  -2.364 -19.049  0.00  0.00    +0.000 HD
ENDBRANCH   8  22
BRANCH   9  24
ATOM     24  O   UNL     1      -2.927  -3.023 -19.385  0.00  0.00    +0.000 OA
ATOM     25  H   UNL     1      -3.885  -3.026 -19.611  0.00  0.00    +0.000 HD
ENDBRANCH   9  24
BRANCH  10  26
ATOM     26  O   UNL     1      -4.113   1.549 -19.140  0.00  0.00    +0.000 OA
ATOM     27  H   UNL     1      -4.972   1.119 -19.309  0.00  0.00    +0.000 HD
ENDBRANCH  10  26
TORSDOF 6
ENDMDL
MODEL 4
REMARK VINA RESULT:      -5.9     19.960     20.725
REMARK  Name = 5281698_sexangularetin.pdbqt.pdb
REMARK  6 active torsions:
REMARK  status: ('A' for Active; 'I' for Inactive)
REMARK    1  A    between atoms: C_5  and  C_12
REMARK    2  A    between atoms: C_6  and  O_20
REMARK    3  A    between atoms: C_8  and  O_22
REMARK    4  A    between atoms: C_9  and  O_24
REMARK    5  A    between atoms: C_10  and  O_26
REMARK    6  A    between atoms: C_17  and  O_18
REMARK                            x       y       z     vdW  Elec       q    Type
REMARK                         _______ _______ _______ _____ _____    ______ ____
ROOT
ATOM      1  O   UNL     1       5.076   4.021  -0.275  0.00  0.00    +0.000 OA
ATOM      2  O   UNL     1       7.232   4.555   3.113  0.00  0.00    +0.000 OA
ATOM      3  C   UNL     1       7.095   4.843   0.781  0.00  0.00    +0.000 A 
ATOM      4  C   UNL     1       6.309   4.619  -0.348  0.00  0.00    +0.000 A 
ATOM      5  C   UNL     1       4.603   3.564   0.950  0.00  0.00    +0.000 A 
ATOM      6  C   UNL     1       6.772   5.033  -1.605  0.00  0.00    +0.000 A 
ATOM      7  C   UNL     1       6.592   4.387   2.078  0.00  0.00    +0.000 A 
ATOM      8  C   UNL     1       5.273   3.716   2.108  0.00  0.00    +0.000 A 
ATOM      9  C   UNL     1       8.327   5.497   0.668  0.00  0.00    +0.000 A 
ATOM     10  C   UNL     1       7.986   5.722  -1.703  0.00  0.00    +0.000 A 
ATOM     11  C   UNL     1       8.769   5.944  -0.573  0.00  0.00    +0.000 A 
ENDROOT
BRANCH   5  12
ATOM     12  C   UNL     1       3.281   2.913   0.848  0.00  0.00    +0.000 A 
ATOM     13  C   UNL     1       2.144   3.690   0.593  0.00  0.00    +0.000 A 
ATOM     14  C   UNL     1       3.129   1.525   0.929  0.00  0.00    +0.000 A 
ATOM     15  C   UNL     1       0.888   3.104   0.448  0.00  0.00    +0.000 A 
ATOM     16  C   UNL     1       1.878   0.927   0.788  0.00  0.00    +0.000 A 
ATOM     17  C   UNL     1       0.766   1.724   0.548  0.00  0.00    +0.000 A 
BRANCH  17  18
ATOM     18  O   UNL     1      -0.449   1.119   0.411  0.00  0.00    +0.000 OA
ATOM     19  H   UNL     1      -0.661   0.670   1.249  0.00  0.00    +0.000 HD
ENDBRANCH  17  18
ENDBRANCH   5  12
BRANCH   6  20
ATOM     20  O   UNL     1       6.014   4.859  -2.737  0.00  0.00    +0.000 OA
ATOM     21  C   UNL     1       6.487   3.775  -3.503  0.00  0.00    +0.000 C 
ENDBRANCH   6  20
BRANCH   8  22
ATOM     22  O   UNL     1       4.806   3.305   3.341  0.00  0.00    +0.000 OA
ATOM     23  H   UNL     1       4.789   4.110   3.900  0.00  0.00    +0.000 HD
ENDBRANCH   8  22
BRANCH   9  24
ATOM     24  O   UNL     1       9.143   5.749   1.736  0.00  0.00    +0.000 OA
ATOM     25  H   UNL     1       8.930   6.639   2.097  0.00  0.00    +0.000 HD
ENDBRANCH   9  24
BRANCH  10  26
ATOM     26  O   UNL     1       8.403   6.198  -2.914  0.00  0.00    +0.000 OA
ATOM     27  H   UNL     1       8.106   5.583  -3.610  0.00  0.00    +0.000 HD
ENDBRANCH  10  26
TORSDOF 6
ENDMDL
MODEL 5
REMARK VINA RESULT:      -5.8      3.418      8.783
REMARK  Name = 5281698_sexangularetin.pdbqt.pdb
REMARK  6 active torsions:
REMARK  status: ('A' for Active; 'I' for Inactive)
REMARK    1  A    between atoms: C_5  and  C_12
REMARK    2  A    between atoms: C_6  and  O_20
REMARK    3  A    between atoms: C_8  and  O_22
REMARK    4  A    between atoms: C_9  and  O_24
REMARK    5  A    between atoms: C_10  and  O_26
REMARK    6  A    between atoms: C_17  and  O_18
REMARK                            x       y       z     vdW  Elec       q    Type
REMARK                         _______ _______ _______ _____ _____    ______ ____
ROOT
ATOM      1  O   UNL     1       4.467   1.028 -20.133  0.00  0.00    +0.000 OA
ATOM      2  O   UNL     1       4.939  -2.494 -18.188  0.00  0.00    +0.000 OA
ATOM      3  C   UNL     1       3.469  -0.796 -18.891  0.00  0.00    +0.000 A 
ATOM      4  C   UNL     1       3.376   0.422 -19.563  0.00  0.00    +0.000 A 
ATOM      5  C   UNL     1       5.726   0.453 -19.996  0.00  0.00    +0.000 A 
ATOM      6  C   UNL     1       2.129   1.049 -19.687  0.00  0.00    +0.000 A 
ATOM      7  C   UNL     1       4.787  -1.420 -18.765  0.00  0.00    +0.000 A 
ATOM      8  C   UNL     1       5.942  -0.716 -19.364  0.00  0.00    +0.000 A 
ATOM      9  C   UNL     1       2.323  -1.402 -18.363  0.00  0.00    +0.000 A 
ATOM     10  C   UNL     1       0.983   0.416 -19.191  0.00  0.00    +0.000 A 
ATOM     11  C   UNL     1       1.079  -0.800 -18.520  0.00  0.00    +0.000 A 
ENDROOT
BRANCH   5  12
ATOM     12  C   UNL     1       6.794   1.250 -20.634  0.00  0.00    +0.000 A 
ATOM     13  C   UNL     1       7.599   2.083 -19.849  0.00  0.00    +0.000 A 
ATOM     14  C   UNL     1       7.078   1.150 -22.000  0.00  0.00    +0.000 A 
ATOM     15  C   UNL     1       8.643   2.815 -20.411  0.00  0.00    +0.000 A 
ATOM     16  C   UNL     1       8.117   1.879 -22.575  0.00  0.00    +0.000 A 
ATOM     17  C   UNL     1       8.893   2.707 -21.774  0.00  0.00    +0.000 A 
BRANCH  17  18
ATOM     18  O   UNL     1       9.907   3.410 -22.355  0.00  0.00    +0.000 OA
ATOM     19  H   UNL     1      10.208   4.087 -21.723  0.00  0.00    +0.000 HD
ENDBRANCH  17  18
ENDBRANCH   5  12
BRANCH   6  20
ATOM     20  O   UNL     1       1.990   2.234 -20.368  0.00  0.00    +0.000 OA
ATOM     21  C   UNL     1       1.658   2.007 -21.718  0.00  0.00    +0.000 C 
ENDBRANCH   6  20
BRANCH   8  22
ATOM     22  O   UNL     1       7.177  -1.326 -19.249  0.00  0.00    +0.000 OA
ATOM     23  H   UNL     1       7.745  -0.687 -18.770  0.00  0.00    +0.000 HD
ENDBRANCH   8  22
BRANCH   9  24
ATOM     24  O   UNL     1       2.346  -2.596 -17.696  0.00  0.00    +0.000 OA
ATOM     25  H   UNL     1       3.270  -2.936 -17.682  0.00  0.00    +0.000 HD
ENDBRANCH   9  24
BRANCH  10  26
ATOM     26  O   UNL     1      -0.245   0.985 -19.380  0.00  0.00    +0.000 OA
ATOM     27  H   UNL     1      -0.889   0.536 -18.801  0.00  0.00    +0.000 HD
ENDBRANCH  10  26
TORSDOF 6
ENDMDL
MODEL 6
REMARK VINA RESULT:      -5.6      3.768      9.714
REMARK  Name = 5281698_sexangularetin.pdbqt.pdb
REMARK  6 active torsions:
REMARK  status: ('A' for Active; 'I' for Inactive)
REMARK    1  A    between atoms: C_5  and  C_12
REMARK    2  A    between atoms: C_6  and  O_20
REMARK    3  A    between atoms: C_8  and  O_22
REMARK    4  A    between atoms: C_9  and  O_24
REMARK    5  A    between atoms: C_10  and  O_26
REMARK    6  A    between atoms: C_17  and  O_18
REMARK                            x       y       z     vdW  Elec       q    Type
REMARK                         _______ _______ _______ _____ _____    ______ ____
ROOT
ATOM      1  O   UNL     1      -7.111  -1.023 -19.963  0.00  0.00    +0.000 OA
ATOM      2  O   UNL     1      -7.832  -4.889 -18.989  0.00  0.00    +0.000 OA
ATOM      3  C   UNL     1      -8.680  -2.864 -19.839  0.00  0.00    +0.000 A 
ATOM      4  C   UNL     1      -8.369  -1.540 -20.143  0.00  0.00    +0.000 A 
ATOM      5  C   UNL     1      -6.113  -1.816 -19.407  0.00  0.00    +0.000 A 
ATOM      6  C   UNL     1      -9.362  -0.701 -20.669  0.00  0.00    +0.000 A 
ATOM      7  C   UNL     1      -7.627  -3.712 -19.276  0.00  0.00    +0.000 A 
ATOM      8  C   UNL     1      -6.293  -3.106 -19.067  0.00  0.00    +0.000 A 
ATOM      9  C   UNL     1      -9.965  -3.363 -20.079  0.00  0.00    +0.000 A 
ATOM     10  C   UNL     1     -10.632  -1.220 -20.943  0.00  0.00    +0.000 A 
ATOM     11  C   UNL     1     -10.939  -2.543 -20.639  0.00  0.00    +0.000 A 
ENDROOT
BRANCH   5  12
ATOM     12  C   UNL     1      -4.831  -1.098 -19.247  0.00  0.00    +0.000 A 
ATOM     13  C   UNL     1      -4.469  -0.598 -17.991  0.00  0.00    +0.000 A 
ATOM     14  C   UNL     1      -3.924  -0.956 -20.302  0.00  0.00    +0.000 A 
ATOM     15  C   UNL     1      -3.249   0.046 -17.796  0.00  0.00    +0.000 A 
ATOM     16  C   UNL     1      -2.702  -0.313 -20.121  0.00  0.00    +0.000 A 
ATOM     17  C   UNL     1      -2.374   0.184 -18.866  0.00  0.00    +0.000 A 
BRANCH  17  18
ATOM     18  O   UNL     1      -1.171   0.809 -18.709  0.00  0.00    +0.000 OA
ATOM     19  H   UNL     1      -1.269   1.733 -19.001  0.00  0.00    +0.000 HD
ENDBRANCH  17  18
ENDBRANCH   5  12
BRANCH   6  20
ATOM     20  O   UNL     1      -9.088   0.601 -21.011  0.00  0.00    +0.000 OA
ATOM     21  C   UNL     1      -8.597   0.688 -22.328  0.00  0.00    +0.000 C 
ENDBRANCH   6  20
BRANCH   8  22
ATOM     22  O   UNL     1      -5.307  -3.924 -18.549  0.00  0.00    +0.000 OA
ATOM     23  H   UNL     1      -4.669  -4.065 -19.280  0.00  0.00    +0.000 HD
ENDBRANCH   8  22
BRANCH   9  24
ATOM     24  O   UNL     1     -10.332  -4.652 -19.806  0.00  0.00    +0.000 OA
ATOM     25  H   UNL     1      -9.812  -4.976 -19.036  0.00  0.00    +0.000 HD
ENDBRANCH   9  24
BRANCH  10  26
ATOM     26  O   UNL     1     -11.578  -0.428 -21.531  0.00  0.00    +0.000 OA
ATOM     27  H   UNL     1     -11.565  -0.589 -22.493  0.00  0.00    +0.000 HD
ENDBRANCH  10  26
TORSDOF 6
ENDMDL
MODEL 7
REMARK VINA RESULT:      -5.5     16.610     18.097
REMARK  Name = 5281698_sexangularetin.pdbqt.pdb
REMARK  6 active torsions:
REMARK  status: ('A' for Active; 'I' for Inactive)
REMARK    1  A    between atoms: C_5  and  C_12
REMARK    2  A    between atoms: C_6  and  O_20
REMARK    3  A    between atoms: C_8  and  O_22
REMARK    4  A    between atoms: C_9  and  O_24
REMARK    5  A    between atoms: C_10  and  O_26
REMARK    6  A    between atoms: C_17  and  O_18
REMARK                            x       y       z     vdW  Elec       q    Type
REMARK                         _______ _______ _______ _____ _____    ______ ____
ROOT
ATOM      1  O   UNL     1      13.385  -3.984  -7.283  0.00  0.00    +0.000 OA
ATOM      2  O   UNL     1      13.880  -5.391 -11.051  0.00  0.00    +0.000 OA
ATOM      3  C   UNL     1      14.718  -4.051  -9.305  0.00  0.00    +0.000 A 
ATOM      4  C   UNL     1      14.483  -3.595  -8.009  0.00  0.00    +0.000 A 
ATOM      5  C   UNL     1      12.435  -4.816  -7.864  0.00  0.00    +0.000 A 
ATOM      6  C   UNL     1      15.401  -2.723  -7.407  0.00  0.00    +0.000 A 
ATOM      7  C   UNL     1      13.733  -4.948  -9.913  0.00  0.00    +0.000 A 
ATOM      8  C   UNL     1      12.547  -5.316  -9.109  0.00  0.00    +0.000 A 
ATOM      9  C   UNL     1      15.873  -3.664  -9.994  0.00  0.00    +0.000 A 
ATOM     10  C   UNL     1      16.573  -2.374  -8.088  0.00  0.00    +0.000 A 
ATOM     11  C   UNL     1      16.805  -2.832  -9.382  0.00  0.00    +0.000 A 
ENDROOT
BRANCH   5  12
ATOM     12  C   UNL     1      11.301  -5.109  -6.963  0.00  0.00    +0.000 A 
ATOM     13  C   UNL     1      11.221  -6.356  -6.331  0.00  0.00    +0.000 A 
ATOM     14  C   UNL     1      10.328  -4.151  -6.660  0.00  0.00    +0.000 A 
ATOM     15  C   UNL     1      10.190  -6.649  -5.442  0.00  0.00    +0.000 A 
ATOM     16  C   UNL     1       9.289  -4.432  -5.775  0.00  0.00    +0.000 A 
ATOM     17  C   UNL     1       9.229  -5.682  -5.172  0.00  0.00    +0.000 A 
BRANCH  17  18
ATOM     18  O   UNL     1       8.206  -5.938  -4.306  0.00  0.00    +0.000 OA
ATOM     19  H   UNL     1       8.584  -6.313  -3.492  0.00  0.00    +0.000 HD
ENDBRANCH  17  18
ENDBRANCH   5  12
BRANCH   6  20
ATOM     20  O   UNL     1      15.222  -2.275  -6.121  0.00  0.00    +0.000 OA
ATOM     21  C   UNL     1      14.645  -0.990  -6.107  0.00  0.00    +0.000 C 
ENDBRANCH   6  20
BRANCH   8  22
ATOM     22  O   UNL     1      11.636  -6.175  -9.692  0.00  0.00    +0.000 OA
ATOM     23  H   UNL     1      11.656  -6.992  -9.150  0.00  0.00    +0.000 HD
ENDBRANCH   8  22
BRANCH   9  24
ATOM     24  O   UNL     1      16.163  -4.079 -11.264  0.00  0.00    +0.000 OA
ATOM     25  H   UNL     1      17.043  -3.723 -11.523  0.00  0.00    +0.000 HD
ENDBRANCH   9  24
BRANCH  10  26
ATOM     26  O   UNL     1      17.509  -1.590  -7.474  0.00  0.00    +0.000 OA
ATOM     27  H   UNL     1      18.128  -1.257  -8.150  0.00  0.00    +0.000 HD
ENDBRANCH  10  26
TORSDOF 6
ENDMDL
MODEL 8
REMARK VINA RESULT:      -5.4     17.476     20.008
REMARK  Name = 5281698_sexangularetin.pdbqt.pdb
REMARK  6 active torsions:
REMARK  status: ('A' for Active; 'I' for Inactive)
REMARK    1  A    between atoms: C_5  and  C_12
REMARK    2  A    between atoms: C_6  and  O_20
REMARK    3  A    between atoms: C_8  and  O_22
REMARK    4  A    between atoms: C_9  and  O_24
REMARK    5  A    between atoms: C_10  and  O_26
REMARK    6  A    between atoms: C_17  and  O_18
REMARK                            x       y       z     vdW  Elec       q    Type
REMARK                         _______ _______ _______ _____ _____    ______ ____
ROOT
ATOM      1  O   UNL     1      13.894  -4.558  -6.076  0.00  0.00    +0.000 OA
ATOM      2  O   UNL     1      12.401  -5.959  -9.572  0.00  0.00    +0.000 OA
ATOM      3  C   UNL     1      12.564  -6.216  -7.238  0.00  0.00    +0.000 A 
ATOM      4  C   UNL     1      13.117  -5.689  -6.072  0.00  0.00    +0.000 A 
ATOM      5  C   UNL     1      14.199  -3.935  -7.281  0.00  0.00    +0.000 A 
ATOM      6  C   UNL     1      12.863  -6.315  -4.843  0.00  0.00    +0.000 A 
ATOM      7  C   UNL     1      12.859  -5.550  -8.508  0.00  0.00    +0.000 A 
ATOM      8  C   UNL     1      13.729  -4.354  -8.472  0.00  0.00    +0.000 A 
ATOM      9  C   UNL     1      11.740  -7.346  -7.183  0.00  0.00    +0.000 A 
ATOM     10  C   UNL     1      12.006  -7.420  -4.794  0.00  0.00    +0.000 A 
ATOM     11  C   UNL     1      11.454  -7.944  -5.960  0.00  0.00    +0.000 A 
ENDROOT
BRANCH   5  12
ATOM     12  C   UNL     1      15.073  -2.757  -7.113  0.00  0.00    +0.000 A 
ATOM     13  C   UNL     1      14.607  -1.644  -6.403  0.00  0.00    +0.000 A 
ATOM     14  C   UNL     1      16.390  -2.737  -7.584  0.00  0.00    +0.000 A 
ATOM     15  C   UNL     1      15.420  -0.533  -6.189  0.00  0.00    +0.000 A 
ATOM     16  C   UNL     1      17.213  -1.631  -7.378  0.00  0.00    +0.000 A 
ATOM     17  C   UNL     1      16.720  -0.536  -6.680  0.00  0.00    +0.000 A 
BRANCH  17  18
ATOM     18  O   UNL     1      17.542   0.535  -6.488  0.00  0.00    +0.000 OA
ATOM     19  H   UNL     1      17.081   1.171  -5.912  0.00  0.00    +0.000 HD
ENDBRANCH  17  18
ENDBRANCH   5  12
BRANCH   6  20
ATOM     20  O   UNL     1      13.363  -5.810  -3.668  0.00  0.00    +0.000 OA
ATOM     21  C   UNL     1      14.616  -6.380  -3.364  0.00  0.00    +0.000 C 
ENDBRANCH   6  20
BRANCH   8  22
ATOM     22  O   UNL     1      13.986  -3.728  -9.677  0.00  0.00    +0.000 OA
ATOM     23  H   UNL     1      14.241  -4.443 -10.298  0.00  0.00    +0.000 HD
ENDBRANCH   8  22
BRANCH   9  24
ATOM     24  O   UNL     1      11.165  -7.909  -8.289  0.00  0.00    +0.000 OA
ATOM     25  H   UNL     1      10.810  -8.794  -8.048  0.00  0.00    +0.000 HD
ENDBRANCH   9  24
BRANCH  10  26
ATOM     26  O   UNL     1      11.691  -7.984  -3.589  0.00  0.00    +0.000 OA
ATOM     27  H   UNL     1      12.389  -7.757  -2.947  0.00  0.00    +0.000 HD
ENDBRANCH  10  26
TORSDOF 6
ENDMDL
MODEL 9
REMARK VINA RESULT:      -5.4     16.668     19.415
REMARK  Name = 5281698_sexangularetin.pdbqt.pdb
REMARK  6 active torsions:
REMARK  status: ('A' for Active; 'I' for Inactive)
REMARK    1  A    between atoms: C_5  and  C_12
REMARK    2  A    between atoms: C_6  and  O_20
REMARK    3  A    between atoms: C_8  and  O_22
REMARK    4  A    between atoms: C_9  and  O_24
REMARK    5  A    between atoms: C_10  and  O_26
REMARK    6  A    between atoms: C_17  and  O_18
REMARK                            x       y       z     vdW  Elec       q    Type
REMARK                         _______ _______ _______ _____ _____    ______ ____
ROOT
ATOM      1  O   UNL     1      11.844  -7.279  -5.125  0.00  0.00    +0.000 OA
ATOM      2  O   UNL     1       9.457  -4.562  -6.951  0.00  0.00    +0.000 OA
ATOM      3  C   UNL     1      11.242  -6.084  -7.144  0.00  0.00    +0.000 A 
ATOM      4  C   UNL     1      12.036  -6.999  -6.455  0.00  0.00    +0.000 A 
ATOM      5  C   UNL     1      10.867  -6.595  -4.411  0.00  0.00    +0.000 A 
ATOM      6  C   UNL     1      13.056  -7.678  -7.136  0.00  0.00    +0.000 A 
ATOM      7  C   UNL     1      10.194  -5.379  -6.404  0.00  0.00    +0.000 A 
ATOM      8  C   UNL     1      10.043  -5.685  -4.964  0.00  0.00    +0.000 A 
ATOM      9  C   UNL     1      11.443  -5.861  -8.511  0.00  0.00    +0.000 A 
ATOM     10  C   UNL     1      13.223  -7.478  -8.511  0.00  0.00    +0.000 A 
ATOM     11  C   UNL     1      12.429  -6.564  -9.196  0.00  0.00    +0.000 A 
ENDROOT
BRANCH   5  12
ATOM     12  C   UNL     1      10.816  -6.988  -2.987  0.00  0.00    +0.000 A 
ATOM     13  C   UNL     1      10.819  -8.345  -2.643  0.00  0.00    +0.000 A 
ATOM     14  C   UNL     1      10.834  -6.044  -1.956  0.00  0.00    +0.000 A 
ATOM     15  C   UNL     1      10.815  -8.751  -1.310  0.00  0.00    +0.000 A 
ATOM     16  C   UNL     1      10.828  -6.436  -0.619  0.00  0.00    +0.000 A 
ATOM     17  C   UNL     1      10.819  -7.789  -0.307  0.00  0.00    +0.000 A 
BRANCH  17  18
ATOM     18  O   UNL     1      10.816  -8.153   1.008  0.00  0.00    +0.000 OA
ATOM     19  H   UNL     1      10.375  -9.018   1.083  0.00  0.00    +0.000 HD
ENDBRANCH  17  18
ENDBRANCH   5  12
BRANCH   6  20
ATOM     20  O   UNL     1      13.840  -8.611  -6.500  0.00  0.00    +0.000 OA
ATOM     21  C   UNL     1      14.998  -8.017  -5.961  0.00  0.00    +0.000 C 
ENDBRANCH   6  20
BRANCH   8  22
ATOM     22  O   UNL     1       9.040  -5.022  -4.283  0.00  0.00    +0.000 OA
ATOM     23  H   UNL     1       9.490  -4.519  -3.572  0.00  0.00    +0.000 HD
ENDBRANCH   8  22
BRANCH   9  24
ATOM     24  O   UNL     1      10.697  -4.979  -9.244  0.00  0.00    +0.000 OA
ATOM     25  H   UNL     1       9.749  -5.235  -9.182  0.00  0.00    +0.000 HD
ENDBRANCH   9  24
BRANCH  10  26
ATOM     26  O   UNL     1      14.163  -8.198  -9.194  0.00  0.00    +0.000 OA
ATOM     27  H   UNL     1      14.408  -7.705  -9.999  0.00  0.00    +0.000 HD
ENDBRANCH  10  26
TORSDOF 6
ENDMDL
