MODEL 1
REMARK VINA RESULT:      -6.2      0.000      0.000
REMARK  Name = 5289155_Peridinin.pdbqt.pdb
REMARK  13 active torsions:
REMARK  status: ('A' for Active; 'I' for Inactive)
REMARK    1  A    between atoms: C_1  and  C_3
REMARK    2  A    between atoms: C_3  and  C_25
REMARK    3  A    between atoms: C_6  and  C_12
REMARK    4  A    between atoms: C_11  and  C_14
REMARK    5  A    between atoms: C_19  and  O_23
REMARK    6  A    between atoms: C_26  and  C_28
REMARK    7  A    between atoms: C_27  and  C_31
REMARK    8  A    between atoms: C_29  and  C_31
REMARK    9  A    between atoms: C_29  and  C_42
REMARK   10  A    between atoms: C_33  and  O_43
REMARK   11  A    between atoms: C_35  and  O_45
REMARK   12  A    between atoms: C_37  and  C_41
REMARK   13  A    between atoms: O_45  and  C_47
REMARK                            x       y       z     vdW  Elec       q    Type
REMARK                         _______ _______ _______ _____ _____    ______ ____
ROOT
ATOM      1  C   UNL     1       0.982  12.438 -22.689  0.00  0.00    +0.000 C 
ENDROOT
BRANCH   1   2
ATOM      2  C   UNL     1       1.734  12.097 -23.687  0.00  0.00    +0.000 C 
ATOM      3  C   UNL     1       1.125  11.797 -25.022  0.00  0.00    +0.000 C 
ATOM      4  O   UNL     1       4.968  11.722 -22.140  0.00  0.00    +0.000 OA
ATOM      5  O   UNL     1       7.123  11.048 -21.615  0.00  0.00    +0.000 OA
ATOM      6  C   UNL     1       6.440  11.379 -23.908  0.00  0.00    +0.000 C 
ATOM      7  C   UNL     1       5.324  11.749 -24.422  0.00  0.00    +0.000 C 
ATOM      8  C   UNL     1       6.276  11.351 -22.436  0.00  0.00    +0.000 C 
ATOM      9  C   UNL     1       4.422  11.996 -23.390  0.00  0.00    +0.000 C 
ATOM     10  C   UNL     1       3.138  12.044 -23.530  0.00  0.00    +0.000 C 
BRANCH   6  12
ATOM     11  C   UNL     1       8.561  10.758 -25.294  0.00  0.00    +0.000 C 
ATOM     12  C   UNL     1       7.586  11.049 -24.656  0.00  0.00    +0.000 C 
BRANCH  11  14
ATOM     13  O   UNL     1      10.598  11.560 -26.237  0.00  0.00    +0.000 OA
ATOM     14  C   UNL     1       9.741  10.395 -26.063  0.00  0.00    +0.000 C 
ATOM     15  C   UNL     1      11.136  10.527 -25.415  0.00  0.00    +0.000 C 
ATOM     16  C   UNL     1       9.592   9.445 -27.302  0.00  0.00    +0.000 C 
ATOM     17  C   UNL     1      12.217   9.841 -26.048  0.00  0.00    +0.000 C 
ATOM     18  C   UNL     1      10.941   9.013 -27.677  0.00  0.00    +0.000 C 
ATOM     19  C   UNL     1      12.270   9.061 -27.216  0.00  0.00    +0.000 C 
ATOM     20  C   UNL     1      11.355  10.951 -23.960  0.00  0.00    +0.000 C 
ATOM     21  C   UNL     1       8.748   8.240 -26.808  0.00  0.00    +0.000 C 
ATOM     22  C   UNL     1       8.878  10.263 -28.401  0.00  0.00    +0.000 C 
BRANCH  19  23
ATOM     23  O   UNL     1      13.109   7.996 -27.351  0.00  0.00    +0.000 OA
ATOM     24  H   UNL     1      13.882   8.055 -26.761  0.00  0.00    +0.000 HD
ENDBRANCH  19  23
ENDBRANCH  11  14
ENDBRANCH   6  12
ENDBRANCH   1   2
BRANCH   1  25
ATOM     25  C   UNL     1       0.093  12.843 -21.508  0.00  0.00    +0.000 C 
ATOM     26  C   UNL     1      -0.601  13.165 -20.583  0.00  0.00    +0.000 C 
BRANCH  26  28
ATOM     27  C   UNL     1      -2.179  13.915 -18.484  0.00  0.00    +0.000 C 
ATOM     28  C   UNL     1      -1.485  13.583 -19.404  0.00  0.00    +0.000 C 
BRANCH  27  29
ATOM     29  C   UNL     1      -3.068  14.346 -17.310  0.00  0.00    +0.000 C 
BRANCH  29  30
ATOM     30  C   UNL     1      -3.826  14.703 -16.322  0.00  0.00    +0.000 C 
ATOM     31  C   UNL     1      -3.426  14.395 -14.911  0.00  0.00    +0.000 C 
BRANCH  30  33
ATOM     32  C   UNL     1      -6.120  15.877 -16.796  0.00  0.00    +0.000 C 
ATOM     33  C   UNL     1      -5.067  15.339 -16.578  0.00  0.00    +0.000 C 
BRANCH  32  39
ATOM     34  C   UNL     1      -8.079  16.212 -18.324  0.00  0.00    +0.000 C 
ATOM     35  C   UNL     1      -7.860  17.471 -16.058  0.00  0.00    +0.000 C 
ATOM     36  C   UNL     1      -9.449  16.730 -18.207  0.00  0.00    +0.000 C 
ATOM     37  C   UNL     1     -10.236  17.473 -17.304  0.00  0.00    +0.000 C 
ATOM     38  C   UNL     1      -9.273  17.736 -16.309  0.00  0.00    +0.000 C 
ATOM     39  C   UNL     1      -7.277  16.461 -17.034  0.00  0.00    +0.000 C 
ATOM     40  C   UNL     1      -8.165  14.676 -18.583  0.00  0.00    +0.000 C 
ATOM     41  C   UNL     1      -7.349  16.908 -19.504  0.00  0.00    +0.000 C 
ATOM     42  C   UNL     1      -7.042  18.765 -16.054  0.00  0.00    +0.000 C 
BRANCH  35  43
ATOM     43  O   UNL     1      -7.748  16.965 -14.746  0.00  0.00    +0.000 OA
ATOM     44  H   UNL     1      -8.554  17.325 -14.331  0.00  0.00    +0.000 HD
ENDBRANCH  35  43
BRANCH  37  45
ATOM     45  O   UNL     1     -11.040  18.495 -17.792  0.00  0.00    +0.000 OA
BRANCH  45  47
ATOM     46  O   UNL     1     -13.103  17.461 -17.371  0.00  0.00    +0.000 OA
ATOM     47  C   UNL     1     -12.277  18.016 -18.071  0.00  0.00    +0.000 C 
ATOM     48  C   UNL     1     -12.693  18.192 -19.490  0.00  0.00    +0.000 C 
ENDBRANCH  45  47
ENDBRANCH  37  45
ENDBRANCH  32  39
ENDBRANCH  30  33
ENDBRANCH  29  30
ENDBRANCH  27  29
ENDBRANCH  26  28
ENDBRANCH   1  25
TORSDOF 13
ENDMDL
MODEL 2
REMARK VINA RESULT:      -6.0      2.775     19.377
REMARK  Name = 5289155_Peridinin.pdbqt.pdb
REMARK  13 active torsions:
REMARK  status: ('A' for Active; 'I' for Inactive)
REMARK    1  A    between atoms: C_1  and  C_3
REMARK    2  A    between atoms: C_3  and  C_25
REMARK    3  A    between atoms: C_6  and  C_12
REMARK    4  A    between atoms: C_11  and  C_14
REMARK    5  A    between atoms: C_19  and  O_23
REMARK    6  A    between atoms: C_26  and  C_28
REMARK    7  A    between atoms: C_27  and  C_31
REMARK    8  A    between atoms: C_29  and  C_31
REMARK    9  A    between atoms: C_29  and  C_42
REMARK   10  A    between atoms: C_33  and  O_43
REMARK   11  A    between atoms: C_35  and  O_45
REMARK   12  A    between atoms: C_37  and  C_41
REMARK   13  A    between atoms: O_45  and  C_47
REMARK                            x       y       z     vdW  Elec       q    Type
REMARK                         _______ _______ _______ _____ _____    ______ ____
ROOT
ATOM      1  C   UNL     1      -3.149  14.547 -17.742  0.00  0.00    +0.000 C 
ENDROOT
BRANCH   1   2
ATOM      2  C   UNL     1      -4.006  14.888 -16.831  0.00  0.00    +0.000 C 
ATOM      3  C   UNL     1      -3.711  14.632 -15.386  0.00  0.00    +0.000 C 
ATOM      4  O   UNL     1      -6.860  15.906 -18.784  0.00  0.00    +0.000 OA
ATOM      5  O   UNL     1      -9.012  16.352 -19.520  0.00  0.00    +0.000 OA
ATOM      6  C   UNL     1      -8.352  16.799 -17.239  0.00  0.00    +0.000 C 
ATOM      7  C   UNL     1      -7.236  16.641 -16.627  0.00  0.00    +0.000 C 
ATOM      8  C   UNL     1      -8.170  16.350 -18.640  0.00  0.00    +0.000 C 
ATOM      9  C   UNL     1      -6.303  16.136 -17.529  0.00  0.00    +0.000 C 
ATOM     10  C   UNL     1      -5.206  15.539 -17.198  0.00  0.00    +0.000 C 
BRANCH   6  12
ATOM     11  C   UNL     1     -10.527  17.722 -16.132  0.00  0.00    +0.000 C 
ATOM     12  C   UNL     1      -9.523  17.297 -16.637  0.00  0.00    +0.000 C 
BRANCH  11  14
ATOM     13  O   UNL     1     -11.943  17.641 -14.217  0.00  0.00    +0.000 OA
ATOM     14  C   UNL     1     -11.746  18.239 -15.531  0.00  0.00    +0.000 C 
ATOM     15  C   UNL     1     -11.659  19.038 -14.213  0.00  0.00    +0.000 C 
ATOM     16  C   UNL     1     -13.027  18.417 -16.417  0.00  0.00    +0.000 C 
ATOM     17  C   UNL     1     -12.797  19.820 -13.848  0.00  0.00    +0.000 C 
ATOM     18  C   UNL     1     -13.975  19.226 -15.645  0.00  0.00    +0.000 C 
ATOM     19  C   UNL     1     -14.050  19.986 -14.463  0.00  0.00    +0.000 C 
ATOM     20  C   UNL     1     -10.338  19.394 -13.527  0.00  0.00    +0.000 C 
ATOM     21  C   UNL     1     -12.558  19.182 -17.683  0.00  0.00    +0.000 C 
ATOM     22  C   UNL     1     -13.545  16.997 -16.735  0.00  0.00    +0.000 C 
BRANCH  19  23
ATOM     23  O   UNL     1     -14.743  21.158 -14.414  0.00  0.00    +0.000 OA
ATOM     24  H   UNL     1     -14.511  21.757 -15.146  0.00  0.00    +0.000 HD
ENDBRANCH  19  23
ENDBRANCH  11  14
ENDBRANCH   6  12
ENDBRANCH   1   2
BRANCH   1  25
ATOM     25  C   UNL     1      -2.136  14.142 -18.819  0.00  0.00    +0.000 C 
ATOM     26  C   UNL     1      -1.341  13.830 -19.662  0.00  0.00    +0.000 C 
BRANCH  26  28
ATOM     27  C   UNL     1       0.475  13.128 -21.577  0.00  0.00    +0.000 C 
ATOM     28  C   UNL     1      -0.323  13.439 -20.738  0.00  0.00    +0.000 C 
BRANCH  27  29
ATOM     29  C   UNL     1       1.499  12.727 -22.646  0.00  0.00    +0.000 C 
BRANCH  29  30
ATOM     30  C   UNL     1       2.371  12.383 -23.540  0.00  0.00    +0.000 C 
ATOM     31  C   UNL     1       1.938  12.087 -24.945  0.00  0.00    +0.000 C 
BRANCH  30  33
ATOM     32  C   UNL     1       4.890  12.107 -22.873  0.00  0.00    +0.000 C 
ATOM     33  C   UNL     1       3.734  12.232 -23.179  0.00  0.00    +0.000 C 
BRANCH  32  39
ATOM     34  C   UNL     1       7.011  13.161 -22.053  0.00  0.00    +0.000 C 
ATOM     35  C   UNL     1       6.866  10.636 -22.661  0.00  0.00    +0.000 C 
ATOM     36  C   UNL     1       8.272  12.701 -21.455  0.00  0.00    +0.000 C 
ATOM     37  C   UNL     1       8.990  11.502 -21.267  0.00  0.00    +0.000 C 
ATOM     38  C   UNL     1       8.126  10.602 -21.926  0.00  0.00    +0.000 C 
ATOM     39  C   UNL     1       6.157  11.974 -22.535  0.00  0.00    +0.000 C 
ATOM     40  C   UNL     1       6.221  13.949 -20.964  0.00  0.00    +0.000 C 
ATOM     41  C   UNL     1       7.306  14.084 -23.266  0.00  0.00    +0.000 C 
ATOM     42  C   UNL     1       7.068  10.258 -24.131  0.00  0.00    +0.000 C 
BRANCH  35  43
ATOM     43  O   UNL     1       6.038   9.622 -22.134  0.00  0.00    +0.000 OA
ATOM     44  H   UNL     1       5.291   9.639 -22.760  0.00  0.00    +0.000 HD
ENDBRANCH  35  43
BRANCH  37  45
ATOM     45  O   UNL     1      10.354  11.484 -21.527  0.00  0.00    +0.000 OA
BRANCH  45  47
ATOM     46  O   UNL     1      11.744  12.798 -20.169  0.00  0.00    +0.000 OA
ATOM     47  C   UNL     1      11.040  11.835 -20.412  0.00  0.00    +0.000 C 
ATOM     48  C   UNL     1      10.921  10.863 -19.292  0.00  0.00    +0.000 C 
ENDBRANCH  45  47
ENDBRANCH  37  45
ENDBRANCH  32  39
ENDBRANCH  30  33
ENDBRANCH  29  30
ENDBRANCH  27  29
ENDBRANCH  26  28
ENDBRANCH   1  25
TORSDOF 13
ENDMDL
MODEL 3
REMARK VINA RESULT:      -6.0     27.315     31.517
REMARK  Name = 5289155_Peridinin.pdbqt.pdb
REMARK  13 active torsions:
REMARK  status: ('A' for Active; 'I' for Inactive)
REMARK    1  A    between atoms: C_1  and  C_3
REMARK    2  A    between atoms: C_3  and  C_25
REMARK    3  A    between atoms: C_6  and  C_12
REMARK    4  A    between atoms: C_11  and  C_14
REMARK    5  A    between atoms: C_19  and  O_23
REMARK    6  A    between atoms: C_26  and  C_28
REMARK    7  A    between atoms: C_27  and  C_31
REMARK    8  A    between atoms: C_29  and  C_31
REMARK    9  A    between atoms: C_29  and  C_42
REMARK   10  A    between atoms: C_33  and  O_43
REMARK   11  A    between atoms: C_35  and  O_45
REMARK   12  A    between atoms: C_37  and  C_41
REMARK   13  A    between atoms: O_45  and  C_47
REMARK                            x       y       z     vdW  Elec       q    Type
REMARK                         _______ _______ _______ _____ _____    ______ ____
ROOT
ATOM      1  C   UNL     1     -13.401  -5.343  -1.400  0.00  0.00    +0.000 C 
ENDROOT
BRANCH   1   2
ATOM      2  C   UNL     1     -12.903  -4.626  -0.443  0.00  0.00    +0.000 C 
ATOM      3  C   UNL     1     -13.728  -4.306   0.766  0.00  0.00    +0.000 C 
ATOM      4  O   UNL     1      -9.755  -3.546  -1.828  0.00  0.00    +0.000 OA
ATOM      5  O   UNL     1      -7.840  -2.344  -2.338  0.00  0.00    +0.000 OA
ATOM      6  C   UNL     1      -8.666  -2.478  -0.072  0.00  0.00    +0.000 C 
ATOM      7  C   UNL     1      -9.680  -3.080   0.433  0.00  0.00    +0.000 C 
ATOM      8  C   UNL     1      -8.655  -2.749  -1.529  0.00  0.00    +0.000 C 
ATOM      9  C   UNL     1     -10.344  -3.760  -0.585  0.00  0.00    +0.000 C 
ATOM     10  C   UNL     1     -11.567  -4.173  -0.519  0.00  0.00    +0.000 C 
BRANCH   6  12
ATOM     11  C   UNL     1      -6.994  -1.024   1.306  0.00  0.00    +0.000 C 
ATOM     12  C   UNL     1      -7.761  -1.693   0.667  0.00  0.00    +0.000 C 
BRANCH  11  14
ATOM     13  O   UNL     1      -6.820   0.649   2.995  0.00  0.00    +0.000 OA
ATOM     14  C   UNL     1      -6.074  -0.213   2.087  0.00  0.00    +0.000 C 
ATOM     15  C   UNL     1      -6.044  -0.369   3.622  0.00  0.00    +0.000 C 
ATOM     16  C   UNL     1      -4.823   0.424   1.387  0.00  0.00    +0.000 C 
ATOM     17  C   UNL     1      -4.911   0.162   4.311  0.00  0.00    +0.000 C 
ATOM     18  C   UNL     1      -3.936   0.907   2.450  0.00  0.00    +0.000 C 
ATOM     19  C   UNL     1      -3.782   0.860   3.848  0.00  0.00    +0.000 C 
ATOM     20  C   UNL     1      -6.884  -1.399   4.383  0.00  0.00    +0.000 C 
ATOM     21  C   UNL     1      -4.153  -0.730   0.595  0.00  0.00    +0.000 C 
ATOM     22  C   UNL     1      -5.355   1.547   0.471  0.00  0.00    +0.000 C 
BRANCH  19  23
ATOM     23  O   UNL     1      -2.554   0.736   4.425  0.00  0.00    +0.000 OA
ATOM     24  H   UNL     1      -2.137  -0.121   4.228  0.00  0.00    +0.000 HD
ENDBRANCH  19  23
ENDBRANCH  11  14
ENDBRANCH   6  12
ENDBRANCH   1   2
BRANCH   1  25
ATOM     25  C   UNL     1     -13.991  -6.191  -2.533  0.00  0.00    +0.000 C 
ATOM     26  C   UNL     1     -14.455  -6.851  -3.422  0.00  0.00    +0.000 C 
BRANCH  26  28
ATOM     27  C   UNL     1     -15.520  -8.345  -5.445  0.00  0.00    +0.000 C 
ATOM     28  C   UNL     1     -15.052  -7.686  -4.559  0.00  0.00    +0.000 C 
BRANCH  27  29
ATOM     29  C   UNL     1     -16.117  -9.193  -6.575  0.00  0.00    +0.000 C 
BRANCH  29  30
ATOM     30  C   UNL     1     -16.627  -9.915  -7.522  0.00  0.00    +0.000 C 
ATOM     31  C   UNL     1     -18.084 -10.264  -7.507  0.00  0.00    +0.000 C 
BRANCH  30  33
ATOM     32  C   UNL     1     -15.088 -10.855  -9.423  0.00  0.00    +0.000 C 
ATOM     33  C   UNL     1     -15.793 -10.424  -8.550  0.00  0.00    +0.000 C 
BRANCH  32  39
ATOM     34  C   UNL     1     -14.880 -11.903 -11.691  0.00  0.00    +0.000 C 
ATOM     35  C   UNL     1     -12.803 -11.364 -10.220  0.00  0.00    +0.000 C 
ATOM     36  C   UNL     1     -13.825 -12.063 -12.701  0.00  0.00    +0.000 C 
ATOM     37  C   UNL     1     -12.426 -11.934 -12.815  0.00  0.00    +0.000 C 
ATOM     38  C   UNL     1     -12.112 -11.576 -11.487  0.00  0.00    +0.000 C 
ATOM     39  C   UNL     1     -14.314 -11.322 -10.382  0.00  0.00    +0.000 C 
ATOM     40  C   UNL     1     -15.951 -10.924 -12.263  0.00  0.00    +0.000 C 
ATOM     41  C   UNL     1     -15.530 -13.278 -11.382  0.00  0.00    +0.000 C 
ATOM     42  C   UNL     1     -12.393 -12.411  -9.180  0.00  0.00    +0.000 C 
BRANCH  35  43
ATOM     43  O   UNL     1     -12.359 -10.133  -9.693  0.00  0.00    +0.000 OA
ATOM     44  H   UNL     1     -12.917 -10.053  -8.896  0.00  0.00    +0.000 HD
ENDBRANCH  35  43
BRANCH  37  45
ATOM     45  O   UNL     1     -11.706 -12.929 -13.463  0.00  0.00    +0.000 OA
BRANCH  45  47
ATOM     46  O   UNL     1     -11.358 -11.962 -15.571  0.00  0.00    +0.000 OA
ATOM     47  C   UNL     1     -11.825 -12.785 -14.806  0.00  0.00    +0.000 C 
ATOM     48  C   UNL     1     -12.689 -13.809 -15.454  0.00  0.00    +0.000 C 
ENDBRANCH  45  47
ENDBRANCH  37  45
ENDBRANCH  32  39
ENDBRANCH  30  33
ENDBRANCH  29  30
ENDBRANCH  27  29
ENDBRANCH  26  28
ENDBRANCH   1  25
TORSDOF 13
ENDMDL
MODEL 4
REMARK VINA RESULT:      -5.9      4.589     18.771
REMARK  Name = 5289155_Peridinin.pdbqt.pdb
REMARK  13 active torsions:
REMARK  status: ('A' for Active; 'I' for Inactive)
REMARK    1  A    between atoms: C_1  and  C_3
REMARK    2  A    between atoms: C_3  and  C_25
REMARK    3  A    between atoms: C_6  and  C_12
REMARK    4  A    between atoms: C_11  and  C_14
REMARK    5  A    between atoms: C_19  and  O_23
REMARK    6  A    between atoms: C_26  and  C_28
REMARK    7  A    between atoms: C_27  and  C_31
REMARK    8  A    between atoms: C_29  and  C_31
REMARK    9  A    between atoms: C_29  and  C_42
REMARK   10  A    between atoms: C_33  and  O_43
REMARK   11  A    between atoms: C_35  and  O_45
REMARK   12  A    between atoms: C_37  and  C_41
REMARK   13  A    between atoms: O_45  and  C_47
REMARK                            x       y       z     vdW  Elec       q    Type
REMARK                         _______ _______ _______ _____ _____    ______ ____
ROOT
ATOM      1  C   UNL     1      -3.848  15.202 -17.926  0.00  0.00    +0.000 C 
ENDROOT
BRANCH   1   2
ATOM      2  C   UNL     1      -4.751  15.671 -17.124  0.00  0.00    +0.000 C 
ATOM      3  C   UNL     1      -6.202  15.567 -17.480  0.00  0.00    +0.000 C 
ATOM      4  O   UNL     1      -2.779  17.380 -14.638  0.00  0.00    +0.000 OA
ATOM      5  O   UNL     1      -2.036  18.850 -13.007  0.00  0.00    +0.000 OA
ATOM      6  C   UNL     1      -4.305  18.021 -13.003  0.00  0.00    +0.000 C 
ATOM      7  C   UNL     1      -4.919  17.211 -13.786  0.00  0.00    +0.000 C 
ATOM      8  C   UNL     1      -2.914  18.164 -13.496  0.00  0.00    +0.000 C 
ATOM      9  C   UNL     1      -4.028  16.779 -14.764  0.00  0.00    +0.000 C 
ATOM     10  C   UNL     1      -4.371  16.250 -15.892  0.00  0.00    +0.000 C 
BRANCH   6  12
ATOM     11  C   UNL     1      -5.404  19.200 -10.952  0.00  0.00    +0.000 C 
ATOM     12  C   UNL     1      -4.896  18.653 -11.893  0.00  0.00    +0.000 C 
BRANCH  11  14
ATOM     13  O   UNL     1      -6.121  18.954  -8.692  0.00  0.00    +0.000 OA
ATOM     14  C   UNL     1      -6.019  19.872  -9.818  0.00  0.00    +0.000 C 
ATOM     15  C   UNL     1      -5.215  20.039  -8.511  0.00  0.00    +0.000 C 
ATOM     16  C   UNL     1      -7.242  20.825 -10.056  0.00  0.00    +0.000 C 
ATOM     17  C   UNL     1      -5.698  20.993  -7.565  0.00  0.00    +0.000 C 
ATOM     18  C   UNL     1      -7.444  21.583  -8.818  0.00  0.00    +0.000 C 
ATOM     19  C   UNL     1      -6.830  21.825  -7.575  0.00  0.00    +0.000 C 
ATOM     20  C   UNL     1      -3.756  19.601  -8.355  0.00  0.00    +0.000 C 
ATOM     21  C   UNL     1      -6.819  21.768 -11.214  0.00  0.00    +0.000 C 
ATOM     22  C   UNL     1      -8.438  19.921 -10.429  0.00  0.00    +0.000 C 
BRANCH  19  23
ATOM     23  O   UNL     1      -6.838  23.064  -7.008  0.00  0.00    +0.000 OA
ATOM     24  H   UNL     1      -6.443  23.740  -7.588  0.00  0.00    +0.000 HD
ENDBRANCH  19  23
ENDBRANCH  11  14
ENDBRANCH   6  12
ENDBRANCH   1   2
BRANCH   1  25
ATOM     25  C   UNL     1      -2.780  14.646 -18.875  0.00  0.00    +0.000 C 
ATOM     26  C   UNL     1      -1.941  14.211 -19.614  0.00  0.00    +0.000 C 
BRANCH  26  28
ATOM     27  C   UNL     1      -0.023  13.223 -21.290  0.00  0.00    +0.000 C 
ATOM     28  C   UNL     1      -0.864  13.656 -20.552  0.00  0.00    +0.000 C 
BRANCH  27  29
ATOM     29  C   UNL     1       1.046  12.670 -22.240  0.00  0.00    +0.000 C 
BRANCH  29  30
ATOM     30  C   UNL     1       1.944  12.208 -23.051  0.00  0.00    +0.000 C 
ATOM     31  C   UNL     1       1.539  11.433 -24.268  0.00  0.00    +0.000 C 
BRANCH  30  33
ATOM     32  C   UNL     1       4.487  12.540 -22.513  0.00  0.00    +0.000 C 
ATOM     33  C   UNL     1       3.320  12.387 -22.758  0.00  0.00    +0.000 C 
BRANCH  32  39
ATOM     34  C   UNL     1       6.354  14.087 -21.877  0.00  0.00    +0.000 C 
ATOM     35  C   UNL     1       6.752  11.560 -22.346  0.00  0.00    +0.000 C 
ATOM     36  C   UNL     1       7.713  13.956 -21.334  0.00  0.00    +0.000 C 
ATOM     37  C   UNL     1       8.690  12.961 -21.129  0.00  0.00    +0.000 C 
ATOM     38  C   UNL     1       8.020  11.852 -21.688  0.00  0.00    +0.000 C 
ATOM     39  C   UNL     1       5.766  12.713 -22.246  0.00  0.00    +0.000 C 
ATOM     40  C   UNL     1       5.460  14.748 -20.783  0.00  0.00    +0.000 C 
ATOM     41  C   UNL     1       6.376  14.975 -23.150  0.00  0.00    +0.000 C 
ATOM     42  C   UNL     1       6.963  11.145 -23.805  0.00  0.00    +0.000 C 
BRANCH  35  43
ATOM     43  O   UNL     1       6.199  10.423 -21.720  0.00  0.00    +0.000 OA
ATOM     44  H   UNL     1       5.261  10.498 -21.978  0.00  0.00    +0.000 HD
ENDBRANCH  35  43
BRANCH  37  45
ATOM     45  O   UNL     1      10.010  13.229 -21.469  0.00  0.00    +0.000 OA
BRANCH  45  47
ATOM     46  O   UNL     1      10.722  13.539 -19.256  0.00  0.00    +0.000 OA
ATOM     47  C   UNL     1      10.638  13.837 -20.433  0.00  0.00    +0.000 C 
ATOM     48  C   UNL     1      11.341  15.096 -20.800  0.00  0.00    +0.000 C 
ENDBRANCH  45  47
ENDBRANCH  37  45
ENDBRANCH  32  39
ENDBRANCH  30  33
ENDBRANCH  29  30
ENDBRANCH  27  29
ENDBRANCH  26  28
ENDBRANCH   1  25
TORSDOF 13
ENDMDL
MODEL 5
REMARK VINA RESULT:      -5.9      1.567      2.583
REMARK  Name = 5289155_Peridinin.pdbqt.pdb
REMARK  13 active torsions:
REMARK  status: ('A' for Active; 'I' for Inactive)
REMARK    1  A    between atoms: C_1  and  C_3
REMARK    2  A    between atoms: C_3  and  C_25
REMARK    3  A    between atoms: C_6  and  C_12
REMARK    4  A    between atoms: C_11  and  C_14
REMARK    5  A    between atoms: C_19  and  O_23
REMARK    6  A    between atoms: C_26  and  C_28
REMARK    7  A    between atoms: C_27  and  C_31
REMARK    8  A    between atoms: C_29  and  C_31
REMARK    9  A    between atoms: C_29  and  C_42
REMARK   10  A    between atoms: C_33  and  O_43
REMARK   11  A    between atoms: C_35  and  O_45
REMARK   12  A    between atoms: C_37  and  C_41
REMARK   13  A    between atoms: O_45  and  C_47
REMARK                            x       y       z     vdW  Elec       q    Type
REMARK                         _______ _______ _______ _____ _____    ______ ____
ROOT
ATOM      1  C   UNL     1       1.757  12.419 -23.038  0.00  0.00    +0.000 C 
ENDROOT
BRANCH   1   2
ATOM      2  C   UNL     1       2.639  12.065 -23.919  0.00  0.00    +0.000 C 
ATOM      3  C   UNL     1       2.216  11.734 -25.317  0.00  0.00    +0.000 C 
ATOM      4  O   UNL     1       5.636  11.747 -21.943  0.00  0.00    +0.000 OA
ATOM      5  O   UNL     1       7.705  11.102 -21.119  0.00  0.00    +0.000 OA
ATOM      6  C   UNL     1       7.335  11.383 -23.490  0.00  0.00    +0.000 C 
ATOM      7  C   UNL     1       6.296  11.734 -24.156  0.00  0.00    +0.000 C 
ATOM      8  C   UNL     1       6.974  11.382 -22.052  0.00  0.00    +0.000 C 
ATOM      9  C   UNL     1       5.262  11.993 -23.260  0.00  0.00    +0.000 C 
ATOM     10  C   UNL     1       4.008  12.026 -23.573  0.00  0.00    +0.000 C 
BRANCH   6  12
ATOM     11  C   UNL     1       9.631  10.773 -24.568  0.00  0.00    +0.000 C 
ATOM     12  C   UNL     1       8.573  11.049 -24.069  0.00  0.00    +0.000 C 
BRANCH  11  14
ATOM     13  O   UNL     1      11.269   9.069 -24.875  0.00  0.00    +0.000 OA
ATOM     14  C   UNL     1      10.910  10.448 -25.178  0.00  0.00    +0.000 C 
ATOM     15  C   UNL     1      10.978   9.335 -26.245  0.00  0.00    +0.000 C 
ATOM     16  C   UNL     1      12.075  11.498 -25.134  0.00  0.00    +0.000 C 
ATOM     17  C   UNL     1      12.147   9.286 -27.064  0.00  0.00    +0.000 C 
ATOM     18  C   UNL     1      13.103  11.039 -26.072  0.00  0.00    +0.000 C 
ATOM     19  C   UNL     1      13.316  10.067 -27.069  0.00  0.00    +0.000 C 
ATOM     20  C   UNL     1       9.747   8.590 -26.768  0.00  0.00    +0.000 C 
ATOM     21  C   UNL     1      11.451  12.835 -25.616  0.00  0.00    +0.000 C 
ATOM     22  C   UNL     1      12.559  11.559 -23.669  0.00  0.00    +0.000 C 
BRANCH  19  23
ATOM     23  O   UNL     1      14.002  10.357 -28.209  0.00  0.00    +0.000 OA
ATOM     24  H   UNL     1      14.935  10.080 -28.161  0.00  0.00    +0.000 HD
ENDBRANCH  19  23
ENDBRANCH  11  14
ENDBRANCH   6  12
ENDBRANCH   1   2
BRANCH   1  25
ATOM     25  C   UNL     1       0.714  12.837 -21.995  0.00  0.00    +0.000 C 
ATOM     26  C   UNL     1      -0.098  13.167 -21.175  0.00  0.00    +0.000 C 
BRANCH  26  28
ATOM     27  C   UNL     1      -1.933  13.928 -19.300  0.00  0.00    +0.000 C 
ATOM     28  C   UNL     1      -1.129  13.591 -20.125  0.00  0.00    +0.000 C 
BRANCH  27  29
ATOM     29  C   UNL     1      -2.955  14.359 -18.241  0.00  0.00    +0.000 C 
BRANCH  29  30
ATOM     30  C   UNL     1      -3.826  14.721 -17.353  0.00  0.00    +0.000 C 
ATOM     31  C   UNL     1      -3.568  14.480 -15.896  0.00  0.00    +0.000 C 
BRANCH  30  33
ATOM     32  C   UNL     1      -6.095  15.789 -18.111  0.00  0.00    +0.000 C 
ATOM     33  C   UNL     1      -5.055  15.298 -17.763  0.00  0.00    +0.000 C 
BRANCH  32  39
ATOM     34  C   UNL     1      -7.724  17.689 -17.977  0.00  0.00    +0.000 C 
ATOM     35  C   UNL     1      -8.164  15.593 -19.452  0.00  0.00    +0.000 C 
ATOM     36  C   UNL     1      -8.844  18.196 -18.782  0.00  0.00    +0.000 C 
ATOM     37  C   UNL     1      -9.677  17.775 -19.838  0.00  0.00    +0.000 C 
ATOM     38  C   UNL     1      -9.177  16.470 -20.029  0.00  0.00    +0.000 C 
ATOM     39  C   UNL     1      -7.234  16.327 -18.499  0.00  0.00    +0.000 C 
ATOM     40  C   UNL     1      -6.559  18.722 -18.071  0.00  0.00    +0.000 C 
ATOM     41  C   UNL     1      -8.168  17.523 -16.498  0.00  0.00    +0.000 C 
ATOM     42  C   UNL     1      -8.801  14.379 -18.769  0.00  0.00    +0.000 C 
BRANCH  35  43
ATOM     43  O   UNL     1      -7.408  15.057 -20.516  0.00  0.00    +0.000 OA
ATOM     44  H   UNL     1      -8.110  14.691 -21.086  0.00  0.00    +0.000 HD
ENDBRANCH  35  43
BRANCH  37  45
ATOM     45  O   UNL     1     -11.046  17.996 -19.749  0.00  0.00    +0.000 OA
BRANCH  45  47
ATOM     46  O   UNL     1     -11.488  17.144 -17.610  0.00  0.00    +0.000 OA
ATOM     47  C   UNL     1     -11.588  17.170 -18.822  0.00  0.00    +0.000 C 
ATOM     48  C   UNL     1     -12.448  16.097 -19.392  0.00  0.00    +0.000 C 
ENDBRANCH  45  47
ENDBRANCH  37  45
ENDBRANCH  32  39
ENDBRANCH  30  33
ENDBRANCH  29  30
ENDBRANCH  27  29
ENDBRANCH  26  28
ENDBRANCH   1  25
TORSDOF 13
ENDMDL
MODEL 6
REMARK VINA RESULT:      -5.8     27.625     33.086
REMARK  Name = 5289155_Peridinin.pdbqt.pdb
REMARK  13 active torsions:
REMARK  status: ('A' for Active; 'I' for Inactive)
REMARK    1  A    between atoms: C_1  and  C_3
REMARK    2  A    between atoms: C_3  and  C_25
REMARK    3  A    between atoms: C_6  and  C_12
REMARK    4  A    between atoms: C_11  and  C_14
REMARK    5  A    between atoms: C_19  and  O_23
REMARK    6  A    between atoms: C_26  and  C_28
REMARK    7  A    between atoms: C_27  and  C_31
REMARK    8  A    between atoms: C_29  and  C_31
REMARK    9  A    between atoms: C_29  and  C_42
REMARK   10  A    between atoms: C_33  and  O_43
REMARK   11  A    between atoms: C_35  and  O_45
REMARK   12  A    between atoms: C_37  and  C_41
REMARK   13  A    between atoms: O_45  and  C_47
REMARK                            x       y       z     vdW  Elec       q    Type
REMARK                         _______ _______ _______ _____ _____    ______ ____
ROOT
ATOM      1  C   UNL     1      -0.173 -14.287 -20.340  0.00  0.00    +0.000 C 
ENDROOT
BRANCH   1   2
ATOM      2  C   UNL     1      -0.826 -14.149 -21.451  0.00  0.00    +0.000 C 
ATOM      3  C   UNL     1      -0.089 -14.081 -22.753  0.00  0.00    +0.000 C 
ATOM      4  O   UNL     1      -4.197 -13.572 -20.315  0.00  0.00    +0.000 OA
ATOM      5  O   UNL     1      -6.396 -12.862 -20.129  0.00  0.00    +0.000 OA
ATOM      6  C   UNL     1      -5.490 -13.587 -22.248  0.00  0.00    +0.000 C 
ATOM      7  C   UNL     1      -4.327 -14.019 -22.577  0.00  0.00    +0.000 C 
ATOM      8  C   UNL     1      -5.471 -13.290 -20.796  0.00  0.00    +0.000 C 
ATOM      9  C   UNL     1      -3.530 -14.055 -21.436  0.00  0.00    +0.000 C 
ATOM     10  C   UNL     1      -2.238 -14.099 -21.441  0.00  0.00    +0.000 C 
BRANCH   6  12
ATOM     11  C   UNL     1      -7.476 -13.290 -23.914  0.00  0.00    +0.000 C 
ATOM     12  C   UNL     1      -6.558 -13.423 -23.149  0.00  0.00    +0.000 C 
BRANCH  11  14
ATOM     13  O   UNL     1      -9.599 -12.263 -24.256  0.00  0.00    +0.000 OA
ATOM     14  C   UNL     1      -8.590 -13.139 -24.836  0.00  0.00    +0.000 C 
ATOM     15  C   UNL     1      -8.923 -11.741 -25.397  0.00  0.00    +0.000 C 
ATOM     16  C   UNL     1      -9.118 -14.391 -25.619  0.00  0.00    +0.000 C 
ATOM     17  C   UNL     1      -9.769 -11.682 -26.546  0.00  0.00    +0.000 C 
ATOM     18  C   UNL     1     -10.006 -13.895 -26.675  0.00  0.00    +0.000 C 
ATOM     19  C   UNL     1     -10.414 -12.692 -27.281  0.00  0.00    +0.000 C 
ATOM     20  C   UNL     1      -8.091 -10.490 -25.099  0.00  0.00    +0.000 C 
ATOM     21  C   UNL     1      -7.861 -15.064 -26.231  0.00  0.00    +0.000 C 
ATOM     22  C   UNL     1      -9.831 -15.290 -24.585  0.00  0.00    +0.000 C 
BRANCH  19  23
ATOM     23  O   UNL     1     -10.619 -12.607 -28.625  0.00  0.00    +0.000 OA
ATOM     24  H   UNL     1      -9.831 -12.288 -29.101  0.00  0.00    +0.000 HD
ENDBRANCH  19  23
ENDBRANCH  11  14
ENDBRANCH   6  12
ENDBRANCH   1   2
BRANCH   1  25
ATOM     25  C   UNL     1       0.599 -14.450 -19.026  0.00  0.00    +0.000 C 
ATOM     26  C   UNL     1       1.206 -14.583 -17.999  0.00  0.00    +0.000 C 
BRANCH  26  28
ATOM     27  C   UNL     1       2.589 -14.893 -15.664  0.00  0.00    +0.000 C 
ATOM     28  C   UNL     1       1.984 -14.758 -16.692  0.00  0.00    +0.000 C 
BRANCH  27  29
ATOM     29  C   UNL     1       3.358 -15.060 -14.348  0.00  0.00    +0.000 C 
BRANCH  29  30
ATOM     30  C   UNL     1       4.004 -15.191 -13.233  0.00  0.00    +0.000 C 
ATOM     31  C   UNL     1       3.450 -14.617 -11.965  0.00  0.00    +0.000 C 
BRANCH  30  33
ATOM     32  C   UNL     1       6.342 -16.374 -13.209  0.00  0.00    +0.000 C 
ATOM     33  C   UNL     1       5.269 -15.833 -13.220  0.00  0.00    +0.000 C 
BRANCH  32  39
ATOM     34  C   UNL     1       8.494 -16.902 -14.380  0.00  0.00    +0.000 C 
ATOM     35  C   UNL     1       7.959 -17.803 -11.999  0.00  0.00    +0.000 C 
ATOM     36  C   UNL     1       9.834 -17.369 -13.996  0.00  0.00    +0.000 C 
ATOM     37  C   UNL     1      10.486 -17.950 -12.890  0.00  0.00    +0.000 C 
ATOM     38  C   UNL     1       9.392 -18.076 -12.009  0.00  0.00    +0.000 C 
ATOM     39  C   UNL     1       7.520 -16.966 -13.190  0.00  0.00    +0.000 C 
ATOM     40  C   UNL     1       8.620 -15.423 -14.859  0.00  0.00    +0.000 C 
ATOM     41  C   UNL     1       7.934 -17.785 -15.528  0.00  0.00    +0.000 C 
ATOM     42  C   UNL     1       7.144 -19.097 -11.908  0.00  0.00    +0.000 C 
BRANCH  35  43
ATOM     43  O   UNL     1       7.666 -17.103 -10.809  0.00  0.00    +0.000 OA
ATOM     44  H   UNL     1       8.477 -16.575 -10.691  0.00  0.00    +0.000 HD
ENDBRANCH  35  43
BRANCH  37  45
ATOM     45  O   UNL     1      11.347 -19.020 -13.098  0.00  0.00    +0.000 OA
BRANCH  45  47
ATOM     46  O   UNL     1      13.675 -19.229 -12.896  0.00  0.00    +0.000 OA
ATOM     47  C   UNL     1      12.603 -18.682 -12.715  0.00  0.00    +0.000 C 
ATOM     48  C   UNL     1      12.680 -17.426 -11.920  0.00  0.00    +0.000 C 
ENDBRANCH  45  47
ENDBRANCH  37  45
ENDBRANCH  32  39
ENDBRANCH  30  33
ENDBRANCH  29  30
ENDBRANCH  27  29
ENDBRANCH  26  28
ENDBRANCH   1  25
TORSDOF 13
ENDMDL
MODEL 7
REMARK VINA RESULT:      -5.8     21.312     27.891
REMARK  Name = 5289155_Peridinin.pdbqt.pdb
REMARK  13 active torsions:
REMARK  status: ('A' for Active; 'I' for Inactive)
REMARK    1  A    between atoms: C_1  and  C_3
REMARK    2  A    between atoms: C_3  and  C_25
REMARK    3  A    between atoms: C_6  and  C_12
REMARK    4  A    between atoms: C_11  and  C_14
REMARK    5  A    between atoms: C_19  and  O_23
REMARK    6  A    between atoms: C_26  and  C_28
REMARK    7  A    between atoms: C_27  and  C_31
REMARK    8  A    between atoms: C_29  and  C_31
REMARK    9  A    between atoms: C_29  and  C_42
REMARK   10  A    between atoms: C_33  and  O_43
REMARK   11  A    between atoms: C_35  and  O_45
REMARK   12  A    between atoms: C_37  and  C_41
REMARK   13  A    between atoms: O_45  and  C_47
REMARK                            x       y       z     vdW  Elec       q    Type
REMARK                         _______ _______ _______ _____ _____    ______ ____
ROOT
ATOM      1  C   UNL     1      15.399  -5.204 -10.340  0.00  0.00    +0.000 C 
ENDROOT
BRANCH   1   2
ATOM      2  C   UNL     1      15.483  -5.331  -9.053  0.00  0.00    +0.000 C 
ATOM      3  C   UNL     1      16.772  -5.036  -8.350  0.00  0.00    +0.000 C 
ATOM      4  O   UNL     1      12.322  -6.841  -8.206  0.00  0.00    +0.000 OA
ATOM      5  O   UNL     1      10.640  -8.067  -7.187  0.00  0.00    +0.000 OA
ATOM      6  C   UNL     1      12.270  -6.853  -5.881  0.00  0.00    +0.000 C 
ATOM      7  C   UNL     1      13.263  -6.117  -6.225  0.00  0.00    +0.000 C 
ATOM      8  C   UNL     1      11.616  -7.343  -7.118  0.00  0.00    +0.000 C 
ATOM      9  C   UNL     1      13.310  -6.059  -7.616  0.00  0.00    +0.000 C 
ATOM     10  C   UNL     1      14.347  -5.712  -8.304  0.00  0.00    +0.000 C 
BRANCH   6  12
ATOM     11  C   UNL     1      11.621  -7.369  -3.407  0.00  0.00    +0.000 C 
ATOM     12  C   UNL     1      11.915  -7.132  -4.548  0.00  0.00    +0.000 C 
BRANCH  11  14
ATOM     13  O   UNL     1      10.158  -8.588  -1.975  0.00  0.00    +0.000 OA
ATOM     14  C   UNL     1      11.277  -7.657  -2.024  0.00  0.00    +0.000 C 
ATOM     15  C   UNL     1      11.399  -9.104  -1.500  0.00  0.00    +0.000 C 
ATOM     16  C   UNL     1      11.264  -6.492  -0.974  0.00  0.00    +0.000 C 
ATOM     17  C   UNL     1      11.401  -9.287  -0.084  0.00  0.00    +0.000 C 
ATOM     18  C   UNL     1      11.195  -7.111   0.353  0.00  0.00    +0.000 C 
ATOM     19  C   UNL     1      11.275  -8.371   0.975  0.00  0.00    +0.000 C 
ATOM     20  C   UNL     1      11.943 -10.263  -2.339  0.00  0.00    +0.000 C 
ATOM     21  C   UNL     1      12.611  -5.744  -1.161  0.00  0.00    +0.000 C 
ATOM     22  C   UNL     1      10.040  -5.611  -1.308  0.00  0.00    +0.000 C 
BRANCH  19  23
ATOM     23  O   UNL     1      11.910  -8.536   2.169  0.00  0.00    +0.000 OA
ATOM     24  H   UNL     1      12.148  -7.686   2.583  0.00  0.00    +0.000 HD
ENDBRANCH  19  23
ENDBRANCH  11  14
ENDBRANCH   6  12
ENDBRANCH   1   2
BRANCH   1  25
ATOM     25  C   UNL     1      15.300  -5.054 -11.863  0.00  0.00    +0.000 C 
ATOM     26  C   UNL     1      15.218  -4.934 -13.054  0.00  0.00    +0.000 C 
BRANCH  26  28
ATOM     27  C   UNL     1      15.023  -4.656 -15.764  0.00  0.00    +0.000 C 
ATOM     28  C   UNL     1      15.108  -4.774 -14.573  0.00  0.00    +0.000 C 
BRANCH  27  29
ATOM     29  C   UNL     1      14.918  -4.509 -17.287  0.00  0.00    +0.000 C 
BRANCH  29  30
ATOM     30  C   UNL     1      14.832  -4.397 -18.574  0.00  0.00    +0.000 C 
ATOM     31  C   UNL     1      15.716  -5.214 -19.467  0.00  0.00    +0.000 C 
BRANCH  30  33
ATOM     32  C   UNL     1      13.177  -2.660 -19.628  0.00  0.00    +0.000 C 
ATOM     33  C   UNL     1      13.935  -3.457 -19.143  0.00  0.00    +0.000 C 
BRANCH  32  39
ATOM     34  C   UNL     1      12.524  -1.244 -21.591  0.00  0.00    +0.000 C 
ATOM     35  C   UNL     1      11.175  -1.231 -19.367  0.00  0.00    +0.000 C 
ATOM     36  C   UNL     1      11.316  -0.545 -22.050  0.00  0.00    +0.000 C 
ATOM     37  C   UNL     1      10.063  -0.137 -21.550  0.00  0.00    +0.000 C 
ATOM     38  C   UNL     1      10.186  -0.574 -20.215  0.00  0.00    +0.000 C 
ATOM     39  C   UNL     1      12.343  -1.790 -20.163  0.00  0.00    +0.000 C 
ATOM     40  C   UNL     1      12.791  -2.433 -22.563  0.00  0.00    +0.000 C 
ATOM     41  C   UNL     1      13.733  -0.271 -21.599  0.00  0.00    +0.000 C 
ATOM     42  C   UNL     1      11.667  -0.297 -18.257  0.00  0.00    +0.000 C 
BRANCH  35  43
ATOM     43  O   UNL     1      10.526  -2.287 -18.693  0.00  0.00    +0.000 OA
ATOM     44  H   UNL     1      10.658  -3.024 -19.318  0.00  0.00    +0.000 HD
ENDBRANCH  35  43
BRANCH  37  45
ATOM     45  O   UNL     1       9.608   1.145 -21.830  0.00  0.00    +0.000 OA
BRANCH  45  47
ATOM     46  O   UNL     1       9.606   2.365 -19.827  0.00  0.00    +0.000 OA
ATOM     47  C   UNL     1      10.068   2.013 -20.896  0.00  0.00    +0.000 C 
ATOM     48  C   UNL     1      11.363   2.656 -21.248  0.00  0.00    +0.000 C 
ENDBRANCH  45  47
ENDBRANCH  37  45
ENDBRANCH  32  39
ENDBRANCH  30  33
ENDBRANCH  29  30
ENDBRANCH  27  29
ENDBRANCH  26  28
ENDBRANCH   1  25
TORSDOF 13
ENDMDL
MODEL 8
REMARK VINA RESULT:      -5.7     16.593     20.222
REMARK  Name = 5289155_Peridinin.pdbqt.pdb
REMARK  13 active torsions:
REMARK  status: ('A' for Active; 'I' for Inactive)
REMARK    1  A    between atoms: C_1  and  C_3
REMARK    2  A    between atoms: C_3  and  C_25
REMARK    3  A    between atoms: C_6  and  C_12
REMARK    4  A    between atoms: C_11  and  C_14
REMARK    5  A    between atoms: C_19  and  O_23
REMARK    6  A    between atoms: C_26  and  C_28
REMARK    7  A    between atoms: C_27  and  C_31
REMARK    8  A    between atoms: C_29  and  C_31
REMARK    9  A    between atoms: C_29  and  C_42
REMARK   10  A    between atoms: C_33  and  O_43
REMARK   11  A    between atoms: C_35  and  O_45
REMARK   12  A    between atoms: C_37  and  C_41
REMARK   13  A    between atoms: O_45  and  C_47
REMARK                            x       y       z     vdW  Elec       q    Type
REMARK                         _______ _______ _______ _____ _____    ______ ____
ROOT
ATOM      1  C   UNL     1      11.197  10.847  -9.197  0.00  0.00    +0.000 C 
ENDROOT
BRANCH   1   2
ATOM      2  C   UNL     1      11.580  11.645 -10.144  0.00  0.00    +0.000 C 
ATOM      3  C   UNL     1      11.816  13.096  -9.857  0.00  0.00    +0.000 C 
ATOM      4  O   UNL     1      11.336   9.560 -13.074  0.00  0.00    +0.000 OA
ATOM      5  O   UNL     1      11.060   8.785 -15.241  0.00  0.00    +0.000 OA
ATOM      6  C   UNL     1      12.269  10.827 -14.787  0.00  0.00    +0.000 C 
ATOM      7  C   UNL     1      12.546  11.429 -13.689  0.00  0.00    +0.000 C 
ATOM      8  C   UNL     1      11.496   9.607 -14.455  0.00  0.00    +0.000 C 
ATOM      9  C   UNL     1      12.029  10.683 -12.632  0.00  0.00    +0.000 C 
ATOM     10  C   UNL     1      11.813  11.141 -11.443  0.00  0.00    +0.000 C 
BRANCH   6  12
ATOM     11  C   UNL     1      12.952  11.700 -17.149  0.00  0.00    +0.000 C 
ATOM     12  C   UNL     1      12.640  11.293 -16.062  0.00  0.00    +0.000 C 
BRANCH  11  14
ATOM     13  O   UNL     1      14.033  13.465 -18.331  0.00  0.00    +0.000 OA
ATOM     14  C   UNL     1      13.322  12.200 -18.463  0.00  0.00    +0.000 C 
ATOM     15  C   UNL     1      14.815  12.376 -18.813  0.00  0.00    +0.000 C 
ATOM     16  C   UNL     1      12.297  12.095 -19.645  0.00  0.00    +0.000 C 
ATOM     17  C   UNL     1      15.150  12.520 -20.194  0.00  0.00    +0.000 C 
ATOM     18  C   UNL     1      13.034  12.378 -20.880  0.00  0.00    +0.000 C 
ATOM     19  C   UNL     1      14.348  12.569 -21.347  0.00  0.00    +0.000 C 
ATOM     20  C   UNL     1      15.956  11.975 -17.873  0.00  0.00    +0.000 C 
ATOM     21  C   UNL     1      11.792  10.628 -19.632  0.00  0.00    +0.000 C 
ATOM     22  C   UNL     1      11.176  13.115 -19.349  0.00  0.00    +0.000 C 
BRANCH  19  23
ATOM     23  O   UNL     1      14.756  12.071 -22.548  0.00  0.00    +0.000 OA
ATOM     24  H   UNL     1      15.364  11.317 -22.449  0.00  0.00    +0.000 HD
ENDBRANCH  19  23
ENDBRANCH  11  14
ENDBRANCH   6  12
ENDBRANCH   1   2
BRANCH   1  25
ATOM     25  C   UNL     1      10.744   9.904  -8.077  0.00  0.00    +0.000 C 
ATOM     26  C   UNL     1      10.383   9.167  -7.201  0.00  0.00    +0.000 C 
BRANCH  26  28
ATOM     27  C   UNL     1       9.553   7.496  -5.206  0.00  0.00    +0.000 C 
ATOM     28  C   UNL     1       9.916   8.229  -6.085  0.00  0.00    +0.000 C 
BRANCH  27  29
ATOM     29  C   UNL     1       9.096   6.561  -4.080  0.00  0.00    +0.000 C 
BRANCH  29  30
ATOM     30  C   UNL     1       8.718   5.776  -3.122  0.00  0.00    +0.000 C 
ATOM     31  C   UNL     1       7.902   4.554  -3.421  0.00  0.00    +0.000 C 
BRANCH  30  33
ATOM     32  C   UNL     1       9.292   6.376  -0.637  0.00  0.00    +0.000 C 
ATOM     33  C   UNL     1       9.030   6.100  -1.777  0.00  0.00    +0.000 C 
BRANCH  32  39
ATOM     34  C   UNL     1      11.009   6.636   1.170  0.00  0.00    +0.000 C 
ATOM     35  C   UNL     1       8.475   7.027   1.605  0.00  0.00    +0.000 C 
ATOM     36  C   UNL     1      11.092   7.300   2.479  0.00  0.00    +0.000 C 
ATOM     37  C   UNL     1      10.239   7.888   3.434  0.00  0.00    +0.000 C 
ATOM     38  C   UNL     1       8.993   7.658   2.814  0.00  0.00    +0.000 C 
ATOM     39  C   UNL     1       9.574   6.676   0.615  0.00  0.00    +0.000 C 
ATOM     40  C   UNL     1      11.958   7.389   0.188  0.00  0.00    +0.000 C 
ATOM     41  C   UNL     1      11.449   5.154   1.301  0.00  0.00    +0.000 C 
ATOM     42  C   UNL     1       7.625   5.797   1.938  0.00  0.00    +0.000 C 
BRANCH  35  43
ATOM     43  O   UNL     1       7.580   7.935   1.000  0.00  0.00    +0.000 OA
ATOM     44  H   UNL     1       7.148   8.329   1.781  0.00  0.00    +0.000 HD
ENDBRANCH  35  43
BRANCH  37  45
ATOM     45  O   UNL     1      10.421   7.588   4.778  0.00  0.00    +0.000 OA
BRANCH  45  47
ATOM     46  O   UNL     1       9.775   9.686   5.603  0.00  0.00    +0.000 OA
ATOM     47  C   UNL     1       9.736   8.471   5.545  0.00  0.00    +0.000 C 
ATOM     48  C   UNL     1       8.778   7.841   6.493  0.00  0.00    +0.000 C 
ENDBRANCH  45  47
ENDBRANCH  37  45
ENDBRANCH  32  39
ENDBRANCH  30  33
ENDBRANCH  29  30
ENDBRANCH  27  29
ENDBRANCH  26  28
ENDBRANCH   1  25
TORSDOF 13
ENDMDL
MODEL 9
REMARK VINA RESULT:      -5.7      4.072     18.552
REMARK  Name = 5289155_Peridinin.pdbqt.pdb
REMARK  13 active torsions:
REMARK  status: ('A' for Active; 'I' for Inactive)
REMARK    1  A    between atoms: C_1  and  C_3
REMARK    2  A    between atoms: C_3  and  C_25
REMARK    3  A    between atoms: C_6  and  C_12
REMARK    4  A    between atoms: C_11  and  C_14
REMARK    5  A    between atoms: C_19  and  O_23
REMARK    6  A    between atoms: C_26  and  C_28
REMARK    7  A    between atoms: C_27  and  C_31
REMARK    8  A    between atoms: C_29  and  C_31
REMARK    9  A    between atoms: C_29  and  C_42
REMARK   10  A    between atoms: C_33  and  O_43
REMARK   11  A    between atoms: C_35  and  O_45
REMARK   12  A    between atoms: C_37  and  C_41
REMARK   13  A    between atoms: O_45  and  C_47
REMARK                            x       y       z     vdW  Elec       q    Type
REMARK                         _______ _______ _______ _____ _____    ______ ____
ROOT
ATOM      1  C   UNL     1      -2.789  14.429 -19.127  0.00  0.00    +0.000 C 
ENDROOT
BRANCH   1   2
ATOM      2  C   UNL     1      -3.737  14.907 -18.385  0.00  0.00    +0.000 C 
ATOM      3  C   UNL     1      -5.169  14.738 -18.790  0.00  0.00    +0.000 C 
ATOM      4  O   UNL     1      -1.920  16.798 -15.913  0.00  0.00    +0.000 OA
ATOM      5  O   UNL     1      -1.288  18.370 -14.330  0.00  0.00    +0.000 OA
ATOM      6  C   UNL     1      -3.528  17.468 -14.372  0.00  0.00    +0.000 C 
ATOM      7  C   UNL     1      -4.085  16.601 -15.136  0.00  0.00    +0.000 C 
ATOM      8  C   UNL     1      -2.124  17.632 -14.818  0.00  0.00    +0.000 C 
ATOM      9  C   UNL     1      -3.143  16.151 -16.057  0.00  0.00    +0.000 C 
ATOM     10  C   UNL     1      -3.425  15.557 -17.170  0.00  0.00    +0.000 C 
BRANCH   6  12
ATOM     11  C   UNL     1      -4.733  18.703 -12.415  0.00  0.00    +0.000 C 
ATOM     12  C   UNL     1      -4.183  18.134 -13.319  0.00  0.00    +0.000 C 
BRANCH  11  14
ATOM     13  O   UNL     1      -5.482  18.505 -10.161  0.00  0.00    +0.000 OA
ATOM     14  C   UNL     1      -5.391  19.390 -11.315  0.00  0.00    +0.000 C 
ATOM     15  C   UNL     1      -4.617  19.626 -10.001  0.00  0.00    +0.000 C 
ATOM     16  C   UNL     1      -6.641  20.291 -11.605  0.00  0.00    +0.000 C 
ATOM     17  C   UNL     1      -5.148  20.593  -9.094  0.00  0.00    +0.000 C 
ATOM     18  C   UNL     1      -6.891  21.081 -10.396  0.00  0.00    +0.000 C 
ATOM     19  C   UNL     1      -6.308  21.385  -9.151  0.00  0.00    +0.000 C 
ATOM     20  C   UNL     1      -3.147  19.244  -9.806  0.00  0.00    +0.000 C 
ATOM     21  C   UNL     1      -6.230  21.211 -12.786  0.00  0.00    +0.000 C 
ATOM     22  C   UNL     1      -7.799  19.336 -11.968  0.00  0.00    +0.000 C 
BRANCH  19  23
ATOM     23  O   UNL     1      -6.368  22.641  -8.625  0.00  0.00    +0.000 OA
ATOM     24  H   UNL     1      -7.167  23.122  -8.905  0.00  0.00    +0.000 HD
ENDBRANCH  19  23
ENDBRANCH  11  14
ENDBRANCH   6  12
ENDBRANCH   1   2
BRANCH   1  25
ATOM     25  C   UNL     1      -1.667  13.862 -20.006  0.00  0.00    +0.000 C 
ATOM     26  C   UNL     1      -0.787  13.424 -20.693  0.00  0.00    +0.000 C 
BRANCH  26  28
ATOM     27  C   UNL     1       1.222  12.442 -22.262  0.00  0.00    +0.000 C 
ATOM     28  C   UNL     1       0.341  12.871 -21.571  0.00  0.00    +0.000 C 
BRANCH  27  29
ATOM     29  C   UNL     1       2.345  11.895 -23.152  0.00  0.00    +0.000 C 
BRANCH  29  30
ATOM     30  C   UNL     1       3.286  11.424 -23.907  0.00  0.00    +0.000 C 
ATOM     31  C   UNL     1       2.950  10.585 -25.103  0.00  0.00    +0.000 C 
BRANCH  30  33
ATOM     32  C   UNL     1       5.795  11.853 -23.283  0.00  0.00    +0.000 C 
ATOM     33  C   UNL     1       4.644  11.656 -23.571  0.00  0.00    +0.000 C 
BRANCH  32  39
ATOM     34  C   UNL     1       8.151  11.005 -23.183  0.00  0.00    +0.000 C 
ATOM     35  C   UNL     1       7.492  13.362 -22.302  0.00  0.00    +0.000 C 
ATOM     36  C   UNL     1       9.492  11.588 -23.039  0.00  0.00    +0.000 C 
ATOM     37  C   UNL     1      10.091  12.809 -22.668  0.00  0.00    +0.000 C 
ATOM     38  C   UNL     1       8.937  13.553 -22.348  0.00  0.00    +0.000 C 
ATOM     39  C   UNL     1       7.056  12.064 -22.964  0.00  0.00    +0.000 C 
ATOM     40  C   UNL     1       8.028  10.434 -24.629  0.00  0.00    +0.000 C 
ATOM     41  C   UNL     1       7.954   9.867 -22.146  0.00  0.00    +0.000 C 
ATOM     42  C   UNL     1       6.963  13.448 -20.867  0.00  0.00    +0.000 C 
BRANCH  35  43
ATOM     43  O   UNL     1       6.896  14.449 -22.976  0.00  0.00    +0.000 OA
ATOM     44  H   UNL     1       6.712  14.056 -23.850  0.00  0.00    +0.000 HD
ENDBRANCH  35  43
BRANCH  37  45
ATOM     45  O   UNL     1      11.179  12.793 -21.804  0.00  0.00    +0.000 OA
BRANCH  45  47
ATOM     46  O   UNL     1      12.434  14.680 -22.407  0.00  0.00    +0.000 OA
ATOM     47  C   UNL     1      12.210  13.486 -22.347  0.00  0.00    +0.000 C 
ATOM     48  C   UNL     1      13.243  12.632 -22.995  0.00  0.00    +0.000 C 
ENDBRANCH  45  47
ENDBRANCH  37  45
ENDBRANCH  32  39
ENDBRANCH  30  33
ENDBRANCH  29  30
ENDBRANCH  27  29
ENDBRANCH  26  28
ENDBRANCH   1  25
TORSDOF 13
ENDMDL
