MODEL 1
REMARK VINA RESULT:      -6.2      0.000      0.000
REMARK  Name = 5318517_Andrographolide.pdbqt.pdb
REMARK  6 active torsions:
REMARK  status: ('A' for Active; 'I' for Inactive)
REMARK    1  A    between atoms: C_3  and  C_16
REMARK    2  A    between atoms: C_4  and  C_19
REMARK    3  A    between atoms: C_6  and  O_14
REMARK    4  A    between atoms: C_16  and  O_17
REMARK    5  A    between atoms: C_22  and  C_23
REMARK    6  A    between atoms: C_24  and  O_27
REMARK                            x       y       z     vdW  Elec       q    Type
REMARK                         _______ _______ _______ _____ _____    ______ ____
ROOT
ATOM      1  C   UNL     1      -3.676   0.178 -19.303  0.00  0.00    +0.000 C 
ATOM      2  C   UNL     1      -2.248   0.454 -19.866  0.00  0.00    +0.000 C 
ATOM      3  C   UNL     1      -1.944   1.633 -20.807  0.00  0.00    +0.000 C 
ATOM      4  C   UNL     1      -4.030  -1.301 -18.979  0.00  0.00    +0.000 C 
ATOM      5  C   UNL     1      -4.581   0.696 -20.324  0.00  0.00    +0.000 C 
ATOM      6  C   UNL     1      -3.129   2.194 -21.650  0.00  0.00    +0.000 C 
ATOM      7  C   UNL     1      -1.280  -0.509 -19.464  0.00  0.00    +0.000 C 
ATOM      8  C   UNL     1      -4.411   1.650 -21.457  0.00  0.00    +0.000 C 
ATOM      9  C   UNL     1      -3.815   0.995 -17.982  0.00  0.00    +0.000 C 
ATOM     10  C   UNL     1      -1.652  -1.813 -18.833  0.00  0.00    +0.000 C 
ATOM     11  C   UNL     1      -2.972  -2.241 -18.583  0.00  0.00    +0.000 C 
ATOM     12  C   UNL     1      -0.876   1.148 -21.853  0.00  0.00    +0.000 C 
ATOM     13  C   UNL     1      -3.161  -3.516 -18.238  0.00  0.00    +0.000 C 
ENDROOT
BRANCH   6  14
ATOM     14  O   UNL     1      -2.974   3.334 -22.420  0.00  0.00    +0.000 OA
ATOM     15  H   UNL     1      -2.064   3.434 -22.751  0.00  0.00    +0.000 HD
ENDBRANCH   6  14
BRANCH   4  16
ATOM     16  C   UNL     1      -5.402  -1.724 -18.942  0.00  0.00    +0.000 C 
ATOM     17  C   UNL     1      -6.864  -2.180 -18.913  0.00  0.00    +0.000 C 
BRANCH  17  20
ATOM     18  O   UNL     1     -10.398  -2.493 -19.221  0.00  0.00    +0.000 OA
ATOM     19  O   UNL     1      -9.240  -0.486 -19.493  0.00  0.00    +0.000 OA
ATOM     20  C   UNL     1      -8.098  -2.574 -18.887  0.00  0.00    +0.000 C 
ATOM     21  C   UNL     1      -8.593  -3.904 -18.636  0.00  0.00    +0.000 C 
ATOM     22  C   UNL     1      -9.269  -1.678 -19.241  0.00  0.00    +0.000 C 
ATOM     23  C   UNL     1      -9.950  -3.695 -18.892  0.00  0.00    +0.000 C 
BRANCH  21  24
ATOM     24  O   UNL     1      -7.885  -4.994 -19.058  0.00  0.00    +0.000 OA
ATOM     25  H   UNL     1      -8.364  -5.494 -19.741  0.00  0.00    +0.000 HD
ENDBRANCH  21  24
ENDBRANCH  17  20
ENDBRANCH   4  16
BRANCH   3  26
ATOM     26  C   UNL     1      -1.387   2.740 -19.979  0.00  0.00    +0.000 C 
BRANCH  26  27
ATOM     27  O   UNL     1      -0.883   3.724 -19.228  0.00  0.00    +0.000 OA
ATOM     28  H   UNL     1      -1.146   4.594 -19.581  0.00  0.00    +0.000 HD
ENDBRANCH  26  27
ENDBRANCH   3  26
TORSDOF 6
ENDMDL
MODEL 2
REMARK VINA RESULT:      -6.0      8.547     13.361
REMARK  Name = 5318517_Andrographolide.pdbqt.pdb
REMARK  6 active torsions:
REMARK  status: ('A' for Active; 'I' for Inactive)
REMARK    1  A    between atoms: C_3  and  C_16
REMARK    2  A    between atoms: C_4  and  C_19
REMARK    3  A    between atoms: C_6  and  O_14
REMARK    4  A    between atoms: C_16  and  O_17
REMARK    5  A    between atoms: C_22  and  C_23
REMARK    6  A    between atoms: C_24  and  O_27
REMARK                            x       y       z     vdW  Elec       q    Type
REMARK                         _______ _______ _______ _____ _____    ______ ____
ROOT
ATOM      1  C   UNL     1       4.947   0.371 -19.130  0.00  0.00    +0.000 C 
ATOM      2  C   UNL     1       3.800  -0.113 -20.068  0.00  0.00    +0.000 C 
ATOM      3  C   UNL     1       2.705  -1.088 -19.602  0.00  0.00    +0.000 C 
ATOM      4  C   UNL     1       6.299   0.741 -19.804  0.00  0.00    +0.000 C 
ATOM      5  C   UNL     1       5.144  -0.730 -18.191  0.00  0.00    +0.000 C 
ATOM      6  C   UNL     1       3.053  -2.031 -18.411  0.00  0.00    +0.000 C 
ATOM      7  C   UNL     1       3.896   0.396 -21.395  0.00  0.00    +0.000 C 
ATOM      8  C   UNL     1       4.306  -1.895 -17.786  0.00  0.00    +0.000 C 
ATOM      9  C   UNL     1       4.430   1.639 -18.386  0.00  0.00    +0.000 C 
ATOM     10  C   UNL     1       5.127   1.063 -21.917  0.00  0.00    +0.000 C 
ATOM     11  C   UNL     1       6.318   1.249 -21.184  0.00  0.00    +0.000 C 
ATOM     12  C   UNL     1       2.365  -2.040 -20.806  0.00  0.00    +0.000 C 
ATOM     13  C   UNL     1       7.406   1.641 -21.847  0.00  0.00    +0.000 C 
ENDROOT
BRANCH   6  14
ATOM     14  O   UNL     1       2.086  -2.843 -17.844  0.00  0.00    +0.000 OA
ATOM     15  H   UNL     1       1.279  -2.350 -17.613  0.00  0.00    +0.000 HD
ENDBRANCH   6  14
BRANCH   4  16
ATOM     16  C   UNL     1       7.518   0.711 -19.045  0.00  0.00    +0.000 C 
ATOM     17  C   UNL     1       8.815   0.689 -18.231  0.00  0.00    +0.000 C 
BRANCH  17  20
ATOM     18  O   UNL     1      11.914  -0.148 -16.689  0.00  0.00    +0.000 OA
ATOM     19  O   UNL     1      10.561  -1.683 -17.809  0.00  0.00    +0.000 OA
ATOM     20  C   UNL     1       9.907   0.668 -17.535  0.00  0.00    +0.000 C 
ATOM     21  C   UNL     1      10.547   1.774 -16.868  0.00  0.00    +0.000 C 
ATOM     22  C   UNL     1      10.786  -0.559 -17.394  0.00  0.00    +0.000 C 
ATOM     23  C   UNL     1      11.717   1.139 -16.444  0.00  0.00    +0.000 C 
BRANCH  21  24
ATOM     24  O   UNL     1      10.500   3.027 -17.410  0.00  0.00    +0.000 OA
ATOM     25  H   UNL     1      10.033   3.654 -16.830  0.00  0.00    +0.000 HD
ENDBRANCH  21  24
ENDBRANCH  17  20
ENDBRANCH   4  16
BRANCH   3  26
ATOM     26  C   UNL     1       1.509  -0.280 -19.231  0.00  0.00    +0.000 C 
BRANCH  26  27
ATOM     27  O   UNL     1       0.434   0.437 -18.889  0.00  0.00    +0.000 OA
ATOM     28  H   UNL     1       0.473   0.685 -17.948  0.00  0.00    +0.000 HD
ENDBRANCH  26  27
ENDBRANCH   3  26
TORSDOF 6
ENDMDL
MODEL 3
REMARK VINA RESULT:      -5.8      5.047      7.179
REMARK  Name = 5318517_Andrographolide.pdbqt.pdb
REMARK  6 active torsions:
REMARK  status: ('A' for Active; 'I' for Inactive)
REMARK    1  A    between atoms: C_3  and  C_16
REMARK    2  A    between atoms: C_4  and  C_19
REMARK    3  A    between atoms: C_6  and  O_14
REMARK    4  A    between atoms: C_16  and  O_17
REMARK    5  A    between atoms: C_22  and  C_23
REMARK    6  A    between atoms: C_24  and  O_27
REMARK                            x       y       z     vdW  Elec       q    Type
REMARK                         _______ _______ _______ _____ _____    ______ ____
ROOT
ATOM      1  C   UNL     1       2.948  -1.636 -19.494  0.00  0.00    +0.000 C 
ATOM      2  C   UNL     1       4.142  -2.132 -20.365  0.00  0.00    +0.000 C 
ATOM      3  C   UNL     1       5.212  -1.177 -20.924  0.00  0.00    +0.000 C 
ATOM      4  C   UNL     1       1.633  -2.462 -19.567  0.00  0.00    +0.000 C 
ATOM      5  C   UNL     1       2.704  -0.270 -19.947  0.00  0.00    +0.000 C 
ATOM      6  C   UNL     1       4.803   0.315 -21.114  0.00  0.00    +0.000 C 
ATOM      7  C   UNL     1       4.114  -3.531 -20.627  0.00  0.00    +0.000 C 
ATOM      8  C   UNL     1       3.520   0.721 -20.705  0.00  0.00    +0.000 C 
ATOM      9  C   UNL     1       3.427  -1.644 -18.010  0.00  0.00    +0.000 C 
ATOM     10  C   UNL     1       2.911  -4.378 -20.364  0.00  0.00    +0.000 C 
ATOM     11  C   UNL     1       1.685  -3.903 -19.855  0.00  0.00    +0.000 C 
ATOM     12  C   UNL     1       5.612  -1.689 -22.355  0.00  0.00    +0.000 C 
ATOM     13  C   UNL     1       0.632  -4.721 -19.896  0.00  0.00    +0.000 C 
ENDROOT
BRANCH   6  14
ATOM     14  O   UNL     1       5.740   1.265 -21.484  0.00  0.00    +0.000 OA
ATOM     15  H   UNL     1       5.850   1.317 -22.450  0.00  0.00    +0.000 HD
ENDBRANCH   6  14
BRANCH   4  16
ATOM     16  C   UNL     1       0.377  -1.854 -19.229  0.00  0.00    +0.000 C 
ATOM     17  C   UNL     1      -0.965  -1.214 -18.861  0.00  0.00    +0.000 C 
BRANCH  17  20
ATOM     18  O   UNL     1      -4.186  -0.460 -17.540  0.00  0.00    +0.000 OA
ATOM     19  O   UNL     1      -3.237  -2.591 -17.522  0.00  0.00    +0.000 OA
ATOM     20  C   UNL     1      -2.097  -0.670 -18.541  0.00  0.00    +0.000 C 
ATOM     21  C   UNL     1      -2.488   0.708 -18.701  0.00  0.00    +0.000 C 
ATOM     22  C   UNL     1      -3.203  -1.408 -17.814  0.00  0.00    +0.000 C 
ATOM     23  C   UNL     1      -3.722   0.672 -18.047  0.00  0.00    +0.000 C 
BRANCH  21  24
ATOM     24  O   UNL     1      -1.567   1.707 -18.562  0.00  0.00    +0.000 OA
ATOM     25  H   UNL     1      -1.937   2.478 -18.097  0.00  0.00    +0.000 HD
ENDBRANCH  21  24
ENDBRANCH  17  20
ENDBRANCH   4  16
BRANCH   3  26
ATOM     26  C   UNL     1       6.387  -1.232 -20.009  0.00  0.00    +0.000 C 
BRANCH  26  27
ATOM     27  O   UNL     1       7.448  -1.286 -19.198  0.00  0.00    +0.000 OA
ATOM     28  H   UNL     1       8.122  -0.638 -19.471  0.00  0.00    +0.000 HD
ENDBRANCH  26  27
ENDBRANCH   3  26
TORSDOF 6
ENDMDL
MODEL 4
REMARK VINA RESULT:      -5.8     16.684     18.467
REMARK  Name = 5318517_Andrographolide.pdbqt.pdb
REMARK  6 active torsions:
REMARK  status: ('A' for Active; 'I' for Inactive)
REMARK    1  A    between atoms: C_3  and  C_16
REMARK    2  A    between atoms: C_4  and  C_19
REMARK    3  A    between atoms: C_6  and  O_14
REMARK    4  A    between atoms: C_16  and  O_17
REMARK    5  A    between atoms: C_22  and  C_23
REMARK    6  A    between atoms: C_24  and  O_27
REMARK                            x       y       z     vdW  Elec       q    Type
REMARK                         _______ _______ _______ _____ _____    ______ ____
ROOT
ATOM      1  C   UNL     1     -13.538  10.706  -6.870  0.00  0.00    +0.000 C 
ATOM      2  C   UNL     1     -13.053  11.677  -5.752  0.00  0.00    +0.000 C 
ATOM      3  C   UNL     1     -13.153  13.208  -5.884  0.00  0.00    +0.000 C 
ATOM      4  C   UNL     1     -12.811   9.335  -6.975  0.00  0.00    +0.000 C 
ATOM      5  C   UNL     1     -13.368  11.456  -8.110  0.00  0.00    +0.000 C 
ATOM      6  C   UNL     1     -13.192  13.795  -7.327  0.00  0.00    +0.000 C 
ATOM      7  C   UNL     1     -12.474  11.015  -4.632  0.00  0.00    +0.000 C 
ATOM      8  C   UNL     1     -13.205  12.906  -8.418  0.00  0.00    +0.000 C 
ATOM      9  C   UNL     1     -15.048  10.418  -6.607  0.00  0.00    +0.000 C 
ATOM     10  C   UNL     1     -12.085   9.572  -4.660  0.00  0.00    +0.000 C 
ATOM     11  C   UNL     1     -12.226   8.719  -5.775  0.00  0.00    +0.000 C 
ATOM     12  C   UNL     1     -11.878  13.832  -5.210  0.00  0.00    +0.000 C 
ATOM     13  C   UNL     1     -11.622   7.531  -5.733  0.00  0.00    +0.000 C 
ENDROOT
BRANCH   6  14
ATOM     14  O   UNL     1     -13.414  15.145  -7.537  0.00  0.00    +0.000 OA
ATOM     15  H   UNL     1     -14.191  15.471  -7.050  0.00  0.00    +0.000 HD
ENDBRANCH   6  14
BRANCH   4  16
ATOM     16  C   UNL     1     -12.818   8.605  -8.211  0.00  0.00    +0.000 C 
ATOM     17  C   UNL     1     -12.815   7.831  -9.532  0.00  0.00    +0.000 C 
BRANCH  17  20
ATOM     18  O   UNL     1     -12.708   5.327 -12.064  0.00  0.00    +0.000 OA
ATOM     19  O   UNL     1     -12.107   4.957  -9.840  0.00  0.00    +0.000 OA
ATOM     20  C   UNL     1     -12.807   7.169 -10.647  0.00  0.00    +0.000 C 
ATOM     21  C   UNL     1     -13.185   7.641 -11.955  0.00  0.00    +0.000 C 
ATOM     22  C   UNL     1     -12.485   5.690 -10.738  0.00  0.00    +0.000 C 
ATOM     23  C   UNL     1     -13.096   6.442 -12.665  0.00  0.00    +0.000 C 
BRANCH  21  24
ATOM     24  O   UNL     1     -14.196   8.550 -12.093  0.00  0.00    +0.000 OA
ATOM     25  H   UNL     1     -14.014   9.370 -11.602  0.00  0.00    +0.000 HD
ENDBRANCH  21  24
ENDBRANCH  17  20
ENDBRANCH   4  16
BRANCH   3  26
ATOM     26  C   UNL     1     -14.383  13.644  -5.163  0.00  0.00    +0.000 C 
BRANCH  26  27
ATOM     27  O   UNL     1     -15.485  14.024  -4.510  0.00  0.00    +0.000 OA
ATOM     28  H   UNL     1     -15.420  14.960  -4.245  0.00  0.00    +0.000 HD
ENDBRANCH  26  27
ENDBRANCH   3  26
TORSDOF 6
ENDMDL
MODEL 5
REMARK VINA RESULT:      -5.7      8.533     11.280
REMARK  Name = 5318517_Andrographolide.pdbqt.pdb
REMARK  6 active torsions:
REMARK  status: ('A' for Active; 'I' for Inactive)
REMARK    1  A    between atoms: C_3  and  C_16
REMARK    2  A    between atoms: C_4  and  C_19
REMARK    3  A    between atoms: C_6  and  O_14
REMARK    4  A    between atoms: C_16  and  O_17
REMARK    5  A    between atoms: C_22  and  C_23
REMARK    6  A    between atoms: C_24  and  O_27
REMARK                            x       y       z     vdW  Elec       q    Type
REMARK                         _______ _______ _______ _____ _____    ______ ____
ROOT
ATOM      1  C   UNL     1       6.592   0.070 -19.908  0.00  0.00    +0.000 C 
ATOM      2  C   UNL     1       7.490   1.102 -19.163  0.00  0.00    +0.000 C 
ATOM      3  C   UNL     1       9.027   1.074 -19.244  0.00  0.00    +0.000 C 
ATOM      4  C   UNL     1       5.217  -0.263 -19.262  0.00  0.00    +0.000 C 
ATOM      5  C   UNL     1       7.409  -1.137 -19.992  0.00  0.00    +0.000 C 
ATOM      6  C   UNL     1       9.696  -0.293 -19.581  0.00  0.00    +0.000 C 
ATOM      7  C   UNL     1       6.756   2.031 -18.371  0.00  0.00    +0.000 C 
ATOM      8  C   UNL     1       8.871  -1.398 -19.859  0.00  0.00    +0.000 C 
ATOM      9  C   UNL     1       6.316   0.644 -21.332  0.00  0.00    +0.000 C 
ATOM     10  C   UNL     1       5.310   1.844 -18.040  0.00  0.00    +0.000 C 
ATOM     11  C   UNL     1       4.525   0.745 -18.446  0.00  0.00    +0.000 C 
ATOM     12  C   UNL     1       9.590   1.483 -17.835  0.00  0.00    +0.000 C 
ATOM     13  C   UNL     1       3.326   0.592 -17.882  0.00  0.00    +0.000 C 
ENDROOT
BRANCH   6  14
ATOM     14  O   UNL     1      11.059  -0.378 -19.805  0.00  0.00    +0.000 OA
ATOM     15  H   UNL     1      11.352   0.206 -20.526  0.00  0.00    +0.000 HD
ENDBRANCH   6  14
BRANCH   4  16
ATOM     16  C   UNL     1       4.559  -1.504 -19.561  0.00  0.00    +0.000 C 
ATOM     17  C   UNL     1       3.854  -2.828 -19.869  0.00  0.00    +0.000 C 
BRANCH  17  20
ATOM     18  O   UNL     1       2.975  -6.127 -20.884  0.00  0.00    +0.000 OA
ATOM     19  O   UNL     1       4.940  -5.047 -21.526  0.00  0.00    +0.000 OA
ATOM     20  C   UNL     1       3.249  -3.945 -20.128  0.00  0.00    +0.000 C 
ATOM     21  C   UNL     1       1.967  -4.386 -19.640  0.00  0.00    +0.000 C 
ATOM     22  C   UNL     1       3.872  -5.063 -20.940  0.00  0.00    +0.000 C 
ATOM     23  C   UNL     1       1.964  -5.686 -20.150  0.00  0.00    +0.000 C 
BRANCH  21  24
ATOM     24  O   UNL     1       1.555  -4.047 -18.382  0.00  0.00    +0.000 OA
ATOM     25  H   UNL     1       2.308  -3.870 -17.791  0.00  0.00    +0.000 HD
ENDBRANCH  21  24
ENDBRANCH  17  20
ENDBRANCH   4  16
BRANCH   3  26
ATOM     26  C   UNL     1       9.442   2.070 -20.273  0.00  0.00    +0.000 C 
BRANCH  26  27
ATOM     27  O   UNL     1       9.810   2.971 -21.188  0.00  0.00    +0.000 OA
ATOM     28  H   UNL     1      10.541   2.629 -21.733  0.00  0.00    +0.000 HD
ENDBRANCH  26  27
ENDBRANCH   3  26
TORSDOF 6
ENDMDL
MODEL 6
REMARK VINA RESULT:      -5.6     18.523     20.640
REMARK  Name = 5318517_Andrographolide.pdbqt.pdb
REMARK  6 active torsions:
REMARK  status: ('A' for Active; 'I' for Inactive)
REMARK    1  A    between atoms: C_3  and  C_16
REMARK    2  A    between atoms: C_4  and  C_19
REMARK    3  A    between atoms: C_6  and  O_14
REMARK    4  A    between atoms: C_16  and  O_17
REMARK    5  A    between atoms: C_22  and  C_23
REMARK    6  A    between atoms: C_24  and  O_27
REMARK                            x       y       z     vdW  Elec       q    Type
REMARK                         _______ _______ _______ _____ _____    ______ ____
ROOT
ATOM      1  C   UNL     1     -10.978  -3.619  -0.396  0.00  0.00    +0.000 C 
ATOM      2  C   UNL     1      -9.925  -2.469  -0.423  0.00  0.00    +0.000 C 
ATOM      3  C   UNL     1      -9.908  -1.338   0.621  0.00  0.00    +0.000 C 
ATOM      4  C   UNL     1     -11.356  -4.259  -1.763  0.00  0.00    +0.000 C 
ATOM      5  C   UNL     1     -12.160  -3.023   0.218  0.00  0.00    +0.000 C 
ATOM      6  C   UNL     1     -11.253  -1.015   1.340  0.00  0.00    +0.000 C 
ATOM      7  C   UNL     1      -9.025  -2.546  -1.523  0.00  0.00    +0.000 C 
ATOM      8  C   UNL     1     -12.379  -1.808   1.055  0.00  0.00    +0.000 C 
ATOM      9  C   UNL     1     -10.401  -4.750   0.509  0.00  0.00    +0.000 C 
ATOM     10  C   UNL     1      -9.256  -3.444  -2.695  0.00  0.00    +0.000 C 
ATOM     11  C   UNL     1     -10.374  -4.289  -2.857  0.00  0.00    +0.000 C 
ATOM     12  C   UNL     1      -9.495  -0.013  -0.115  0.00  0.00    +0.000 C 
ATOM     13  C   UNL     1     -10.567  -4.849  -4.052  0.00  0.00    +0.000 C 
ENDROOT
BRANCH   6  14
ATOM     14  O   UNL     1     -11.297  -0.107   2.384  0.00  0.00    +0.000 OA
ATOM     15  H   UNL     1     -12.156   0.348   2.441  0.00  0.00    +0.000 HD
ENDBRANCH   6  14
BRANCH   4  16
ATOM     16  C   UNL     1     -12.613  -4.934  -1.922  0.00  0.00    +0.000 C 
ATOM     17  C   UNL     1     -13.951  -5.661  -2.082  0.00  0.00    +0.000 C 
BRANCH  17  20
ATOM     18  O   UNL     1     -17.083  -7.277  -1.566  0.00  0.00    +0.000 OA
ATOM     19  O   UNL     1     -15.538  -6.859   0.131  0.00  0.00    +0.000 OA
ATOM     20  C   UNL     1     -15.087  -6.272  -2.210  0.00  0.00    +0.000 C 
ATOM     21  C   UNL     1     -15.856  -6.457  -3.414  0.00  0.00    +0.000 C 
ATOM     22  C   UNL     1     -15.878  -6.820  -1.039  0.00  0.00    +0.000 C 
ATOM     23  C   UNL     1     -17.002  -7.038  -2.866  0.00  0.00    +0.000 C 
BRANCH  21  24
ATOM     24  O   UNL     1     -15.864  -5.493  -4.382  0.00  0.00    +0.000 OA
ATOM     25  H   UNL     1     -16.676  -4.956  -4.350  0.00  0.00    +0.000 HD
ENDBRANCH  21  24
ENDBRANCH  17  20
ENDBRANCH   4  16
BRANCH   3  26
ATOM     26  C   UNL     1      -8.893  -1.692   1.653  0.00  0.00    +0.000 C 
BRANCH  26  27
ATOM     27  O   UNL     1      -7.991  -2.006   2.588  0.00  0.00    +0.000 OA
ATOM     28  H   UNL     1      -7.890  -2.972   2.657  0.00  0.00    +0.000 HD
ENDBRANCH  26  27
ENDBRANCH   3  26
TORSDOF 6
ENDMDL
MODEL 7
REMARK VINA RESULT:      -5.6      7.740     12.578
REMARK  Name = 5318517_Andrographolide.pdbqt.pdb
REMARK  6 active torsions:
REMARK  status: ('A' for Active; 'I' for Inactive)
REMARK    1  A    between atoms: C_3  and  C_16
REMARK    2  A    between atoms: C_4  and  C_19
REMARK    3  A    between atoms: C_6  and  O_14
REMARK    4  A    between atoms: C_16  and  O_17
REMARK    5  A    between atoms: C_22  and  C_23
REMARK    6  A    between atoms: C_24  and  O_27
REMARK                            x       y       z     vdW  Elec       q    Type
REMARK                         _______ _______ _______ _____ _____    ______ ____
ROOT
ATOM      1  C   UNL     1       4.038  -1.365 -18.672  0.00  0.00    +0.000 C 
ATOM      2  C   UNL     1       2.669  -1.751 -19.309  0.00  0.00    +0.000 C 
ATOM      3  C   UNL     1       2.439  -3.092 -20.029  0.00  0.00    +0.000 C 
ATOM      4  C   UNL     1       4.383   0.150 -18.609  0.00  0.00    +0.000 C 
ATOM      5  C   UNL     1       5.031  -2.069 -19.478  0.00  0.00    +0.000 C 
ATOM      6  C   UNL     1       3.692  -3.802 -20.625  0.00  0.00    +0.000 C 
ATOM      7  C   UNL     1       1.681  -0.731 -19.200  0.00  0.00    +0.000 C 
ATOM      8  C   UNL     1       4.958  -3.226 -20.416  0.00  0.00    +0.000 C 
ATOM      9  C   UNL     1       4.034  -1.909 -17.210  0.00  0.00    +0.000 C 
ATOM     10  C   UNL     1       2.010   0.671 -18.801  0.00  0.00    +0.000 C 
ATOM     11  C   UNL     1       3.306   1.145 -18.509  0.00  0.00    +0.000 C 
ATOM     12  C   UNL     1       1.486  -2.824 -21.250  0.00  0.00    +0.000 C 
ATOM     13  C   UNL     1       3.480   2.463 -18.402  0.00  0.00    +0.000 C 
ENDROOT
BRANCH   6  14
ATOM     14  O   UNL     1       3.594  -5.071 -21.171  0.00  0.00    +0.000 OA
ATOM     15  H   UNL     1       3.269  -5.054 -22.088  0.00  0.00    +0.000 HD
ENDBRANCH   6  14
BRANCH   4  16
ATOM     16  C   UNL     1       5.751   0.577 -18.519  0.00  0.00    +0.000 C 
ATOM     17  C   UNL     1       7.207   1.042 -18.427  0.00  0.00    +0.000 C 
BRANCH  17  20
ATOM     18  O   UNL     1      10.758   1.300 -18.341  0.00  0.00    +0.000 OA
ATOM     19  O   UNL     1       9.596  -0.719 -18.234  0.00  0.00    +0.000 OA
ATOM     20  C   UNL     1       8.437   1.442 -18.343  0.00  0.00    +0.000 C 
ATOM     21  C   UNL     1       8.927   2.797 -18.382  0.00  0.00    +0.000 C 
ATOM     22  C   UNL     1       9.621   0.497 -18.297  0.00  0.00    +0.000 C 
ATOM     23  C   UNL     1      10.300   2.542 -18.395  0.00  0.00    +0.000 C 
BRANCH  21  24
ATOM     24  O   UNL     1       8.306   3.732 -19.160  0.00  0.00    +0.000 OA
ATOM     25  H   UNL     1       7.649   3.329 -19.754  0.00  0.00    +0.000 HD
ENDBRANCH  21  24
ENDBRANCH  17  20
ENDBRANCH   4  16
BRANCH   3  26
ATOM     26  C   UNL     1       1.786  -4.018 -19.061  0.00  0.00    +0.000 C 
BRANCH  26  27
ATOM     27  O   UNL     1       1.191  -4.848 -18.200  0.00  0.00    +0.000 OA
ATOM     28  H   UNL     1       0.614  -4.354 -17.590  0.00  0.00    +0.000 HD
ENDBRANCH  26  27
ENDBRANCH   3  26
TORSDOF 6
ENDMDL
MODEL 8
REMARK VINA RESULT:      -5.6     19.708     21.873
REMARK  Name = 5318517_Andrographolide.pdbqt.pdb
REMARK  6 active torsions:
REMARK  status: ('A' for Active; 'I' for Inactive)
REMARK    1  A    between atoms: C_3  and  C_16
REMARK    2  A    between atoms: C_4  and  C_19
REMARK    3  A    between atoms: C_6  and  O_14
REMARK    4  A    between atoms: C_16  and  O_17
REMARK    5  A    between atoms: C_22  and  C_23
REMARK    6  A    between atoms: C_24  and  O_27
REMARK                            x       y       z     vdW  Elec       q    Type
REMARK                         _______ _______ _______ _____ _____    ______ ____
ROOT
ATOM      1  C   UNL     1      12.255  10.486 -15.459  0.00  0.00    +0.000 C 
ATOM      2  C   UNL     1      12.579  10.721 -13.953  0.00  0.00    +0.000 C 
ATOM      3  C   UNL     1      11.612  11.449 -13.002  0.00  0.00    +0.000 C 
ATOM      4  C   UNL     1      13.464  10.404 -16.434  0.00  0.00    +0.000 C 
ATOM      5  C   UNL     1      11.392  11.603 -15.830  0.00  0.00    +0.000 C 
ATOM      6  C   UNL     1      10.598  12.443 -13.644  0.00  0.00    +0.000 C 
ATOM      7  C   UNL     1      13.862  10.243 -13.564  0.00  0.00    +0.000 C 
ATOM      8  C   UNL     1      10.571  12.569 -15.045  0.00  0.00    +0.000 C 
ATOM      9  C   UNL     1      11.478   9.138 -15.558  0.00  0.00    +0.000 C 
ATOM     10  C   UNL     1      14.910   9.845 -14.553  0.00  0.00    +0.000 C 
ATOM     11  C   UNL     1      14.763   9.910 -15.954  0.00  0.00    +0.000 C 
ATOM     12  C   UNL     1      12.473  12.309 -12.008  0.00  0.00    +0.000 C 
ATOM     13  C   UNL     1      15.854   9.752 -16.705  0.00  0.00    +0.000 C 
ENDROOT
BRANCH   6  14
ATOM     14  O   UNL     1       9.608  13.037 -12.880  0.00  0.00    +0.000 OA
ATOM     15  H   UNL     1       9.414  13.946 -13.170  0.00  0.00    +0.000 HD
ENDBRANCH   6  14
BRANCH   4  16
ATOM     16  C   UNL     1      13.287  10.686 -17.831  0.00  0.00    +0.000 C 
ATOM     17  C   UNL     1      13.103  10.996 -19.319  0.00  0.00    +0.000 C 
BRANCH  17  20
ATOM     18  O   UNL     1      11.887  11.901 -22.542  0.00  0.00    +0.000 OA
ATOM     19  O   UNL     1      10.515  11.474 -20.705  0.00  0.00    +0.000 OA
ATOM     20  C   UNL     1      12.957  11.258 -20.580  0.00  0.00    +0.000 C 
ATOM     21  C   UNL     1      13.991  11.432 -21.569  0.00  0.00    +0.000 C 
ATOM     22  C   UNL     1      11.615  11.542 -21.225  0.00  0.00    +0.000 C 
ATOM     23  C   UNL     1      13.205  11.826 -22.654  0.00  0.00    +0.000 C 
BRANCH  21  24
ATOM     24  O   UNL     1      15.182  12.006 -21.227  0.00  0.00    +0.000 OA
ATOM     25  H   UNL     1      15.055  12.848 -20.755  0.00  0.00    +0.000 HD
ENDBRANCH  21  24
ENDBRANCH  17  20
ENDBRANCH   4  16
BRANCH   3  26
ATOM     26  C   UNL     1      10.847  10.410 -12.255  0.00  0.00    +0.000 C 
BRANCH  26  27
ATOM     27  O   UNL     1      10.170   9.471 -11.587  0.00  0.00    +0.000 OA
ATOM     28  H   UNL     1       9.214   9.548 -11.761  0.00  0.00    +0.000 HD
ENDBRANCH  26  27
ENDBRANCH   3  26
TORSDOF 6
ENDMDL
MODEL 9
REMARK VINA RESULT:      -5.5     19.244     21.835
REMARK  Name = 5318517_Andrographolide.pdbqt.pdb
REMARK  6 active torsions:
REMARK  status: ('A' for Active; 'I' for Inactive)
REMARK    1  A    between atoms: C_3  and  C_16
REMARK    2  A    between atoms: C_4  and  C_19
REMARK    3  A    between atoms: C_6  and  O_14
REMARK    4  A    between atoms: C_16  and  O_17
REMARK    5  A    between atoms: C_22  and  C_23
REMARK    6  A    between atoms: C_24  and  O_27
REMARK                            x       y       z     vdW  Elec       q    Type
REMARK                         _______ _______ _______ _____ _____    ______ ____
ROOT
ATOM      1  C   UNL     1      12.346  10.721 -14.396  0.00  0.00    +0.000 C 
ATOM      2  C   UNL     1      13.106  10.909 -13.048  0.00  0.00    +0.000 C 
ATOM      3  C   UNL     1      12.569  11.797 -11.911  0.00  0.00    +0.000 C 
ATOM      4  C   UNL     1      13.210  10.428 -15.655  0.00  0.00    +0.000 C 
ATOM      5  C   UNL     1      11.606  11.966 -14.578  0.00  0.00    +0.000 C 
ATOM      6  C   UNL     1      11.591  12.944 -12.308  0.00  0.00    +0.000 C 
ATOM      7  C   UNL     1      14.352  10.223 -12.995  0.00  0.00    +0.000 C 
ATOM      8  C   UNL     1      11.200  13.063 -13.654  0.00  0.00    +0.000 C 
ATOM      9  C   UNL     1      11.366   9.524 -14.208  0.00  0.00    +0.000 C 
ATOM     10  C   UNL     1      15.008   9.646 -14.208  0.00  0.00    +0.000 C 
ATOM     11  C   UNL     1      14.494   9.725 -15.519  0.00  0.00    +0.000 C 
ATOM     12  C   UNL     1      13.797  12.506 -11.234  0.00  0.00    +0.000 C 
ATOM     13  C   UNL     1      15.295   9.378 -16.527  0.00  0.00    +0.000 C 
ENDROOT
BRANCH   6  14
ATOM     14  O   UNL     1      10.959  13.703 -11.338  0.00  0.00    +0.000 OA
ATOM     15  H   UNL     1       9.999  13.548 -11.315  0.00  0.00    +0.000 HD
ENDBRANCH   6  14
BRANCH   4  16
ATOM     16  C   UNL     1      12.703  10.726 -16.965  0.00  0.00    +0.000 C 
ATOM     17  C   UNL     1      12.154  11.034 -18.361  0.00  0.00    +0.000 C 
BRANCH  17  20
ATOM     18  O   UNL     1      11.700  11.853 -21.798  0.00  0.00    +0.000 OA
ATOM     19  O   UNL     1      13.705  12.149 -20.643  0.00  0.00    +0.000 OA
ATOM     20  C   UNL     1      11.683  11.299 -19.539  0.00  0.00    +0.000 C 
ATOM     21  C   UNL     1      10.346  11.068 -20.025  0.00  0.00    +0.000 C 
ATOM     22  C   UNL     1      12.532  11.821 -20.681  0.00  0.00    +0.000 C 
ATOM     23  C   UNL     1      10.525  11.419 -21.364  0.00  0.00    +0.000 C 
BRANCH  21  24
ATOM     24  O   UNL     1       9.636   9.981 -19.598  0.00  0.00    +0.000 OA
ATOM     25  H   UNL     1       9.167   9.545 -20.331  0.00  0.00    +0.000 HD
ENDBRANCH  21  24
ENDBRANCH  17  20
ENDBRANCH   4  16
BRANCH   3  26
ATOM     26  C   UNL     1      11.882  10.909 -10.930  0.00  0.00    +0.000 C 
BRANCH  26  27
ATOM     27  O   UNL     1      11.271  10.103 -10.057  0.00  0.00    +0.000 OA
ATOM     28  H   UNL     1      10.320  10.309 -10.008  0.00  0.00    +0.000 HD
ENDBRANCH  26  27
ENDBRANCH   3  26
TORSDOF 6
ENDMDL
