MODEL 1
REMARK VINA RESULT:      -6.8      0.000      0.000
REMARK  Name = 5326018_Caulerpin.pdbqt.pdb
REMARK  4 active torsions:
REMARK  status: ('A' for Active; 'I' for Inactive)
REMARK    1  A    between atoms: C_11  and  C_26
REMARK    2  A    between atoms: C_12  and  C_30
REMARK    3  A    between atoms: C_26  and  O_27
REMARK    4  A    between atoms: C_30  and  O_31
REMARK                            x       y       z     vdW  Elec       q    Type
REMARK                         _______ _______ _______ _____ _____    ______ ____
ROOT
ATOM      1  N   UNL     1      -9.553  -2.415   2.228  0.00  0.00    +0.000 N 
ATOM      2  N   UNL     1     -13.052  -5.222  -2.523  0.00  0.00    +0.000 N 
ATOM      3  C   UNL     1      -9.757  -2.851   0.064  0.00  0.00    +0.000 C 
ATOM      4  C   UNL     1     -12.600  -5.101  -0.356  0.00  0.00    +0.000 C 
ATOM      5  C   UNL     1     -10.174  -3.258   1.329  0.00  0.00    +0.000 C 
ATOM      6  C   UNL     1     -12.097  -4.804  -1.619  0.00  0.00    +0.000 C 
ATOM      7  C   UNL     1      -8.824  -1.795   0.203  0.00  0.00    +0.000 A 
ATOM      8  C   UNL     1     -13.843  -5.765  -0.498  0.00  0.00    +0.000 A 
ATOM      9  C   UNL     1      -8.711  -1.544   1.570  0.00  0.00    +0.000 A 
ATOM     10  C   UNL     1     -14.101  -5.833  -1.867  0.00  0.00    +0.000 A 
ATOM     11  C   UNL     1     -11.111  -4.262   1.758  0.00  0.00    +0.000 C 
ATOM     12  C   UNL     1     -10.898  -4.129  -2.046  0.00  0.00    +0.000 C 
ATOM     13  C   UNL     1     -11.924  -4.740   0.851  0.00  0.00    +0.000 C 
ATOM     14  C   UNL     1     -10.254  -3.438  -1.141  0.00  0.00    +0.000 C 
ATOM     15  C   UNL     1      -8.077  -1.012  -0.696  0.00  0.00    +0.000 A 
ATOM     16  C   UNL     1     -14.786  -6.301   0.398  0.00  0.00    +0.000 A 
ATOM     17  C   UNL     1      -7.879  -0.547   2.090  0.00  0.00    +0.000 A 
ATOM     18  C   UNL     1     -15.259  -6.417  -2.391  0.00  0.00    +0.000 A 
ATOM     19  C   UNL     1      -7.236  -0.016  -0.193  0.00  0.00    +0.000 A 
ATOM     20  C   UNL     1     -15.944  -6.893  -0.108  0.00  0.00    +0.000 A 
ATOM     21  C   UNL     1      -7.141   0.209   1.176  0.00  0.00    +0.000 A 
ATOM     22  C   UNL     1     -16.172  -6.949  -1.479  0.00  0.00    +0.000 A 
ATOM     23  H   UNL     1      -9.681  -2.400   3.231  0.00  0.00    +0.000 HD
ATOM     24  H   UNL     1     -13.027  -5.106  -3.528  0.00  0.00    +0.000 HD
ENDROOT
BRANCH  11  26
ATOM     25  O   UNL     1     -10.729  -6.024   3.332  0.00  0.00    +0.000 OA
ATOM     26  C   UNL     1     -11.144  -4.893   3.110  0.00  0.00    +0.000 C 
BRANCH  26  27
ATOM     27  O   UNL     1     -11.673  -4.002   3.998  0.00  0.00    +0.000 OA
ATOM     28  C   UNL     1     -11.069  -3.884   5.259  0.00  0.00    +0.000 C 
ENDBRANCH  26  27
ENDBRANCH  11  26
BRANCH  12  30
ATOM     29  O   UNL     1     -10.551  -5.148  -4.184  0.00  0.00    +0.000 OA
ATOM     30  C   UNL     1     -10.265  -4.259  -3.391  0.00  0.00    +0.000 C 
BRANCH  30  31
ATOM     31  O   UNL     1      -9.376  -3.237  -3.558  0.00  0.00    +0.000 OA
ATOM     32  C   UNL     1      -9.227  -2.691  -4.842  0.00  0.00    +0.000 C 
ENDBRANCH  30  31
ENDBRANCH  12  30
TORSDOF 4
ENDMDL
MODEL 2
REMARK VINA RESULT:      -6.5     24.972     29.230
REMARK  Name = 5326018_Caulerpin.pdbqt.pdb
REMARK  4 active torsions:
REMARK  status: ('A' for Active; 'I' for Inactive)
REMARK    1  A    between atoms: C_11  and  C_26
REMARK    2  A    between atoms: C_12  and  C_30
REMARK    3  A    between atoms: C_26  and  O_27
REMARK    4  A    between atoms: C_30  and  O_31
REMARK                            x       y       z     vdW  Elec       q    Type
REMARK                         _______ _______ _______ _____ _____    ______ ____
ROOT
ATOM      1  N   UNL     1       6.369  -1.317 -19.656  0.00  0.00    +0.000 N 
ATOM      2  N   UNL     1      12.053   1.896 -19.896  0.00  0.00    +0.000 N 
ATOM      3  C   UNL     1       7.552   0.439 -19.003  0.00  0.00    +0.000 C 
ATOM      4  C   UNL     1      10.972  -0.016 -20.195  0.00  0.00    +0.000 C 
ATOM      5  C   UNL     1       7.660  -0.850 -19.520  0.00  0.00    +0.000 C 
ATOM      6  C   UNL     1      10.901   1.218 -19.554  0.00  0.00    +0.000 C 
ATOM      7  C   UNL     1       6.187   0.728 -18.763  0.00  0.00    +0.000 A 
ATOM      8  C   UNL     1      12.209  -0.111 -20.878  0.00  0.00    +0.000 A 
ATOM      9  C   UNL     1       5.467  -0.392 -19.176  0.00  0.00    +0.000 A 
ATOM     10  C   UNL     1      12.870   1.099 -20.671  0.00  0.00    +0.000 A 
ATOM     11  C   UNL     1       8.794  -1.624 -19.951  0.00  0.00    +0.000 C 
ATOM     12  C   UNL     1       9.875   1.829 -18.750  0.00  0.00    +0.000 C 
ATOM     13  C   UNL     1       9.914  -0.976 -20.145  0.00  0.00    +0.000 C 
ATOM     14  C   UNL     1       8.685   1.287 -18.797  0.00  0.00    +0.000 C 
ATOM     15  C   UNL     1       5.487   1.836 -18.251  0.00  0.00    +0.000 A 
ATOM     16  C   UNL     1      12.829  -1.097 -21.668  0.00  0.00    +0.000 A 
ATOM     17  C   UNL     1       4.072  -0.465 -19.100  0.00  0.00    +0.000 A 
ATOM     18  C   UNL     1      14.130   1.377 -21.212  0.00  0.00    +0.000 A 
ATOM     19  C   UNL     1       4.094   1.777 -18.163  0.00  0.00    +0.000 A 
ATOM     20  C   UNL     1      14.089  -0.839 -22.210  0.00  0.00    +0.000 A 
ATOM     21  C   UNL     1       3.403   0.645 -18.580  0.00  0.00    +0.000 A 
ATOM     22  C   UNL     1      14.726   0.377 -21.983  0.00  0.00    +0.000 A 
ATOM     23  H   UNL     1       6.086  -2.203 -20.056  0.00  0.00    +0.000 HD
ATOM     24  H   UNL     1      12.294   2.847 -19.644  0.00  0.00    +0.000 HD
ENDROOT
BRANCH  11  26
ATOM     25  O   UNL     1       8.163  -3.737 -20.880  0.00  0.00    +0.000 OA
ATOM     26  C   UNL     1       8.832  -3.111 -20.067  0.00  0.00    +0.000 C 
BRANCH  26  27
ATOM     27  O   UNL     1       9.725  -3.600 -19.158  0.00  0.00    +0.000 OA
ATOM     28  C   UNL     1       9.948  -4.985 -19.126  0.00  0.00    +0.000 C 
ENDBRANCH  26  27
ENDBRANCH  11  26
BRANCH  12  30
ATOM     29  O   UNL     1       9.372   3.935 -17.730  0.00  0.00    +0.000 OA
ATOM     30  C   UNL     1      10.086   2.940 -17.777  0.00  0.00    +0.000 C 
BRANCH  30  31
ATOM     31  O   UNL     1      11.151   2.631 -16.982  0.00  0.00    +0.000 OA
ATOM     32  C   UNL     1      10.909   1.933 -15.789  0.00  0.00    +0.000 C 
ENDBRANCH  30  31
ENDBRANCH  12  30
TORSDOF 4
ENDMDL
MODEL 3
REMARK VINA RESULT:      -6.4     20.051     23.376
REMARK  Name = 5326018_Caulerpin.pdbqt.pdb
REMARK  4 active torsions:
REMARK  status: ('A' for Active; 'I' for Inactive)
REMARK    1  A    between atoms: C_11  and  C_26
REMARK    2  A    between atoms: C_12  and  C_30
REMARK    3  A    between atoms: C_26  and  O_27
REMARK    4  A    between atoms: C_30  and  O_31
REMARK                            x       y       z     vdW  Elec       q    Type
REMARK                         _______ _______ _______ _____ _____    ______ ____
ROOT
ATOM      1  N   UNL     1       3.966  -2.193 -19.405  0.00  0.00    +0.000 N 
ATOM      2  N   UNL     1      -1.520   1.313 -18.860  0.00  0.00    +0.000 N 
ATOM      3  C   UNL     1       2.981  -0.218 -19.615  0.00  0.00    +0.000 C 
ATOM      4  C   UNL     1      -0.594  -0.692 -19.045  0.00  0.00    +0.000 C 
ATOM      5  C   UNL     1       2.734  -1.588 -19.543  0.00  0.00    +0.000 C 
ATOM      6  C   UNL     1      -0.368   0.665 -19.255  0.00  0.00    +0.000 C 
ATOM      7  C   UNL     1       4.379   0.001 -19.587  0.00  0.00    +0.000 A 
ATOM      8  C   UNL     1      -1.919  -0.873 -18.579  0.00  0.00    +0.000 A 
ATOM      9  C   UNL     1       4.974  -1.254 -19.460  0.00  0.00    +0.000 A 
ATOM     10  C   UNL     1      -2.480   0.399 -18.477  0.00  0.00    +0.000 A 
ATOM     11  C   UNL     1       1.511  -2.347 -19.515  0.00  0.00    +0.000 C 
ATOM     12  C   UNL     1       0.793   1.393 -19.698  0.00  0.00    +0.000 C 
ATOM     13  C   UNL     1       0.410  -1.687 -19.264  0.00  0.00    +0.000 C 
ATOM     14  C   UNL     1       1.934   0.754 -19.681  0.00  0.00    +0.000 C 
ATOM     15  C   UNL     1       5.201   1.141 -19.639  0.00  0.00    +0.000 A 
ATOM     16  C   UNL     1      -2.696  -1.990 -18.218  0.00  0.00    +0.000 A 
ATOM     17  C   UNL     1       6.360  -1.430 -19.386  0.00  0.00    +0.000 A 
ATOM     18  C   UNL     1      -3.788   0.616 -18.032  0.00  0.00    +0.000 A 
ATOM     19  C   UNL     1       6.587   0.983 -19.573  0.00  0.00    +0.000 A 
ATOM     20  C   UNL     1      -4.005  -1.791 -17.777  0.00  0.00    +0.000 A 
ATOM     21  C   UNL     1       7.153  -0.282 -19.450  0.00  0.00    +0.000 A 
ATOM     22  C   UNL     1      -4.539  -0.510 -17.688  0.00  0.00    +0.000 A 
ATOM     23  H   UNL     1       4.143  -3.180 -19.270  0.00  0.00    +0.000 HD
ATOM     24  H   UNL     1      -1.674   2.313 -18.830  0.00  0.00    +0.000 HD
ENDROOT
BRANCH  11  26
ATOM     25  O   UNL     1       1.828  -4.264 -20.911  0.00  0.00    +0.000 OA
ATOM     26  C   UNL     1       1.381  -3.789 -19.874  0.00  0.00    +0.000 C 
BRANCH  26  27
ATOM     27  O   UNL     1       0.726  -4.436 -18.866  0.00  0.00    +0.000 OA
ATOM     28  C   UNL     1      -0.297  -5.333 -19.208  0.00  0.00    +0.000 C 
ENDBRANCH  26  27
ENDBRANCH  11  26
BRANCH  12  30
ATOM     29  O   UNL     1       1.552   3.649 -19.950  0.00  0.00    +0.000 OA
ATOM     30  C   UNL     1       0.781   2.761 -20.295  0.00  0.00    +0.000 C 
BRANCH  30  31
ATOM     31  O   UNL     1      -0.185   2.812 -21.258  0.00  0.00    +0.000 OA
ATOM     32  C   UNL     1      -0.997   3.954 -21.323  0.00  0.00    +0.000 C 
ENDBRANCH  30  31
ENDBRANCH  12  30
TORSDOF 4
ENDMDL
MODEL 4
REMARK VINA RESULT:      -6.3     27.492     31.775
REMARK  Name = 5326018_Caulerpin.pdbqt.pdb
REMARK  4 active torsions:
REMARK  status: ('A' for Active; 'I' for Inactive)
REMARK    1  A    between atoms: C_11  and  C_26
REMARK    2  A    between atoms: C_12  and  C_30
REMARK    3  A    between atoms: C_26  and  O_27
REMARK    4  A    between atoms: C_30  and  O_31
REMARK                            x       y       z     vdW  Elec       q    Type
REMARK                         _______ _______ _______ _____ _____    ______ ____
ROOT
ATOM      1  N   UNL     1      12.182   2.225 -18.751  0.00  0.00    +0.000 N 
ATOM      2  N   UNL     1      13.684  -3.657 -21.166  0.00  0.00    +0.000 N 
ATOM      3  C   UNL     1      11.841   0.036 -18.688  0.00  0.00    +0.000 C 
ATOM      4  C   UNL     1      13.695  -1.459 -21.454  0.00  0.00    +0.000 C 
ATOM      5  C   UNL     1      12.329   1.068 -19.487  0.00  0.00    +0.000 C 
ATOM      6  C   UNL     1      13.092  -2.488 -20.735  0.00  0.00    +0.000 C 
ATOM      7  C   UNL     1      11.334   0.584 -17.486  0.00  0.00    +0.000 A 
ATOM      8  C   UNL     1      14.615  -2.018 -22.375  0.00  0.00    +0.000 A 
ATOM      9  C   UNL     1      11.556   1.959 -17.552  0.00  0.00    +0.000 A 
ATOM     10  C   UNL     1      14.585  -3.397 -22.177  0.00  0.00    +0.000 A 
ATOM     11  C   UNL     1      12.959   1.069 -20.781  0.00  0.00    +0.000 C 
ATOM     12  C   UNL     1      12.114  -2.481 -19.679  0.00  0.00    +0.000 C 
ATOM     13  C   UNL     1      13.400  -0.079 -21.227  0.00  0.00    +0.000 C 
ATOM     14  C   UNL     1      11.898  -1.338 -19.079  0.00  0.00    +0.000 C 
ATOM     15  C   UNL     1      10.725   0.049 -16.336  0.00  0.00    +0.000 A 
ATOM     16  C   UNL     1      15.484  -1.490 -23.348  0.00  0.00    +0.000 A 
ATOM     17  C   UNL     1      11.193   2.835 -16.523  0.00  0.00    +0.000 A 
ATOM     18  C   UNL     1      15.382  -4.285 -22.909  0.00  0.00    +0.000 A 
ATOM     19  C   UNL     1      10.351   0.910 -15.302  0.00  0.00    +0.000 A 
ATOM     20  C   UNL     1      16.282  -2.361 -24.091  0.00  0.00    +0.000 A 
ATOM     21  C   UNL     1      10.582   2.278 -15.398  0.00  0.00    +0.000 A 
ATOM     22  C   UNL     1      16.228  -3.734 -23.874  0.00  0.00    +0.000 A 
ATOM     23  H   UNL     1      12.488   3.153 -19.016  0.00  0.00    +0.000 HD
ATOM     24  H   UNL     1      13.516  -4.589 -20.807  0.00  0.00    +0.000 HD
ENDROOT
BRANCH  11  26
ATOM     25  O   UNL     1      13.940   2.395 -22.515  0.00  0.00    +0.000 OA
ATOM     26  C   UNL     1      13.034   2.238 -21.705  0.00  0.00    +0.000 C 
BRANCH  26  27
ATOM     27  O   UNL     1      11.946   3.035 -21.495  0.00  0.00    +0.000 OA
ATOM     28  C   UNL     1      10.873   2.943 -22.394  0.00  0.00    +0.000 C 
ENDBRANCH  26  27
ENDBRANCH  11  26
BRANCH  12  30
ATOM     29  O   UNL     1      10.745  -3.759 -18.188  0.00  0.00    +0.000 OA
ATOM     30  C   UNL     1      11.240  -3.630 -19.302  0.00  0.00    +0.000 C 
BRANCH  30  31
ATOM     31  O   UNL     1      11.091  -4.443 -20.388  0.00  0.00    +0.000 OA
ATOM     32  C   UNL     1      10.437  -5.672 -20.211  0.00  0.00    +0.000 C 
ENDBRANCH  30  31
ENDBRANCH  12  30
TORSDOF 4
ENDMDL
MODEL 5
REMARK VINA RESULT:      -6.3     21.353     23.691
REMARK  Name = 5326018_Caulerpin.pdbqt.pdb
REMARK  4 active torsions:
REMARK  status: ('A' for Active; 'I' for Inactive)
REMARK    1  A    between atoms: C_11  and  C_26
REMARK    2  A    between atoms: C_12  and  C_30
REMARK    3  A    between atoms: C_26  and  O_27
REMARK    4  A    between atoms: C_30  and  O_31
REMARK                            x       y       z     vdW  Elec       q    Type
REMARK                         _______ _______ _______ _____ _____    ______ ____
ROOT
ATOM      1  N   UNL     1       9.533  -5.487  -3.839  0.00  0.00    +0.000 N 
ATOM      2  N   UNL     1      12.917 -11.055  -4.322  0.00  0.00    +0.000 N 
ATOM      3  C   UNL     1      10.929  -6.729  -5.032  0.00  0.00    +0.000 C 
ATOM      4  C   UNL     1      11.851  -9.623  -3.007  0.00  0.00    +0.000 C 
ATOM      5  C   UNL     1      10.428  -6.533  -3.746  0.00  0.00    +0.000 C 
ATOM      6  C   UNL     1      12.467  -9.753  -4.249  0.00  0.00    +0.000 C 
ATOM      7  C   UNL     1      10.381  -5.750  -5.895  0.00  0.00    +0.000 A 
ATOM      8  C   UNL     1      11.987 -10.840  -2.295  0.00  0.00    +0.000 A 
ATOM      9  C   UNL     1       9.512  -4.981  -5.121  0.00  0.00    +0.000 A 
ATOM     10  C   UNL     1      12.663 -11.719  -3.140  0.00  0.00    +0.000 A 
ATOM     11  C   UNL     1      10.637  -7.242  -2.512  0.00  0.00    +0.000 C 
ATOM     12  C   UNL     1      12.606  -8.843  -5.356  0.00  0.00    +0.000 C 
ATOM     13  C   UNL     1      11.185  -8.427  -2.595  0.00  0.00    +0.000 C 
ATOM     14  C   UNL     1      11.833  -7.788  -5.356  0.00  0.00    +0.000 C 
ATOM     15  C   UNL     1      10.520  -5.449  -7.262  0.00  0.00    +0.000 A 
ATOM     16  C   UNL     1      11.588 -11.291  -1.023  0.00  0.00    +0.000 A 
ATOM     17  C   UNL     1       8.773  -3.915  -5.646  0.00  0.00    +0.000 A 
ATOM     18  C   UNL     1      12.968 -13.035  -2.775  0.00  0.00    +0.000 A 
ATOM     19  C   UNL     1       9.794  -4.385  -7.801  0.00  0.00    +0.000 A 
ATOM     20  C   UNL     1      11.889 -12.599  -0.641  0.00  0.00    +0.000 A 
ATOM     21  C   UNL     1       8.938  -3.633  -7.004  0.00  0.00    +0.000 A 
ATOM     22  C   UNL     1      12.569 -13.453  -1.504  0.00  0.00    +0.000 A 
ATOM     23  H   UNL     1       8.949  -5.123  -3.097  0.00  0.00    +0.000 HD
ATOM     24  H   UNL     1      13.364 -11.499  -5.115  0.00  0.00    +0.000 HD
ENDROOT
BRANCH  11  26
ATOM     25  O   UNL     1       9.820  -5.630  -0.944  0.00  0.00    +0.000 OA
ATOM     26  C   UNL     1      10.402  -6.689  -1.147  0.00  0.00    +0.000 C 
BRANCH  26  27
ATOM     27  O   UNL     1      10.913  -7.557  -0.226  0.00  0.00    +0.000 OA
ATOM     28  C   UNL     1      11.314  -7.046   1.017  0.00  0.00    +0.000 C 
ENDBRANCH  26  27
ENDBRANCH  11  26
BRANCH  12  30
ATOM     29  O   UNL     1      14.711  -9.514  -6.278  0.00  0.00    +0.000 OA
ATOM     30  C   UNL     1      13.641  -8.936  -6.428  0.00  0.00    +0.000 C 
BRANCH  30  31
ATOM     31  O   UNL     1      13.174  -8.308  -7.546  0.00  0.00    +0.000 OA
ATOM     32  C   UNL     1      14.107  -7.738  -8.426  0.00  0.00    +0.000 C 
ENDBRANCH  30  31
ENDBRANCH  12  30
TORSDOF 4
ENDMDL
MODEL 6
REMARK VINA RESULT:      -6.2     27.646     31.832
REMARK  Name = 5326018_Caulerpin.pdbqt.pdb
REMARK  4 active torsions:
REMARK  status: ('A' for Active; 'I' for Inactive)
REMARK    1  A    between atoms: C_11  and  C_26
REMARK    2  A    between atoms: C_12  and  C_30
REMARK    3  A    between atoms: C_26  and  O_27
REMARK    4  A    between atoms: C_30  and  O_31
REMARK                            x       y       z     vdW  Elec       q    Type
REMARK                         _______ _______ _______ _____ _____    ______ ____
ROOT
ATOM      1  N   UNL     1      13.990  -3.544 -21.329  0.00  0.00    +0.000 N 
ATOM      2  N   UNL     1      12.184   2.234 -18.872  0.00  0.00    +0.000 N 
ATOM      3  C   UNL     1      13.916  -1.344 -21.587  0.00  0.00    +0.000 C 
ATOM      4  C   UNL     1      11.934   0.032 -18.848  0.00  0.00    +0.000 C 
ATOM      5  C   UNL     1      13.339  -2.408 -20.897  0.00  0.00    +0.000 C 
ATOM      6  C   UNL     1      12.397   1.094 -19.619  0.00  0.00    +0.000 C 
ATOM      7  C   UNL     1      14.880  -1.850 -22.492  0.00  0.00    +0.000 A 
ATOM      8  C   UNL     1      11.376   0.540 -17.650  0.00  0.00    +0.000 A 
ATOM      9  C   UNL     1      14.903  -3.233 -22.314  0.00  0.00    +0.000 A 
ATOM     10  C   UNL     1      11.541   1.924 -17.692  0.00  0.00    +0.000 A 
ATOM     11  C   UNL     1      12.336  -2.457 -19.865  0.00  0.00    +0.000 C 
ATOM     12  C   UNL     1      13.058   1.141 -20.897  0.00  0.00    +0.000 C 
ATOM     13  C   UNL     1      12.058  -1.333 -19.256  0.00  0.00    +0.000 C 
ATOM     14  C   UNL     1      13.557   0.019 -21.348  0.00  0.00    +0.000 C 
ATOM     15  C   UNL     1      15.749  -1.271 -23.435  0.00  0.00    +0.000 A 
ATOM     16  C   UNL     1      10.761  -0.037 -16.523  0.00  0.00    +0.000 A 
ATOM     17  C   UNL     1      15.754  -4.075 -23.038  0.00  0.00    +0.000 A 
ATOM     18  C   UNL     1      11.117   2.769 -16.661  0.00  0.00    +0.000 A 
ATOM     19  C   UNL     1      16.601  -2.098 -24.170  0.00  0.00    +0.000 A 
ATOM     20  C   UNL     1      10.326   0.793 -15.488  0.00  0.00    +0.000 A 
ATOM     21  C   UNL     1      16.600  -3.475 -23.973  0.00  0.00    +0.000 A 
ATOM     22  C   UNL     1      10.502   2.171 -15.559  0.00  0.00    +0.000 A 
ATOM     23  H   UNL     1      13.853  -4.487 -20.987  0.00  0.00    +0.000 HD
ATOM     24  H   UNL     1      12.456   3.179 -19.116  0.00  0.00    +0.000 HD
ENDROOT
BRANCH  11  26
ATOM     25  O   UNL     1      11.935  -4.793 -19.538  0.00  0.00    +0.000 OA
ATOM     26  C   UNL     1      11.503  -3.646 -19.526  0.00  0.00    +0.000 C 
BRANCH  26  27
ATOM     27  O   UNL     1      10.248  -3.224 -19.196  0.00  0.00    +0.000 OA
ATOM     28  C   UNL     1       9.191  -3.545 -20.061  0.00  0.00    +0.000 C 
ENDBRANCH  26  27
ENDBRANCH  11  26
BRANCH  12  30
ATOM     29  O   UNL     1      14.003   2.513 -22.617  0.00  0.00    +0.000 OA
ATOM     30  C   UNL     1      13.106   2.326 -21.803  0.00  0.00    +0.000 C 
BRANCH  30  31
ATOM     31  O   UNL     1      12.004   3.099 -21.575  0.00  0.00    +0.000 OA
ATOM     32  C   UNL     1      10.897   2.943 -22.423  0.00  0.00    +0.000 C 
ENDBRANCH  30  31
ENDBRANCH  12  30
TORSDOF 4
ENDMDL
MODEL 7
REMARK VINA RESULT:      -6.2     14.397     19.024
REMARK  Name = 5326018_Caulerpin.pdbqt.pdb
REMARK  4 active torsions:
REMARK  status: ('A' for Active; 'I' for Inactive)
REMARK    1  A    between atoms: C_11  and  C_26
REMARK    2  A    between atoms: C_12  and  C_30
REMARK    3  A    between atoms: C_26  and  O_27
REMARK    4  A    between atoms: C_30  and  O_31
REMARK                            x       y       z     vdW  Elec       q    Type
REMARK                         _______ _______ _______ _____ _____    ______ ____
ROOT
ATOM      1  N   UNL     1       2.726   1.724   2.994  0.00  0.00    +0.000 N 
ATOM      2  N   UNL     1       8.443   3.070   0.133  0.00  0.00    +0.000 N 
ATOM      3  C   UNL     1       3.798   2.767   1.358  0.00  0.00    +0.000 C 
ATOM      4  C   UNL     1       7.379   2.383   1.952  0.00  0.00    +0.000 C 
ATOM      5  C   UNL     1       3.966   2.195   2.617  0.00  0.00    +0.000 C 
ATOM      6  C   UNL     1       7.213   3.079   0.758  0.00  0.00    +0.000 C 
ATOM      7  C   UNL     1       2.430   2.700   1.000  0.00  0.00    +0.000 A 
ATOM      8  C   UNL     1       8.737   2.005   2.082  0.00  0.00    +0.000 A 
ATOM      9  C   UNL     1       1.778   2.046   2.045  0.00  0.00    +0.000 A 
ATOM     10  C   UNL     1       9.384   2.452   0.930  0.00  0.00    +0.000 A 
ATOM     11  C   UNL     1       5.134   1.986   3.432  0.00  0.00    +0.000 C 
ATOM     12  C   UNL     1       6.054   3.662   0.134  0.00  0.00    +0.000 C 
ATOM     13  C   UNL     1       6.296   2.110   2.845  0.00  0.00    +0.000 C 
ATOM     14  C   UNL     1       4.886   3.296   0.597  0.00  0.00    +0.000 C 
ATOM     15  C   UNL     1       1.679   3.113  -0.116  0.00  0.00    +0.000 A 
ATOM     16  C   UNL     1       9.483   1.312   3.054  0.00  0.00    +0.000 A 
ATOM     17  C   UNL     1       0.404   1.785   2.036  0.00  0.00    +0.000 A 
ATOM     18  C   UNL     1      10.749   2.245   0.699  0.00  0.00    +0.000 A 
ATOM     19  C   UNL     1       0.305   2.866  -0.139  0.00  0.00    +0.000 A 
ATOM     20  C   UNL     1      10.846   1.102   2.842  0.00  0.00    +0.000 A 
ATOM     21  C   UNL     1      -0.318   2.215   0.920  0.00  0.00    +0.000 A 
ATOM     22  C   UNL     1      11.465   1.563   1.685  0.00  0.00    +0.000 A 
ATOM     23  H   UNL     1       2.506   1.203   3.833  0.00  0.00    +0.000 HD
ATOM     24  H   UNL     1       8.661   3.442  -0.783  0.00  0.00    +0.000 HD
ENDROOT
BRANCH  11  26
ATOM     25  O   UNL     1       5.686   2.527   5.697  0.00  0.00    +0.000 OA
ATOM     26  C   UNL     1       5.130   1.772   4.909  0.00  0.00    +0.000 C 
BRANCH  26  27
ATOM     27  O   UNL     1       4.406   0.649   5.188  0.00  0.00    +0.000 OA
ATOM     28  C   UNL     1       4.979  -0.599   4.899  0.00  0.00    +0.000 C 
ENDBRANCH  26  27
ENDBRANCH  11  26
BRANCH  12  30
ATOM     29  O   UNL     1       5.155   4.935  -1.683  0.00  0.00    +0.000 OA
ATOM     30  C   UNL     1       6.077   4.738  -0.900  0.00  0.00    +0.000 C 
BRANCH  30  31
ATOM     31  O   UNL     1       7.247   5.431  -0.786  0.00  0.00    +0.000 OA
ATOM     32  C   UNL     1       7.930   5.776  -1.963  0.00  0.00    +0.000 C 
ENDBRANCH  30  31
ENDBRANCH  12  30
TORSDOF 4
ENDMDL
MODEL 8
REMARK VINA RESULT:      -6.0     24.646     27.944
REMARK  Name = 5326018_Caulerpin.pdbqt.pdb
REMARK  4 active torsions:
REMARK  status: ('A' for Active; 'I' for Inactive)
REMARK    1  A    between atoms: C_11  and  C_26
REMARK    2  A    between atoms: C_12  and  C_30
REMARK    3  A    between atoms: C_26  and  O_27
REMARK    4  A    between atoms: C_30  and  O_31
REMARK                            x       y       z     vdW  Elec       q    Type
REMARK                         _______ _______ _______ _____ _____    ______ ____
ROOT
ATOM      1  N   UNL     1       5.193 -15.609 -15.288  0.00  0.00    +0.000 N 
ATOM      2  N   UNL     1      10.950 -17.467 -12.821  0.00  0.00    +0.000 N 
ATOM      3  C   UNL     1       6.307 -16.429 -13.557  0.00  0.00    +0.000 C 
ATOM      4  C   UNL     1       9.745 -17.029 -14.629  0.00  0.00    +0.000 C 
ATOM      5  C   UNL     1       6.367 -16.241 -14.936  0.00  0.00    +0.000 C 
ATOM      6  C   UNL     1       9.654 -17.351 -13.278  0.00  0.00    +0.000 C 
ATOM      7  C   UNL     1       5.057 -15.967 -13.082  0.00  0.00    +0.000 A 
ATOM      8  C   UNL     1      11.109 -17.013 -15.009  0.00  0.00    +0.000 A 
ATOM      9  C   UNL     1       4.375 -15.462 -14.188  0.00  0.00    +0.000 A 
ATOM     10  C   UNL     1      11.843 -17.296 -13.858  0.00  0.00    +0.000 A 
ATOM     11  C   UNL     1       7.399 -16.512 -15.902  0.00  0.00    +0.000 C 
ATOM     12  C   UNL     1       8.526 -17.482 -12.392  0.00  0.00    +0.000 C 
ATOM     13  C   UNL     1       8.599 -16.747 -15.437  0.00  0.00    +0.000 C 
ATOM     14  C   UNL     1       7.388 -16.987 -12.805  0.00  0.00    +0.000 C 
ATOM     15  C   UNL     1       4.440 -15.909 -11.819  0.00  0.00    +0.000 A 
ATOM     16  C   UNL     1      11.798 -16.771 -16.212  0.00  0.00    +0.000 A 
ATOM     17  C   UNL     1       3.096 -14.901 -14.099  0.00  0.00    +0.000 A 
ATOM     18  C   UNL     1      13.242 -17.354 -13.847  0.00  0.00    +0.000 A 
ATOM     19  C   UNL     1       3.161 -15.359 -11.712  0.00  0.00    +0.000 A 
ATOM     20  C   UNL     1      13.192 -16.830 -16.220  0.00  0.00    +0.000 A 
ATOM     21  C   UNL     1       2.503 -14.866 -12.834  0.00  0.00    +0.000 A 
ATOM     22  C   UNL     1      13.898 -17.118 -15.057  0.00  0.00    +0.000 A 
ATOM     23  H   UNL     1       4.937 -15.276 -16.210  0.00  0.00    +0.000 HD
ATOM     24  H   UNL     1      11.244 -17.640 -11.868  0.00  0.00    +0.000 HD
ENDROOT
BRANCH  11  26
ATOM     25  O   UNL     1       7.818 -16.045 -18.211  0.00  0.00    +0.000 OA
ATOM     26  C   UNL     1       7.188 -16.674 -17.370  0.00  0.00    +0.000 C 
BRANCH  26  27
ATOM     27  O   UNL     1       6.230 -17.625 -17.574  0.00  0.00    +0.000 OA
ATOM     28  C   UNL     1       6.642 -18.951 -17.773  0.00  0.00    +0.000 C 
ENDBRANCH  26  27
ENDBRANCH  11  26
BRANCH  12  30
ATOM     29  O   UNL     1       7.797 -19.216 -10.911  0.00  0.00    +0.000 OA
ATOM     30  C   UNL     1       8.518 -18.245 -11.109  0.00  0.00    +0.000 C 
BRANCH  30  31
ATOM     31  O   UNL     1       9.437 -17.693 -10.264  0.00  0.00    +0.000 OA
ATOM     32  C   UNL     1      10.192 -18.553  -9.452  0.00  0.00    +0.000 C 
ENDBRANCH  30  31
ENDBRANCH  12  30
TORSDOF 4
ENDMDL
MODEL 9
REMARK VINA RESULT:      -6.0     17.512     21.671
REMARK  Name = 5326018_Caulerpin.pdbqt.pdb
REMARK  4 active torsions:
REMARK  status: ('A' for Active; 'I' for Inactive)
REMARK    1  A    between atoms: C_11  and  C_26
REMARK    2  A    between atoms: C_12  and  C_30
REMARK    3  A    between atoms: C_26  and  O_27
REMARK    4  A    between atoms: C_30  and  O_31
REMARK                            x       y       z     vdW  Elec       q    Type
REMARK                         _______ _______ _______ _____ _____    ______ ____
ROOT
ATOM      1  N   UNL     1      -5.381  -0.168 -20.944  0.00  0.00    +0.000 N 
ATOM      2  N   UNL     1     -10.785  -3.817 -21.361  0.00  0.00    +0.000 N 
ATOM      3  C   UNL     1      -6.815  -1.508 -19.915  0.00  0.00    +0.000 C 
ATOM      4  C   UNL     1      -9.562  -2.181 -22.223  0.00  0.00    +0.000 C 
ATOM      5  C   UNL     1      -6.661  -0.677 -21.023  0.00  0.00    +0.000 C 
ATOM      6  C   UNL     1      -9.792  -2.908 -21.059  0.00  0.00    +0.000 C 
ATOM      7  C   UNL     1      -5.642  -1.448 -19.126  0.00  0.00    +0.000 A 
ATOM      8  C   UNL     1     -10.470  -2.609 -23.222  0.00  0.00    +0.000 A 
ATOM      9  C   UNL     1      -4.760  -0.597 -19.791  0.00  0.00    +0.000 A 
ATOM     10  C   UNL     1     -11.229  -3.633 -22.654  0.00  0.00    +0.000 A 
ATOM     11  C   UNL     1      -7.524  -0.384 -22.136  0.00  0.00    +0.000 C 
ATOM     12  C   UNL     1      -9.152  -2.890 -19.769  0.00  0.00    +0.000 C 
ATOM     13  C   UNL     1      -8.537  -1.189 -22.328  0.00  0.00    +0.000 C 
ATOM     14  C   UNL     1      -7.994  -2.287 -19.691  0.00  0.00    +0.000 C 
ATOM     15  C   UNL     1      -5.231  -2.046 -17.920  0.00  0.00    +0.000 A 
ATOM     16  C   UNL     1     -10.716  -2.244 -24.558  0.00  0.00    +0.000 A 
ATOM     17  C   UNL     1      -3.480  -0.306 -19.307  0.00  0.00    +0.000 A 
ATOM     18  C   UNL     1     -12.230  -4.312 -23.356  0.00  0.00    +0.000 A 
ATOM     19  C   UNL     1      -3.959  -1.761 -17.420  0.00  0.00    +0.000 A 
ATOM     20  C   UNL     1     -11.715  -2.908 -25.272  0.00  0.00    +0.000 A 
ATOM     21  C   UNL     1      -3.101  -0.905 -18.104  0.00  0.00    +0.000 A 
ATOM     22  C   UNL     1     -12.458  -3.923 -24.678  0.00  0.00    +0.000 A 
ATOM     23  H   UNL     1      -4.925   0.430 -21.622  0.00  0.00    +0.000 HD
ATOM     24  H   UNL     1     -11.153  -4.538 -20.753  0.00  0.00    +0.000 HD
ENDROOT
BRANCH  11  26
ATOM     25  O   UNL     1      -6.394   1.193 -23.537  0.00  0.00    +0.000 OA
ATOM     26  C   UNL     1      -7.435   0.825 -23.004  0.00  0.00    +0.000 C 
BRANCH  26  27
ATOM     27  O   UNL     1      -8.673   1.391 -23.100  0.00  0.00    +0.000 OA
ATOM     28  C   UNL     1      -8.946   2.527 -22.324  0.00  0.00    +0.000 C 
ENDBRANCH  26  27
ENDBRANCH  11  26
BRANCH  12  30
ATOM     29  O   UNL     1     -10.313  -4.471 -18.398  0.00  0.00    +0.000 OA
ATOM     30  C   UNL     1      -9.755  -3.385 -18.497  0.00  0.00    +0.000 C 
BRANCH  30  31
ATOM     31  O   UNL     1      -9.551  -2.452 -17.522  0.00  0.00    +0.000 OA
ATOM     32  C   UNL     1     -10.588  -2.209 -16.609  0.00  0.00    +0.000 C 
ENDBRANCH  30  31
ENDBRANCH  12  30
TORSDOF 4
ENDMDL
