MODEL 1
REMARK VINA RESULT:      -3.7      0.000      0.000
REMARK  Name = 5350_Sulforaphane.pdbqt.pdb
REMARK  3 active torsions:
REMARK  status: ('A' for Active; 'I' for Inactive)
REMARK    1  A    between atoms: C_1  and  C_2
REMARK    2  A    between atoms: C_3  and  N_5
REMARK    3  A    between atoms: C_7  and  S_8
REMARK                            x       y       z     vdW  Elec       q    Type
REMARK                         _______ _______ _______ _____ _____    ______ ____
ROOT
ATOM      1  C   UNL     1       6.752   1.773 -18.347  0.00  0.00    +0.000 C 
ATOM      2  C   UNL     1       5.250   1.482 -18.429  0.00  0.00    +0.000 C 
ENDROOT
BRANCH   2   3
ATOM      3  S   UNL     1       3.522   1.150 -18.526  0.00  0.00    +0.000 S 
ATOM      4  O   UNL     1       3.194   2.303 -17.625  0.00  0.00    +0.000 OA
ATOM      5  C   UNL     1       3.558   0.020 -17.175  0.00  0.00    +0.000 C 
ENDBRANCH   2   3
BRANCH   1   6
ATOM      6  C   UNL     1       8.253   2.066 -18.264  0.00  0.00    +0.000 C 
ATOM      7  C   UNL     1       9.755   2.359 -18.180  0.00  0.00    +0.000 C 
BRANCH   7   9
ATOM      8  S   UNL     1      12.267   1.324 -15.985  0.00  0.00    +0.000 S 
ATOM      9  N   UNL     1      11.069   2.615 -18.120  0.00  0.00    +0.000 NA
ATOM     10  C   UNL     1      11.558   2.059 -17.209  0.00  0.00    +0.000 C 
ENDBRANCH   7   9
ENDBRANCH   1   6
TORSDOF 3
ENDMDL
MODEL 2
REMARK VINA RESULT:      -3.5     12.261     16.135
REMARK  Name = 5350_Sulforaphane.pdbqt.pdb
REMARK  3 active torsions:
REMARK  status: ('A' for Active; 'I' for Inactive)
REMARK    1  A    between atoms: C_1  and  C_2
REMARK    2  A    between atoms: C_3  and  N_5
REMARK    3  A    between atoms: C_7  and  S_8
REMARK                            x       y       z     vdW  Elec       q    Type
REMARK                         _______ _______ _______ _____ _____    ______ ____
ROOT
ATOM      1  C   UNL     1      -5.842  -2.246 -18.812  0.00  0.00    +0.000 C 
ATOM      2  C   UNL     1      -4.337  -2.195 -19.098  0.00  0.00    +0.000 C 
ENDROOT
BRANCH   2   3
ATOM      3  S   UNL     1      -2.606  -2.141 -19.423  0.00  0.00    +0.000 S 
ATOM      4  O   UNL     1      -2.335  -3.264 -18.467  0.00  0.00    +0.000 OA
ATOM      5  C   UNL     1      -2.307  -0.926 -18.185  0.00  0.00    +0.000 C 
ENDBRANCH   2   3
BRANCH   1   6
ATOM      6  C   UNL     1      -7.345  -2.294 -18.525  0.00  0.00    +0.000 C 
ATOM      7  C   UNL     1      -8.850  -2.343 -18.237  0.00  0.00    +0.000 C 
BRANCH   7   9
ATOM      8  S   UNL     1     -11.324   0.122 -18.280  0.00  0.00    +0.000 S 
ATOM      9  N   UNL     1     -10.168  -2.376 -17.995  0.00  0.00    +0.000 NA
ATOM     10  C   UNL     1     -10.639  -1.309 -18.121  0.00  0.00    +0.000 C 
ENDBRANCH   7   9
ENDBRANCH   1   6
TORSDOF 3
ENDMDL
MODEL 3
REMARK VINA RESULT:      -3.5      3.720      6.875
REMARK  Name = 5350_Sulforaphane.pdbqt.pdb
REMARK  3 active torsions:
REMARK  status: ('A' for Active; 'I' for Inactive)
REMARK    1  A    between atoms: C_1  and  C_2
REMARK    2  A    between atoms: C_3  and  N_5
REMARK    3  A    between atoms: C_7  and  S_8
REMARK                            x       y       z     vdW  Elec       q    Type
REMARK                         _______ _______ _______ _____ _____    ______ ____
ROOT
ATOM      1  C   UNL     1       8.708   1.666 -17.974  0.00  0.00    +0.000 C 
ATOM      2  C   UNL     1      10.221   1.567 -17.749  0.00  0.00    +0.000 C 
ENDROOT
BRANCH   2   3
ATOM      3  S   UNL     1      11.960   1.456 -17.494  0.00  0.00    +0.000 S 
ATOM      4  O   UNL     1      11.878  -0.012 -17.194  0.00  0.00    +0.000 OA
ATOM      5  C   UNL     1      11.842   1.877 -15.788  0.00  0.00    +0.000 C 
ENDBRANCH   2   3
BRANCH   1   6
ATOM      6  C   UNL     1       7.197   1.761 -18.200  0.00  0.00    +0.000 C 
ATOM      7  C   UNL     1       5.683   1.857 -18.426  0.00  0.00    +0.000 C 
BRANCH   7   9
ATOM      8  S   UNL     1       3.068  -0.344 -17.713  0.00  0.00    +0.000 S 
ATOM      9  N   UNL     1       4.358   1.931 -18.615  0.00  0.00    +0.000 NA
ATOM     10  C   UNL     1       3.830   0.958 -18.226  0.00  0.00    +0.000 C 
ENDBRANCH   7   9
ENDBRANCH   1   6
TORSDOF 3
ENDMDL
MODEL 4
REMARK VINA RESULT:      -3.1      4.002      6.867
REMARK  Name = 5350_Sulforaphane.pdbqt.pdb
REMARK  3 active torsions:
REMARK  status: ('A' for Active; 'I' for Inactive)
REMARK    1  A    between atoms: C_1  and  C_2
REMARK    2  A    between atoms: C_3  and  N_5
REMARK    3  A    between atoms: C_7  and  S_8
REMARK                            x       y       z     vdW  Elec       q    Type
REMARK                         _______ _______ _______ _____ _____    ______ ____
ROOT
ATOM      1  C   UNL     1       8.753   2.239 -18.877  0.00  0.00    +0.000 C 
ATOM      2  C   UNL     1      10.272   2.310 -19.071  0.00  0.00    +0.000 C 
ENDROOT
BRANCH   2   3
ATOM      3  S   UNL     1      12.018   2.390 -19.288  0.00  0.00    +0.000 S 
ATOM      4  O   UNL     1      11.875   2.991 -20.655  0.00  0.00    +0.000 OA
ATOM      5  C   UNL     1      12.116   0.759 -19.944  0.00  0.00    +0.000 C 
ENDBRANCH   2   3
BRANCH   1   6
ATOM      6  C   UNL     1       7.235   2.171 -18.684  0.00  0.00    +0.000 C 
ATOM      7  C   UNL     1       5.716   2.103 -18.491  0.00  0.00    +0.000 C 
BRANCH   7   9
ATOM      8  S   UNL     1       3.601  -0.392 -17.267  0.00  0.00    +0.000 S 
ATOM      9  N   UNL     1       4.387   2.038 -18.334  0.00  0.00    +0.000 NA
ATOM     10  C   UNL     1       4.074   1.002 -17.881  0.00  0.00    +0.000 C 
ENDBRANCH   7   9
ENDBRANCH   1   6
TORSDOF 3
ENDMDL
MODEL 5
REMARK VINA RESULT:      -3.1     10.685     13.268
REMARK  Name = 5350_Sulforaphane.pdbqt.pdb
REMARK  3 active torsions:
REMARK  status: ('A' for Active; 'I' for Inactive)
REMARK    1  A    between atoms: C_1  and  C_2
REMARK    2  A    between atoms: C_3  and  N_5
REMARK    3  A    between atoms: C_7  and  S_8
REMARK                            x       y       z     vdW  Elec       q    Type
REMARK                         _______ _______ _______ _____ _____    ______ ____
ROOT
ATOM      1  C   UNL     1      -5.936  -1.681 -19.105  0.00  0.00    +0.000 C 
ATOM      2  C   UNL     1      -7.021  -2.734 -19.354  0.00  0.00    +0.000 C 
ENDROOT
BRANCH   2   3
ATOM      3  S   UNL     1      -8.271  -3.943 -19.637  0.00  0.00    +0.000 S 
ATOM      4  O   UNL     1      -7.481  -5.005 -18.932  0.00  0.00    +0.000 OA
ATOM      5  C   UNL     1      -7.616  -4.404 -21.205  0.00  0.00    +0.000 C 
ENDBRANCH   2   3
BRANCH   1   6
ATOM      6  C   UNL     1      -4.850  -0.631 -18.854  0.00  0.00    +0.000 C 
ATOM      7  C   UNL     1      -3.763   0.420 -18.603  0.00  0.00    +0.000 C 
BRANCH   7   9
ATOM      8  S   UNL     1      -0.499   0.780 -19.792  0.00  0.00    +0.000 S 
ATOM      9  N   UNL     1      -2.809   1.333 -18.373  0.00  0.00    +0.000 NA
ATOM     10  C   UNL     1      -1.839   1.081 -18.983  0.00  0.00    +0.000 C 
ENDBRANCH   7   9
ENDBRANCH   1   6
TORSDOF 3
ENDMDL
MODEL 6
REMARK VINA RESULT:      -3.0     18.440     19.587
REMARK  Name = 5350_Sulforaphane.pdbqt.pdb
REMARK  3 active torsions:
REMARK  status: ('A' for Active; 'I' for Inactive)
REMARK    1  A    between atoms: C_1  and  C_2
REMARK    2  A    between atoms: C_3  and  N_5
REMARK    3  A    between atoms: C_7  and  S_8
REMARK                            x       y       z     vdW  Elec       q    Type
REMARK                         _______ _______ _______ _____ _____    ______ ____
ROOT
ATOM      1  C   UNL     1       5.508   3.908   0.183  0.00  0.00    +0.000 C 
ATOM      2  C   UNL     1       6.595   4.927  -0.176  0.00  0.00    +0.000 C 
ENDROOT
BRANCH   2   3
ATOM      3  S   UNL     1       7.845   6.099  -0.586  0.00  0.00    +0.000 S 
ATOM      4  O   UNL     1       7.741   5.782  -2.048  0.00  0.00    +0.000 OA
ATOM      5  C   UNL     1       9.151   4.940  -0.360  0.00  0.00    +0.000 C 
ENDBRANCH   2   3
BRANCH   1   6
ATOM      6  C   UNL     1       4.419   2.892   0.540  0.00  0.00    +0.000 C 
ATOM      7  C   UNL     1       3.329   1.875   0.898  0.00  0.00    +0.000 C 
BRANCH   7   9
ATOM      8  S   UNL     1       0.090   2.261   2.145  0.00  0.00    +0.000 S 
ATOM      9  N   UNL     1       2.368   0.996   1.213  0.00  0.00    +0.000 NA
ATOM     10  C   UNL     1       1.412   1.551   1.605  0.00  0.00    +0.000 C 
ENDBRANCH   7   9
ENDBRANCH   1   6
TORSDOF 3
ENDMDL
MODEL 7
REMARK VINA RESULT:      -2.9      4.401      5.457
REMARK  Name = 5350_Sulforaphane.pdbqt.pdb
REMARK  3 active torsions:
REMARK  status: ('A' for Active; 'I' for Inactive)
REMARK    1  A    between atoms: C_1  and  C_2
REMARK    2  A    between atoms: C_3  and  N_5
REMARK    3  A    between atoms: C_7  and  S_8
REMARK                            x       y       z     vdW  Elec       q    Type
REMARK                         _______ _______ _______ _____ _____    ______ ____
ROOT
ATOM      1  C   UNL     1       3.003  -1.331 -19.114  0.00  0.00    +0.000 C 
ATOM      2  C   UNL     1       2.105  -2.556 -19.321  0.00  0.00    +0.000 C 
ENDROOT
BRANCH   2   3
ATOM      3  S   UNL     1       1.077  -3.967 -19.560  0.00  0.00    +0.000 S 
ATOM      4  O   UNL     1       1.376  -4.486 -18.185  0.00  0.00    +0.000 OA
ATOM      5  C   UNL     1       2.375  -4.920 -20.273  0.00  0.00    +0.000 C 
ENDBRANCH   2   3
BRANCH   1   6
ATOM      6  C   UNL     1       3.898  -0.106 -18.910  0.00  0.00    +0.000 C 
ATOM      7  C   UNL     1       4.795   1.121 -18.705  0.00  0.00    +0.000 C 
BRANCH   7   9
ATOM      8  S   UNL     1       8.256   1.491 -18.421  0.00  0.00    +0.000 S 
ATOM      9  N   UNL     1       5.581   2.193 -18.539  0.00  0.00    +0.000 NA
ATOM     10  C   UNL     1       6.710   1.875 -18.492  0.00  0.00    +0.000 C 
ENDBRANCH   7   9
ENDBRANCH   1   6
TORSDOF 3
ENDMDL
MODEL 8
REMARK VINA RESULT:      -2.9     21.714     24.391
REMARK  Name = 5350_Sulforaphane.pdbqt.pdb
REMARK  3 active torsions:
REMARK  status: ('A' for Active; 'I' for Inactive)
REMARK    1  A    between atoms: C_1  and  C_2
REMARK    2  A    between atoms: C_3  and  N_5
REMARK    3  A    between atoms: C_7  and  S_8
REMARK                            x       y       z     vdW  Elec       q    Type
REMARK                         _______ _______ _______ _____ _____    ______ ____
ROOT
ATOM      1  C   UNL     1     -12.456   8.167  -8.866  0.00  0.00    +0.000 C 
ATOM      2  C   UNL     1     -11.857   6.785  -9.148  0.00  0.00    +0.000 C 
ENDROOT
BRANCH   2   3
ATOM      3  S   UNL     1     -11.171   5.196  -9.476  0.00  0.00    +0.000 S 
ATOM      4  O   UNL     1     -12.387   4.500  -8.941  0.00  0.00    +0.000 OA
ATOM      5  C   UNL     1     -10.357   5.111  -7.917  0.00  0.00    +0.000 C 
ENDBRANCH   2   3
BRANCH   1   6
ATOM      6  C   UNL     1     -13.057   9.546  -8.582  0.00  0.00    +0.000 C 
ATOM      7  C   UNL     1     -13.658  10.928  -8.298  0.00  0.00    +0.000 C 
BRANCH   7   9
ATOM      8  S   UNL     1     -16.819  11.929  -7.201  0.00  0.00    +0.000 S 
ATOM      9  N   UNL     1     -14.195  12.132  -8.056  0.00  0.00    +0.000 NA
ATOM     10  C   UNL     1     -15.306  12.025  -7.695  0.00  0.00    +0.000 C 
ENDBRANCH   7   9
ENDBRANCH   1   6
TORSDOF 3
ENDMDL
MODEL 9
REMARK VINA RESULT:      -2.8      1.823      2.084
REMARK  Name = 5350_Sulforaphane.pdbqt.pdb
REMARK  3 active torsions:
REMARK  status: ('A' for Active; 'I' for Inactive)
REMARK    1  A    between atoms: C_1  and  C_2
REMARK    2  A    between atoms: C_3  and  N_5
REMARK    3  A    between atoms: C_7  and  S_8
REMARK                            x       y       z     vdW  Elec       q    Type
REMARK                         _______ _______ _______ _____ _____    ______ ____
ROOT
ATOM      1  C   UNL     1       5.217   1.042 -18.878  0.00  0.00    +0.000 C 
ATOM      2  C   UNL     1       3.783   0.602 -19.190  0.00  0.00    +0.000 C 
ENDROOT
BRANCH   2   3
ATOM      3  S   UNL     1       2.134   0.098 -19.553  0.00  0.00    +0.000 S 
ATOM      4  O   UNL     1       1.776   0.030 -18.098  0.00  0.00    +0.000 OA
ATOM      5  C   UNL     1       2.556  -1.611 -19.596  0.00  0.00    +0.000 C 
ENDBRANCH   2   3
BRANCH   1   6
ATOM      6  C   UNL     1       6.649   1.484 -18.565  0.00  0.00    +0.000 C 
ATOM      7  C   UNL     1       8.083   1.927 -18.251  0.00  0.00    +0.000 C 
BRANCH   7   9
ATOM      8  S   UNL     1      10.521   0.696 -16.074  0.00  0.00    +0.000 S 
ATOM      9  N   UNL     1       9.341   2.309 -17.988  0.00  0.00    +0.000 NA
ATOM     10  C   UNL     1       9.823   1.613 -17.176  0.00  0.00    +0.000 C 
ENDBRANCH   7   9
ENDBRANCH   1   6
TORSDOF 3
ENDMDL
