MODEL 1
REMARK VINA RESULT:      -4.9      0.000      0.000
REMARK  Name = 5357283_Methylferulate.pdbqt.pdb
REMARK  5 active torsions:
REMARK  status: ('A' for Active; 'I' for Inactive)
REMARK    1  A    between atoms: C_1  and  C_11
REMARK    2  A    between atoms: C_2  and  O_7
REMARK    3  A    between atoms: C_5  and  O_9
REMARK    4  A    between atoms: C_12  and  C_14
REMARK    5  A    between atoms: C_14  and  O_15
REMARK                            x       y       z     vdW  Elec       q    Type
REMARK                         _______ _______ _______ _____ _____    ______ ____
ROOT
ATOM      1  C   UNL     1       8.010   2.001 -18.593  0.00  0.00    +0.000 A 
ATOM      2  C   UNL     1      10.287   1.731 -17.802  0.00  0.00    +0.000 A 
ATOM      3  C   UNL     1       8.909   1.601 -17.605  0.00  0.00    +0.000 A 
ATOM      4  C   UNL     1       8.480   2.535 -19.790  0.00  0.00    +0.000 A 
ATOM      5  C   UNL     1      10.744   2.269 -19.008  0.00  0.00    +0.000 A 
ATOM      6  C   UNL     1       9.849   2.670 -19.999  0.00  0.00    +0.000 A 
ENDROOT
BRANCH   2   7
ATOM      7  O   UNL     1      11.238   1.362 -16.882  0.00  0.00    +0.000 OA
ATOM      8  C   UNL     1      11.315   2.172 -15.737  0.00  0.00    +0.000 C 
ENDBRANCH   2   7
BRANCH   5   9
ATOM      9  O   UNL     1      12.089   2.404 -19.220  0.00  0.00    +0.000 OA
ATOM     10  H   UNL     1      12.556   1.714 -18.714  0.00  0.00    +0.000 HD
ENDBRANCH   5   9
BRANCH   1  11
ATOM     11  C   UNL     1       6.608   1.862 -18.375  0.00  0.00    +0.000 C 
ATOM     12  C   UNL     1       5.426   1.745 -18.189  0.00  0.00    +0.000 C 
BRANCH  12  14
ATOM     13  O   UNL     1       3.256   2.540 -18.189  0.00  0.00    +0.000 OA
ATOM     14  C   UNL     1       4.007   1.600 -17.962  0.00  0.00    +0.000 C 
BRANCH  14  15
ATOM     15  O   UNL     1       3.705   0.352 -17.499  0.00  0.00    +0.000 OA
ATOM     16  C   UNL     1       2.563  -0.284 -18.016  0.00  0.00    +0.000 C 
ENDBRANCH  14  15
ENDBRANCH  12  14
ENDBRANCH   1  11
TORSDOF 5
ENDMDL
MODEL 2
REMARK VINA RESULT:      -4.7     11.246     13.983
REMARK  Name = 5357283_Methylferulate.pdbqt.pdb
REMARK  5 active torsions:
REMARK  status: ('A' for Active; 'I' for Inactive)
REMARK    1  A    between atoms: C_1  and  C_11
REMARK    2  A    between atoms: C_2  and  O_7
REMARK    3  A    between atoms: C_5  and  O_9
REMARK    4  A    between atoms: C_12  and  C_14
REMARK    5  A    between atoms: C_14  and  O_15
REMARK                            x       y       z     vdW  Elec       q    Type
REMARK                         _______ _______ _______ _____ _____    ______ ____
ROOT
ATOM      1  C   UNL     1      -5.153  -1.305 -18.620  0.00  0.00    +0.000 A 
ATOM      2  C   UNL     1      -3.978   0.657 -19.429  0.00  0.00    +0.000 A 
ATOM      3  C   UNL     1      -4.984  -0.303 -19.575  0.00  0.00    +0.000 A 
ATOM      4  C   UNL     1      -4.317  -1.357 -17.507  0.00  0.00    +0.000 A 
ATOM      5  C   UNL     1      -3.148   0.592 -18.307  0.00  0.00    +0.000 A 
ATOM      6  C   UNL     1      -3.312  -0.407 -17.349  0.00  0.00    +0.000 A 
ENDROOT
BRANCH   2   7
ATOM      7  O   UNL     1      -3.745   1.675 -20.322  0.00  0.00    +0.000 OA
ATOM      8  C   UNL     1      -3.270   1.275 -21.580  0.00  0.00    +0.000 C 
ENDBRANCH   2   7
BRANCH   5   9
ATOM      9  O   UNL     1      -2.158   1.524 -18.146  0.00  0.00    +0.000 OA
ATOM     10  H   UNL     1      -1.709   1.654 -19.001  0.00  0.00    +0.000 HD
ENDBRANCH   5   9
BRANCH   1  11
ATOM     11  C   UNL     1      -6.183  -2.276 -18.785  0.00  0.00    +0.000 C 
ATOM     12  C   UNL     1      -7.051  -3.096 -18.927  0.00  0.00    +0.000 C 
BRANCH  12  14
ATOM     13  O   UNL     1      -7.906  -5.236 -18.747  0.00  0.00    +0.000 OA
ATOM     14  C   UNL     1      -8.095  -4.079 -19.101  0.00  0.00    +0.000 C 
BRANCH  14  15
ATOM     15  O   UNL     1      -9.205  -3.525 -19.672  0.00  0.00    +0.000 OA
ATOM     16  C   UNL     1     -10.159  -2.939 -18.823  0.00  0.00    +0.000 C 
ENDBRANCH  14  15
ENDBRANCH  12  14
ENDBRANCH   1  11
TORSDOF 5
ENDMDL
MODEL 3
REMARK VINA RESULT:      -4.7     21.279     23.637
REMARK  Name = 5357283_Methylferulate.pdbqt.pdb
REMARK  5 active torsions:
REMARK  status: ('A' for Active; 'I' for Inactive)
REMARK    1  A    between atoms: C_1  and  C_11
REMARK    2  A    between atoms: C_2  and  O_7
REMARK    3  A    between atoms: C_5  and  O_9
REMARK    4  A    between atoms: C_12  and  C_14
REMARK    5  A    between atoms: C_14  and  O_15
REMARK                            x       y       z     vdW  Elec       q    Type
REMARK                         _______ _______ _______ _____ _____    ______ ____
ROOT
ATOM      1  C   UNL     1     -12.017   8.136  -8.022  0.00  0.00    +0.000 A 
ATOM      2  C   UNL     1     -11.390   5.961  -8.893  0.00  0.00    +0.000 A 
ATOM      3  C   UNL     1     -12.080   7.170  -9.025  0.00  0.00    +0.000 A 
ATOM      4  C   UNL     1     -11.262   7.904  -6.875  0.00  0.00    +0.000 A 
ATOM      5  C   UNL     1     -10.637   5.742  -7.736  0.00  0.00    +0.000 A 
ATOM      6  C   UNL     1     -10.570   6.705  -6.730  0.00  0.00    +0.000 A 
ENDROOT
BRANCH   2   7
ATOM      7  O   UNL     1     -11.399   4.958  -9.832  0.00  0.00    +0.000 OA
ATOM      8  C   UNL     1     -11.776   5.349 -11.126  0.00  0.00    +0.000 C 
ENDBRANCH   2   7
BRANCH   5   9
ATOM      9  O   UNL     1      -9.953   4.566  -7.588  0.00  0.00    +0.000 OA
ATOM     10  H   UNL     1      -9.553   4.327  -8.445  0.00  0.00    +0.000 HD
ENDBRANCH   5   9
BRANCH   1  11
ATOM     11  C   UNL     1     -12.728   9.363  -8.174  0.00  0.00    +0.000 C 
ATOM     12  C   UNL     1     -13.328  10.397  -8.300  0.00  0.00    +0.000 C 
BRANCH  12  14
ATOM     13  O   UNL     1     -15.275  11.639  -8.381  0.00  0.00    +0.000 OA
ATOM     14  C   UNL     1     -14.053  11.637  -8.450  0.00  0.00    +0.000 C 
BRANCH  14  15
ATOM     15  O   UNL     1     -13.202  12.684  -8.660  0.00  0.00    +0.000 OA
ATOM     16  C   UNL     1     -13.094  13.657  -7.651  0.00  0.00    +0.000 C 
ENDBRANCH  14  15
ENDBRANCH  12  14
ENDBRANCH   1  11
TORSDOF 5
ENDMDL
MODEL 4
REMARK VINA RESULT:      -4.5     16.913     18.274
REMARK  Name = 5357283_Methylferulate.pdbqt.pdb
REMARK  5 active torsions:
REMARK  status: ('A' for Active; 'I' for Inactive)
REMARK    1  A    between atoms: C_1  and  C_11
REMARK    2  A    between atoms: C_2  and  O_7
REMARK    3  A    between atoms: C_5  and  O_9
REMARK    4  A    between atoms: C_12  and  C_14
REMARK    5  A    between atoms: C_14  and  O_15
REMARK                            x       y       z     vdW  Elec       q    Type
REMARK                         _______ _______ _______ _____ _____    ______ ____
ROOT
ATOM      1  C   UNL     1       6.357   4.643  -0.718  0.00  0.00    +0.000 A 
ATOM      2  C   UNL     1       8.349   5.992  -0.417  0.00  0.00    +0.000 A 
ATOM      3  C   UNL     1       7.226   5.349   0.112  0.00  0.00    +0.000 A 
ATOM      4  C   UNL     1       6.601   4.573  -2.088  0.00  0.00    +0.000 A 
ATOM      5  C   UNL     1       8.581   5.913  -1.792  0.00  0.00    +0.000 A 
ATOM      6  C   UNL     1       7.715   5.209  -2.627  0.00  0.00    +0.000 A 
ENDROOT
BRANCH   2   7
ATOM      7  O   UNL     1       9.255   6.707   0.330  0.00  0.00    +0.000 OA
ATOM      8  C   UNL     1       8.740   7.844   0.974  0.00  0.00    +0.000 C 
ENDBRANCH   2   7
BRANCH   5   9
ATOM      9  O   UNL     1       9.676   6.536  -2.329  0.00  0.00    +0.000 OA
ATOM     10  H   UNL     1       9.638   7.483  -2.104  0.00  0.00    +0.000 HD
ENDBRANCH   5   9
BRANCH   1  11
ATOM     11  C   UNL     1       5.216   3.994  -0.162  0.00  0.00    +0.000 C 
ATOM     12  C   UNL     1       4.254   3.448   0.309  0.00  0.00    +0.000 C 
BRANCH  12  14
ATOM     13  O   UNL     1       3.204   1.649   1.312  0.00  0.00    +0.000 OA
ATOM     14  C   UNL     1       3.101   2.789   0.878  0.00  0.00    +0.000 C 
BRANCH  14  15
ATOM     15  O   UNL     1       2.001   3.597   0.838  0.00  0.00    +0.000 OA
ATOM     16  C   UNL     1       0.822   3.077   0.278  0.00  0.00    +0.000 C 
ENDBRANCH  14  15
ENDBRANCH  12  14
ENDBRANCH   1  11
TORSDOF 5
ENDMDL
MODEL 5
REMARK VINA RESULT:      -4.5     11.626     16.787
REMARK  Name = 5357283_Methylferulate.pdbqt.pdb
REMARK  5 active torsions:
REMARK  status: ('A' for Active; 'I' for Inactive)
REMARK    1  A    between atoms: C_1  and  C_11
REMARK    2  A    between atoms: C_2  and  O_7
REMARK    3  A    between atoms: C_5  and  O_9
REMARK    4  A    between atoms: C_12  and  C_14
REMARK    5  A    between atoms: C_14  and  O_15
REMARK                            x       y       z     vdW  Elec       q    Type
REMARK                         _______ _______ _______ _____ _____    ______ ____
ROOT
ATOM      1  C   UNL     1      -7.537  -2.754 -18.926  0.00  0.00    +0.000 A 
ATOM      2  C   UNL     1      -8.828  -3.888 -20.638  0.00  0.00    +0.000 A 
ATOM      3  C   UNL     1      -7.598  -3.466 -20.123  0.00  0.00    +0.000 A 
ATOM      4  C   UNL     1      -8.706  -2.457 -18.230  0.00  0.00    +0.000 A 
ATOM      5  C   UNL     1      -9.992  -3.582 -19.929  0.00  0.00    +0.000 A 
ATOM      6  C   UNL     1      -9.937  -2.871 -18.731  0.00  0.00    +0.000 A 
ENDROOT
BRANCH   2   7
ATOM      7  O   UNL     1      -8.976  -4.592 -21.809  0.00  0.00    +0.000 OA
ATOM      8  C   UNL     1      -7.867  -4.569 -22.670  0.00  0.00    +0.000 C 
ENDBRANCH   2   7
BRANCH   5   9
ATOM      9  O   UNL     1     -11.205  -3.987 -20.416  0.00  0.00    +0.000 OA
ATOM     10  H   UNL     1     -11.306  -3.649 -21.325  0.00  0.00    +0.000 HD
ENDBRANCH   5   9
BRANCH   1  11
ATOM     11  C   UNL     1      -6.275  -2.331 -18.416  0.00  0.00    +0.000 C 
ATOM     12  C   UNL     1      -5.211  -1.972 -17.986  0.00  0.00    +0.000 C 
BRANCH  12  14
ATOM     13  O   UNL     1      -3.855  -0.492 -16.842  0.00  0.00    +0.000 OA
ATOM     14  C   UNL     1      -3.933  -1.538 -17.473  0.00  0.00    +0.000 C 
BRANCH  14  15
ATOM     15  O   UNL     1      -2.944  -2.424 -17.794  0.00  0.00    +0.000 OA
ATOM     16  C   UNL     1      -2.381  -2.343 -19.079  0.00  0.00    +0.000 C 
ENDBRANCH  14  15
ENDBRANCH  12  14
ENDBRANCH   1  11
TORSDOF 5
ENDMDL
MODEL 6
REMARK VINA RESULT:      -4.5      9.353     12.947
REMARK  Name = 5357283_Methylferulate.pdbqt.pdb
REMARK  5 active torsions:
REMARK  status: ('A' for Active; 'I' for Inactive)
REMARK    1  A    between atoms: C_1  and  C_11
REMARK    2  A    between atoms: C_2  and  O_7
REMARK    3  A    between atoms: C_5  and  O_9
REMARK    4  A    between atoms: C_12  and  C_14
REMARK    5  A    between atoms: C_14  and  O_15
REMARK                            x       y       z     vdW  Elec       q    Type
REMARK                         _______ _______ _______ _____ _____    ______ ____
ROOT
ATOM      1  C   UNL     1      -4.436  -1.306 -19.272  0.00  0.00    +0.000 A 
ATOM      2  C   UNL     1      -2.184  -0.645 -18.660  0.00  0.00    +0.000 A 
ATOM      3  C   UNL     1      -3.123  -1.641 -18.946  0.00  0.00    +0.000 A 
ATOM      4  C   UNL     1      -4.826   0.031 -19.315  0.00  0.00    +0.000 A 
ATOM      5  C   UNL     1      -2.590   0.692 -18.707  0.00  0.00    +0.000 A 
ATOM      6  C   UNL     1      -3.902   1.032 -19.033  0.00  0.00    +0.000 A 
ENDROOT
BRANCH   2   7
ATOM      7  O   UNL     1      -0.873  -0.889 -18.330  0.00  0.00    +0.000 OA
ATOM      8  C   UNL     1      -0.111  -1.525 -19.323  0.00  0.00    +0.000 C 
ENDBRANCH   2   7
BRANCH   5   9
ATOM      9  O   UNL     1      -1.686   1.681 -18.431  0.00  0.00    +0.000 OA
ATOM     10  H   UNL     1      -1.147   1.409 -17.666  0.00  0.00    +0.000 HD
ENDBRANCH   5   9
BRANCH   1  11
ATOM     11  C   UNL     1      -5.380  -2.335 -19.560  0.00  0.00    +0.000 C 
ATOM     12  C   UNL     1      -6.176  -3.202 -19.804  0.00  0.00    +0.000 C 
BRANCH  12  14
ATOM     13  O   UNL     1      -7.324  -4.581 -21.260  0.00  0.00    +0.000 OA
ATOM     14  C   UNL     1      -7.135  -4.241 -20.100  0.00  0.00    +0.000 C 
BRANCH  14  15
ATOM     15  O   UNL     1      -7.719  -4.713 -18.959  0.00  0.00    +0.000 OA
ATOM     16  C   UNL     1      -9.073  -4.407 -18.739  0.00  0.00    +0.000 C 
ENDBRANCH  14  15
ENDBRANCH  12  14
ENDBRANCH   1  11
TORSDOF 5
ENDMDL
MODEL 7
REMARK VINA RESULT:      -4.5      2.692      7.181
REMARK  Name = 5357283_Methylferulate.pdbqt.pdb
REMARK  5 active torsions:
REMARK  status: ('A' for Active; 'I' for Inactive)
REMARK    1  A    between atoms: C_1  and  C_11
REMARK    2  A    between atoms: C_2  and  O_7
REMARK    3  A    between atoms: C_5  and  O_9
REMARK    4  A    between atoms: C_12  and  C_14
REMARK    5  A    between atoms: C_14  and  O_15
REMARK                            x       y       z     vdW  Elec       q    Type
REMARK                         _______ _______ _______ _____ _____    ______ ____
ROOT
ATOM      1  C   UNL     1       4.929   0.151 -18.685  0.00  0.00    +0.000 A 
ATOM      2  C   UNL     1       2.593  -0.394 -18.331  0.00  0.00    +0.000 A 
ATOM      3  C   UNL     1       3.598   0.548 -18.571  0.00  0.00    +0.000 A 
ATOM      4  C   UNL     1       5.271  -1.193 -18.560  0.00  0.00    +0.000 A 
ATOM      5  C   UNL     1       2.951  -1.739 -18.208  0.00  0.00    +0.000 A 
ATOM      6  C   UNL     1       4.281  -2.141 -18.321  0.00  0.00    +0.000 A 
ENDROOT
BRANCH   2   7
ATOM      7  O   UNL     1       1.259  -0.088 -18.205  0.00  0.00    +0.000 OA
ATOM      8  C   UNL     1       0.616   0.298 -19.392  0.00  0.00    +0.000 C 
ENDBRANCH   2   7
BRANCH   5   9
ATOM      9  O   UNL     1       1.982  -2.677 -17.974  0.00  0.00    +0.000 OA
ATOM     10  H   UNL     1       1.936  -2.847 -17.015  0.00  0.00    +0.000 HD
ENDBRANCH   5   9
BRANCH   1  11
ATOM     11  C   UNL     1       5.941   1.126 -18.929  0.00  0.00    +0.000 C 
ATOM     12  C   UNL     1       6.793   1.949 -19.136  0.00  0.00    +0.000 C 
BRANCH  12  14
ATOM     13  O   UNL     1       8.142   3.715 -18.503  0.00  0.00    +0.000 OA
ATOM     14  C   UNL     1       7.818   2.934 -19.389  0.00  0.00    +0.000 C 
BRANCH  14  15
ATOM     15  O   UNL     1       8.297   2.834 -20.664  0.00  0.00    +0.000 OA
ATOM     16  C   UNL     1       9.192   1.788 -20.950  0.00  0.00    +0.000 C 
ENDBRANCH  14  15
ENDBRANCH  12  14
ENDBRANCH   1  11
TORSDOF 5
ENDMDL
MODEL 8
REMARK VINA RESULT:      -4.5     17.195     18.628
REMARK  Name = 5357283_Methylferulate.pdbqt.pdb
REMARK  5 active torsions:
REMARK  status: ('A' for Active; 'I' for Inactive)
REMARK    1  A    between atoms: C_1  and  C_11
REMARK    2  A    between atoms: C_2  and  O_7
REMARK    3  A    between atoms: C_5  and  O_9
REMARK    4  A    between atoms: C_12  and  C_14
REMARK    5  A    between atoms: C_14  and  O_15
REMARK                            x       y       z     vdW  Elec       q    Type
REMARK                         _______ _______ _______ _____ _____    ______ ____
ROOT
ATOM      1  C   UNL     1       5.758   3.937   0.263  0.00  0.00    +0.000 A 
ATOM      2  C   UNL     1       7.122   5.156  -1.329  0.00  0.00    +0.000 A 
ATOM      3  C   UNL     1       6.094   4.250  -1.053  0.00  0.00    +0.000 A 
ATOM      4  C   UNL     1       6.447   4.528   1.319  0.00  0.00    +0.000 A 
ATOM      5  C   UNL     1       7.804   5.741  -0.259  0.00  0.00    +0.000 A 
ATOM      6  C   UNL     1       7.472   5.432   1.059  0.00  0.00    +0.000 A 
ENDROOT
BRANCH   2   7
ATOM      7  O   UNL     1       7.515   5.519  -2.595  0.00  0.00    +0.000 OA
ATOM      8  C   UNL     1       7.810   4.455  -3.461  0.00  0.00    +0.000 C 
ENDBRANCH   2   7
BRANCH   5   9
ATOM      9  O   UNL     1       8.813   6.632  -0.509  0.00  0.00    +0.000 OA
ATOM     10  H   UNL     1       9.581   6.145  -0.859  0.00  0.00    +0.000 HD
ENDBRANCH   5   9
BRANCH   1  11
ATOM     11  C   UNL     1       4.707   3.010   0.526  0.00  0.00    +0.000 C 
ATOM     12  C   UNL     1       3.823   2.226   0.748  0.00  0.00    +0.000 C 
BRANCH  12  14
ATOM     13  O   UNL     1       2.996   0.267   1.653  0.00  0.00    +0.000 OA
ATOM     14  C   UNL     1       2.761   1.282   1.010  0.00  0.00    +0.000 C 
BRANCH  14  15
ATOM     15  O   UNL     1       1.582   1.700   0.462  0.00  0.00    +0.000 OA
ATOM     16  C   UNL     1       0.783   2.580   1.212  0.00  0.00    +0.000 C 
ENDBRANCH  14  15
ENDBRANCH  12  14
ENDBRANCH   1  11
TORSDOF 5
ENDMDL
MODEL 9
REMARK VINA RESULT:      -4.5     14.632     17.218
REMARK  Name = 5357283_Methylferulate.pdbqt.pdb
REMARK  5 active torsions:
REMARK  status: ('A' for Active; 'I' for Inactive)
REMARK    1  A    between atoms: C_1  and  C_11
REMARK    2  A    between atoms: C_2  and  O_7
REMARK    3  A    between atoms: C_5  and  O_9
REMARK    4  A    between atoms: C_12  and  C_14
REMARK    5  A    between atoms: C_14  and  O_15
REMARK                            x       y       z     vdW  Elec       q    Type
REMARK                         _______ _______ _______ _____ _____    ______ ____
ROOT
ATOM      1  C   UNL     1      10.831  -7.152  -4.885  0.00  0.00    +0.000 A 
ATOM      2  C   UNL     1      10.266  -5.113  -6.071  0.00  0.00    +0.000 A 
ATOM      3  C   UNL     1      11.001  -6.298  -5.974  0.00  0.00    +0.000 A 
ATOM      4  C   UNL     1       9.922  -6.829  -3.880  0.00  0.00    +0.000 A 
ATOM      5  C   UNL     1       9.358  -4.802  -5.055  0.00  0.00    +0.000 A 
ATOM      6  C   UNL     1       9.184  -5.653  -3.964  0.00  0.00    +0.000 A 
ENDROOT
BRANCH   2   7
ATOM      7  O   UNL     1      10.373  -4.218  -7.108  0.00  0.00    +0.000 OA
ATOM      8  C   UNL     1       9.646  -4.546  -8.263  0.00  0.00    +0.000 C 
ENDBRANCH   2   7
BRANCH   5   9
ATOM      9  O   UNL     1       8.628  -3.647  -5.132  0.00  0.00    +0.000 OA
ATOM     10  H   UNL     1       9.226  -2.890  -4.995  0.00  0.00    +0.000 HD
ENDBRANCH   5   9
BRANCH   1  11
ATOM     11  C   UNL     1      11.590  -8.355  -4.802  0.00  0.00    +0.000 C 
ATOM     12  C   UNL     1      12.231  -9.371  -4.731  0.00  0.00    +0.000 C 
BRANCH  12  14
ATOM     13  O   UNL     1      12.432 -11.667  -4.563  0.00  0.00    +0.000 OA
ATOM     14  C   UNL     1      13.004 -10.588  -4.643  0.00  0.00    +0.000 C 
BRANCH  14  15
ATOM     15  O   UNL     1      14.344 -10.324  -4.665  0.00  0.00    +0.000 OA
ATOM     16  C   UNL     1      14.914  -9.723  -3.530  0.00  0.00    +0.000 C 
ENDBRANCH  14  15
ENDBRANCH  12  14
ENDBRANCH   1  11
TORSDOF 5
ENDMDL
