MODEL 1
REMARK VINA RESULT:      -7.3      0.000      0.000
REMARK  Name = 5358691_Yuanhuacine.pdbqt.pdb
REMARK  12 active torsions:
REMARK  status: ('A' for Active; 'I' for Inactive)
REMARK    1  A    between atoms: C_9  and  C_48
REMARK    2  A    between atoms: C_13  and  C_23
REMARK    3  A    between atoms: C_14  and  O_26
REMARK    4  A    between atoms: C_15  and  O_28
REMARK    5  A    between atoms: C_16  and  O_39
REMARK    6  A    between atoms: C_17  and  C_30
REMARK    7  A    between atoms: C_31  and  C_32
REMARK    8  A    between atoms: C_33  and  C_34
REMARK    9  A    between atoms: C_35  and  C_36
REMARK   10  A    between atoms: O_39  and  C_41
REMARK   11  A    between atoms: C_41  and  C_42
REMARK   12  A    between atoms: C_48  and  O_49
REMARK                            x       y       z     vdW  Elec       q    Type
REMARK                         _______ _______ _______ _____ _____    ______ ____
ROOT
ATOM      1  O   UNL     1     -11.708   1.493   0.124  0.00  0.00    +0.000 OA
ATOM      2  O   UNL     1      -9.456  -0.889   1.356  0.00  0.00    +0.000 OA
ATOM      3  O   UNL     1      -9.392  -0.668  -1.007  0.00  0.00    +0.000 OA
ATOM      4  O   UNL     1      -8.801  -2.673  -0.064  0.00  0.00    +0.000 OA
ATOM      5  O   UNL     1     -14.169   0.497   4.604  0.00  0.00    +0.000 OA
ATOM      6  C   UNL     1     -11.445  -0.833  -0.041  0.00  0.00    +0.000 C 
ATOM      7  C   UNL     1     -10.890  -1.168   1.351  0.00  0.00    +0.000 C 
ATOM      8  C   UNL     1     -12.215   0.327  -0.393  0.00  0.00    +0.000 C 
ATOM      9  C   UNL     1     -13.107   1.244   0.318  0.00  0.00    +0.000 C 
ATOM     10  C   UNL     1     -10.536  -1.464  -1.004  0.00  0.00    +0.000 C 
ATOM     11  C   UNL     1     -11.507  -0.323   2.424  0.00  0.00    +0.000 C 
ATOM     12  C   UNL     1     -11.099  -2.689   1.617  0.00  0.00    +0.000 C 
ATOM     13  C   UNL     1     -10.093  -2.914  -0.690  0.00  0.00    +0.000 C 
ATOM     14  C   UNL     1     -13.007  -0.172   2.539  0.00  0.00    +0.000 C 
ATOM     15  C   UNL     1     -13.630   0.874   1.661  0.00  0.00    +0.000 C 
ATOM     16  C   UNL     1     -10.914  -3.518   0.436  0.00  0.00    +0.000 C 
ATOM     17  C   UNL     1      -8.767  -1.262   0.137  0.00  0.00    +0.000 C 
ATOM     18  C   UNL     1     -10.922   0.039   3.665  0.00  0.00    +0.000 C 
ATOM     19  C   UNL     1     -11.236  -3.357   2.985  0.00  0.00    +0.000 C 
ATOM     20  C   UNL     1     -13.104   0.259   4.040  0.00  0.00    +0.000 C 
ATOM     21  C   UNL     1     -11.727   0.344   4.626  0.00  0.00    +0.000 C 
ATOM     22  C   UNL     1     -11.326   1.139   5.825  0.00  0.00    +0.000 C 
ENDROOT
BRANCH  13  23
ATOM     23  C   UNL     1      -9.989  -3.729  -2.000  0.00  0.00    +0.000 C 
ATOM     24  C   UNL     1      -8.868  -3.564  -3.026  0.00  0.00    +0.000 C 
ATOM     25  C   UNL     1     -11.007  -4.453  -2.510  0.00  0.00    +0.000 C 
ENDBRANCH  13  23
BRANCH  14  26
ATOM     26  O   UNL     1     -13.664  -1.396   2.290  0.00  0.00    +0.000 OA
ATOM     27  H   UNL     1     -14.566  -1.184   1.978  0.00  0.00    +0.000 HD
ENDBRANCH  14  26
BRANCH  15  28
ATOM     28  O   UNL     1     -14.867   1.381   2.065  0.00  0.00    +0.000 OA
ATOM     29  H   UNL     1     -15.002   2.336   1.885  0.00  0.00    +0.000 HD
ENDBRANCH  15  28
BRANCH  17  30
ATOM     30  C   UNL     1      -7.380  -0.818   0.227  0.00  0.00    +0.000 C 
ATOM     31  C   UNL     1      -6.239  -0.453   0.299  0.00  0.00    +0.000 C 
BRANCH  31  32
ATOM     32  C   UNL     1      -4.783   0.013   0.389  0.00  0.00    +0.000 C 
ATOM     33  C   UNL     1      -3.642   0.379   0.459  0.00  0.00    +0.000 C 
BRANCH  33  34
ATOM     34  C   UNL     1      -2.186   0.847   0.546  0.00  0.00    +0.000 C 
ATOM     35  C   UNL     1      -0.730   1.313   0.632  0.00  0.00    +0.000 C 
BRANCH  35  36
ATOM     36  C   UNL     1       0.727   1.780   0.717  0.00  0.00    +0.000 C 
ATOM     37  C   UNL     1       2.182   2.249   0.801  0.00  0.00    +0.000 C 
ATOM     38  C   UNL     1       3.638   2.718   0.886  0.00  0.00    +0.000 C 
ENDBRANCH  35  36
ENDBRANCH  33  34
ENDBRANCH  31  32
ENDBRANCH  17  30
BRANCH  16  39
ATOM     39  O   UNL     1     -11.461  -4.812   0.444  0.00  0.00    +0.000 OA
BRANCH  39  41
ATOM     40  O   UNL     1     -13.559  -3.885   0.307  0.00  0.00    +0.000 OA
ATOM     41  C   UNL     1     -12.815  -4.851   0.273  0.00  0.00    +0.000 C 
BRANCH  41  42
ATOM     42  C   UNL     1     -13.267  -6.241   0.083  0.00  0.00    +0.000 A 
ATOM     43  C   UNL     1     -14.405  -6.542  -0.666  0.00  0.00    +0.000 A 
ATOM     44  C   UNL     1     -12.525  -7.263   0.672  0.00  0.00    +0.000 A 
ATOM     45  C   UNL     1     -14.800  -7.868  -0.824  0.00  0.00    +0.000 A 
ATOM     46  C   UNL     1     -12.921  -8.588   0.511  0.00  0.00    +0.000 A 
ATOM     47  C   UNL     1     -14.058  -8.890  -0.236  0.00  0.00    +0.000 A 
ENDBRANCH  41  42
ENDBRANCH  39  41
ENDBRANCH  16  39
BRANCH   9  48
ATOM     48  C   UNL     1     -13.886   2.189  -0.471  0.00  0.00    +0.000 C 
BRANCH  48  49
ATOM     49  O   UNL     1     -14.599   3.054  -1.187  0.00  0.00    +0.000 OA
ATOM     50  H   UNL     1     -15.175   3.582  -0.607  0.00  0.00    +0.000 HD
ENDBRANCH  48  49
ENDBRANCH   9  48
TORSDOF 12
ENDMDL
MODEL 2
REMARK VINA RESULT:      -7.2     24.146     29.352
REMARK  Name = 5358691_Yuanhuacine.pdbqt.pdb
REMARK  12 active torsions:
REMARK  status: ('A' for Active; 'I' for Inactive)
REMARK    1  A    between atoms: C_9  and  C_48
REMARK    2  A    between atoms: C_13  and  C_23
REMARK    3  A    between atoms: C_14  and  O_26
REMARK    4  A    between atoms: C_15  and  O_28
REMARK    5  A    between atoms: C_16  and  O_39
REMARK    6  A    between atoms: C_17  and  C_30
REMARK    7  A    between atoms: C_31  and  C_32
REMARK    8  A    between atoms: C_33  and  C_34
REMARK    9  A    between atoms: C_35  and  C_36
REMARK   10  A    between atoms: O_39  and  C_41
REMARK   11  A    between atoms: C_41  and  C_42
REMARK   12  A    between atoms: C_48  and  O_49
REMARK                            x       y       z     vdW  Elec       q    Type
REMARK                         _______ _______ _______ _____ _____    ______ ____
ROOT
ATOM      1  O   UNL     1      10.089   1.637 -18.291  0.00  0.00    +0.000 OA
ATOM      2  O   UNL     1       9.193   0.927 -21.600  0.00  0.00    +0.000 OA
ATOM      3  O   UNL     1       7.563   2.202 -20.439  0.00  0.00    +0.000 OA
ATOM      4  O   UNL     1       6.889   0.847 -22.162  0.00  0.00    +0.000 OA
ATOM      5  O   UNL     1      13.075  -2.585 -18.901  0.00  0.00    +0.000 OA
ATOM      6  C   UNL     1       8.416   0.389 -19.361  0.00  0.00    +0.000 C 
ATOM      7  C   UNL     1       9.174  -0.129 -20.592  0.00  0.00    +0.000 C 
ATOM      8  C   UNL     1       8.999   0.821 -18.123  0.00  0.00    +0.000 C 
ATOM      9  C   UNL     1      10.233   0.530 -17.391  0.00  0.00    +0.000 C 
ATOM     10  C   UNL     1       7.177   0.990 -19.870  0.00  0.00    +0.000 C 
ATOM     11  C   UNL     1      10.600  -0.465 -20.277  0.00  0.00    +0.000 C 
ATOM     12  C   UNL     1       8.403  -1.353 -21.172  0.00  0.00    +0.000 C 
ATOM     13  C   UNL     1       6.414   0.190 -20.954  0.00  0.00    +0.000 C 
ATOM     14  C   UNL     1      10.958  -1.343 -19.099  0.00  0.00    +0.000 C 
ATOM     15  C   UNL     1      11.056  -0.650 -17.772  0.00  0.00    +0.000 C 
ATOM     16  C   UNL     1       6.957  -1.222 -21.092  0.00  0.00    +0.000 C 
ATOM     17  C   UNL     1       7.958   1.676 -21.711  0.00  0.00    +0.000 C 
ATOM     18  C   UNL     1      11.697  -0.449 -21.177  0.00  0.00    +0.000 C 
ATOM     19  C   UNL     1       9.006  -2.498 -21.986  0.00  0.00    +0.000 C 
ATOM     20  C   UNL     1      12.374  -1.823 -19.562  0.00  0.00    +0.000 C 
ATOM     21  C   UNL     1      12.709  -1.194 -20.881  0.00  0.00    +0.000 C 
ATOM     22  C   UNL     1      14.079  -0.995 -21.441  0.00  0.00    +0.000 C 
ENDROOT
BRANCH  13  23
ATOM     23  C   UNL     1       4.889   0.340 -20.743  0.00  0.00    +0.000 C 
ATOM     24  C   UNL     1       3.849   0.168 -21.849  0.00  0.00    +0.000 C 
ATOM     25  C   UNL     1       4.341   0.910 -19.650  0.00  0.00    +0.000 C 
ENDBRANCH  13  23
BRANCH  14  26
ATOM     26  O   UNL     1      10.048  -2.413 -18.965  0.00  0.00    +0.000 OA
ATOM     27  H   UNL     1       9.309  -2.245 -19.582  0.00  0.00    +0.000 HD
ENDBRANCH  14  26
BRANCH  15  28
ATOM     28  O   UNL     1      11.834  -1.272 -16.792  0.00  0.00    +0.000 OA
ATOM     29  H   UNL     1      12.723  -0.881 -16.658  0.00  0.00    +0.000 HD
ENDBRANCH  15  28
BRANCH  17  30
ATOM     30  C   UNL     1       8.155   2.770 -22.657  0.00  0.00    +0.000 C 
ATOM     31  C   UNL     1       8.316   3.668 -23.436  0.00  0.00    +0.000 C 
BRANCH  31  32
ATOM     32  C   UNL     1       8.520   4.814 -24.431  0.00  0.00    +0.000 C 
ATOM     33  C   UNL     1       8.681   5.713 -25.210  0.00  0.00    +0.000 C 
BRANCH  33  34
ATOM     34  C   UNL     1       8.885   6.862 -26.203  0.00  0.00    +0.000 C 
ATOM     35  C   UNL     1       9.091   8.010 -27.194  0.00  0.00    +0.000 C 
BRANCH  35  36
ATOM     36  C   UNL     1       9.298   9.159 -28.187  0.00  0.00    +0.000 C 
ATOM     37  C   UNL     1       9.504  10.307 -29.179  0.00  0.00    +0.000 C 
ATOM     38  C   UNL     1       9.710  11.457 -30.171  0.00  0.00    +0.000 C 
ENDBRANCH  35  36
ENDBRANCH  33  34
ENDBRANCH  31  32
ENDBRANCH  17  30
BRANCH  16  39
ATOM     39  O   UNL     1       6.180  -2.388 -21.194  0.00  0.00    +0.000 OA
BRANCH  39  41
ATOM     40  O   UNL     1       6.855  -3.842 -19.547  0.00  0.00    +0.000 OA
ATOM     41  C   UNL     1       6.037  -3.072 -20.020  0.00  0.00    +0.000 C 
BRANCH  41  42
ATOM     42  C   UNL     1       4.723  -2.784 -19.417  0.00  0.00    +0.000 A 
ATOM     43  C   UNL     1       4.612  -2.211 -18.150  0.00  0.00    +0.000 A 
ATOM     44  C   UNL     1       3.578  -3.097 -20.148  0.00  0.00    +0.000 A 
ATOM     45  C   UNL     1       3.352  -1.952 -17.615  0.00  0.00    +0.000 A 
ATOM     46  C   UNL     1       2.320  -2.836 -19.610  0.00  0.00    +0.000 A 
ATOM     47  C   UNL     1       2.208  -2.264 -18.345  0.00  0.00    +0.000 A 
ENDBRANCH  41  42
ENDBRANCH  39  41
ENDBRANCH  16  39
BRANCH   9  48
ATOM     48  C   UNL     1      10.350   1.021 -16.025  0.00  0.00    +0.000 C 
BRANCH  48  49
ATOM     49  O   UNL     1      10.461   1.473 -14.779  0.00  0.00    +0.000 OA
ATOM     50  H   UNL     1       9.666   1.975 -14.527  0.00  0.00    +0.000 HD
ENDBRANCH  48  49
ENDBRANCH   9  48
TORSDOF 12
ENDMDL
MODEL 3
REMARK VINA RESULT:      -6.8      1.817      6.336
REMARK  Name = 5358691_Yuanhuacine.pdbqt.pdb
REMARK  12 active torsions:
REMARK  status: ('A' for Active; 'I' for Inactive)
REMARK    1  A    between atoms: C_9  and  C_48
REMARK    2  A    between atoms: C_13  and  C_23
REMARK    3  A    between atoms: C_14  and  O_26
REMARK    4  A    between atoms: C_15  and  O_28
REMARK    5  A    between atoms: C_16  and  O_39
REMARK    6  A    between atoms: C_17  and  C_30
REMARK    7  A    between atoms: C_31  and  C_32
REMARK    8  A    between atoms: C_33  and  C_34
REMARK    9  A    between atoms: C_35  and  C_36
REMARK   10  A    between atoms: O_39  and  C_41
REMARK   11  A    between atoms: C_41  and  C_42
REMARK   12  A    between atoms: C_48  and  O_49
REMARK                            x       y       z     vdW  Elec       q    Type
REMARK                         _______ _______ _______ _____ _____    ______ ____
ROOT
ATOM      1  O   UNL     1     -10.211  -4.148   2.348  0.00  0.00    +0.000 OA
ATOM      2  O   UNL     1      -9.433  -1.115   0.781  0.00  0.00    +0.000 OA
ATOM      3  O   UNL     1      -9.251  -1.024   3.145  0.00  0.00    +0.000 OA
ATOM      4  O   UNL     1      -9.730   0.901   1.997  0.00  0.00    +0.000 OA
ATOM      5  O   UNL     1     -12.877  -4.963  -2.051  0.00  0.00    +0.000 OA
ATOM      6  C   UNL     1     -11.126  -1.988   2.291  0.00  0.00    +0.000 C 
ATOM      7  C   UNL     1     -10.819  -1.574   0.844  0.00  0.00    +0.000 C 
ATOM      8  C   UNL     1     -11.222  -3.332   2.788  0.00  0.00    +0.000 C 
ATOM      9  C   UNL     1     -11.553  -4.637   2.215  0.00  0.00    +0.000 C 
ATOM     10  C   UNL     1     -10.639  -0.895   3.140  0.00  0.00    +0.000 C 
ATOM     11  C   UNL     1     -10.947  -2.720  -0.112  0.00  0.00    +0.000 C 
ATOM     12  C   UNL     1     -11.752  -0.387   0.458  0.00  0.00    +0.000 C 
ATOM     13  C   UNL     1     -10.969   0.544   2.673  0.00  0.00    +0.000 C 
ATOM     14  C   UNL     1     -12.180  -3.597  -0.125  0.00  0.00    +0.000 C 
ATOM     15  C   UNL     1     -12.200  -4.714   0.877  0.00  0.00    +0.000 C 
ATOM     16  C   UNL     1     -11.989   0.546   1.548  0.00  0.00    +0.000 C 
ATOM     17  C   UNL     1      -9.008  -0.326   1.919  0.00  0.00    +0.000 C 
ATOM     18  C   UNL     1     -10.269  -2.879  -1.348  0.00  0.00    +0.000 C 
ATOM     19  C   UNL     1     -12.210  -0.021  -0.954  0.00  0.00    +0.000 C 
ATOM     20  C   UNL     1     -12.063  -4.176  -1.574  0.00  0.00    +0.000 C 
ATOM     21  C   UNL     1     -10.827  -3.639  -2.230  0.00  0.00    +0.000 C 
ATOM     22  C   UNL     1     -10.095  -4.258  -3.375  0.00  0.00    +0.000 C 
ENDROOT
BRANCH  13  23
ATOM     23  C   UNL     1     -11.270   1.439   3.898  0.00  0.00    +0.000 C 
ATOM     24  C   UNL     1     -12.239   1.062   5.017  0.00  0.00    +0.000 C 
ATOM     25  C   UNL     1     -10.938   2.744   3.966  0.00  0.00    +0.000 C 
ENDBRANCH  13  23
BRANCH  14  26
ATOM     26  O   UNL     1     -13.353  -2.832   0.053  0.00  0.00    +0.000 OA
ATOM     27  H   UNL     1     -13.811  -2.798  -0.810  0.00  0.00    +0.000 HD
ENDBRANCH  14  26
BRANCH  15  28
ATOM     28  O   UNL     1     -13.030  -5.801   0.593  0.00  0.00    +0.000 OA
ATOM     29  H   UNL     1     -13.273  -5.901  -0.353  0.00  0.00    +0.000 HD
ENDBRANCH  15  28
BRANCH  17  30
ATOM     30  C   UNL     1      -7.583  -0.042   1.788  0.00  0.00    +0.000 C 
ATOM     31  C   UNL     1      -6.411   0.194   1.678  0.00  0.00    +0.000 C 
BRANCH  31  32
ATOM     32  C   UNL     1      -4.916   0.496   1.540  0.00  0.00    +0.000 C 
ATOM     33  C   UNL     1      -3.744   0.732   1.431  0.00  0.00    +0.000 C 
BRANCH  33  34
ATOM     34  C   UNL     1      -2.248   1.031   1.294  0.00  0.00    +0.000 C 
ATOM     35  C   UNL     1      -0.753   1.330   1.156  0.00  0.00    +0.000 C 
BRANCH  35  36
ATOM     36  C   UNL     1       0.743   1.631   1.018  0.00  0.00    +0.000 C 
ATOM     37  C   UNL     1       2.238   1.932   0.881  0.00  0.00    +0.000 C 
ATOM     38  C   UNL     1       3.734   2.233   0.744  0.00  0.00    +0.000 C 
ENDBRANCH  35  36
ENDBRANCH  33  34
ENDBRANCH  31  32
ENDBRANCH  17  30
BRANCH  16  39
ATOM     39  O   UNL     1     -13.102   1.398   1.458  0.00  0.00    +0.000 OA
BRANCH  39  41
ATOM     40  O   UNL     1     -14.471  -0.090   2.549  0.00  0.00    +0.000 OA
ATOM     41  C   UNL     1     -14.297   0.794   1.728  0.00  0.00    +0.000 C 
BRANCH  41  42
ATOM     42  C   UNL     1     -15.352   1.330   0.849  0.00  0.00    +0.000 A 
ATOM     43  C   UNL     1     -15.107   2.389  -0.024  0.00  0.00    +0.000 A 
ATOM     44  C   UNL     1     -16.618   0.748   0.907  0.00  0.00    +0.000 A 
ATOM     45  C   UNL     1     -16.130   2.867  -0.839  0.00  0.00    +0.000 A 
ATOM     46  C   UNL     1     -17.638   1.227   0.091  0.00  0.00    +0.000 A 
ATOM     47  C   UNL     1     -17.394   2.285  -0.782  0.00  0.00    +0.000 A 
ENDBRANCH  41  42
ENDBRANCH  39  41
ENDBRANCH  16  39
BRANCH   9  48
ATOM     48  C   UNL     1     -11.760  -5.752   3.129  0.00  0.00    +0.000 C 
BRANCH  48  49
ATOM     49  O   UNL     1     -11.948  -6.775   3.959  0.00  0.00    +0.000 OA
ATOM     50  H   UNL     1     -11.569  -7.590   3.586  0.00  0.00    +0.000 HD
ENDBRANCH  48  49
ENDBRANCH   9  48
TORSDOF 12
ENDMDL
MODEL 4
REMARK VINA RESULT:      -6.8     26.577     31.531
REMARK  Name = 5358691_Yuanhuacine.pdbqt.pdb
REMARK  12 active torsions:
REMARK  status: ('A' for Active; 'I' for Inactive)
REMARK    1  A    between atoms: C_9  and  C_48
REMARK    2  A    between atoms: C_13  and  C_23
REMARK    3  A    between atoms: C_14  and  O_26
REMARK    4  A    between atoms: C_15  and  O_28
REMARK    5  A    between atoms: C_16  and  O_39
REMARK    6  A    between atoms: C_17  and  C_30
REMARK    7  A    between atoms: C_31  and  C_32
REMARK    8  A    between atoms: C_33  and  C_34
REMARK    9  A    between atoms: C_35  and  C_36
REMARK   10  A    between atoms: O_39  and  C_41
REMARK   11  A    between atoms: C_41  and  C_42
REMARK   12  A    between atoms: C_48  and  O_49
REMARK                            x       y       z     vdW  Elec       q    Type
REMARK                         _______ _______ _______ _____ _____    ______ ____
ROOT
ATOM      1  O   UNL     1      12.564   1.066 -18.506  0.00  0.00    +0.000 OA
ATOM      2  O   UNL     1      12.496  -0.144 -21.791  0.00  0.00    +0.000 OA
ATOM      3  O   UNL     1      11.543   2.018 -21.566  0.00  0.00    +0.000 OA
ATOM      4  O   UNL     1      10.815   0.657 -23.262  0.00  0.00    +0.000 OA
ATOM      5  O   UNL     1      12.831  -4.007 -17.358  0.00  0.00    +0.000 OA
ATOM      6  C   UNL     1      10.908   0.446 -20.048  0.00  0.00    +0.000 C 
ATOM      7  C   UNL     1      11.604  -0.709 -20.782  0.00  0.00    +0.000 C 
ATOM      8  C   UNL     1      11.218   0.926 -18.731  0.00  0.00    +0.000 C 
ATOM      9  C   UNL     1      11.807   0.350 -17.521  0.00  0.00    +0.000 C 
ATOM     10  C   UNL     1      10.414   1.352 -21.092  0.00  0.00    +0.000 C 
ATOM     11  C   UNL     1      12.447  -1.538 -19.862  0.00  0.00    +0.000 C 
ATOM     12  C   UNL     1      10.519  -1.564 -21.504  0.00  0.00    +0.000 C 
ATOM     13  C   UNL     1       9.717   0.693 -22.307  0.00  0.00    +0.000 C 
ATOM     14  C   UNL     1      11.896  -2.071 -18.559  0.00  0.00    +0.000 C 
ATOM     15  C   UNL     1      11.937  -1.127 -17.394  0.00  0.00    +0.000 C 
ATOM     16  C   UNL     1       9.429  -0.776 -22.057  0.00  0.00    +0.000 C 
ATOM     17  C   UNL     1      11.962   1.007 -22.490  0.00  0.00    +0.000 C 
ATOM     18  C   UNL     1      13.594  -2.297 -20.210  0.00  0.00    +0.000 C 
ATOM     19  C   UNL     1      10.629  -3.046 -21.864  0.00  0.00    +0.000 C 
ATOM     20  C   UNL     1      12.893  -3.255 -18.328  0.00  0.00    +0.000 C 
ATOM     21  C   UNL     1      13.899  -3.286 -19.439  0.00  0.00    +0.000 C 
ATOM     22  C   UNL     1      15.254  -3.911 -19.385  0.00  0.00    +0.000 C 
ENDROOT
BRANCH  13  23
ATOM     23  C   UNL     1       8.535   1.573 -22.777  0.00  0.00    +0.000 C 
ATOM     24  C   UNL     1       8.140   1.768 -24.240  0.00  0.00    +0.000 C 
ATOM     25  C   UNL     1       7.916   2.473 -21.986  0.00  0.00    +0.000 C 
ENDBRANCH  13  23
BRANCH  14  26
ATOM     26  O   UNL     1      10.564  -2.515 -18.712  0.00  0.00    +0.000 OA
ATOM     27  H   UNL     1      10.525  -3.034 -19.540  0.00  0.00    +0.000 HD
ENDBRANCH  14  26
BRANCH  15  28
ATOM     28  O   UNL     1      11.912  -1.697 -16.119  0.00  0.00    +0.000 OA
ATOM     29  H   UNL     1      12.764  -2.082 -15.820  0.00  0.00    +0.000 HD
ENDBRANCH  15  28
BRANCH  17  30
ATOM     30  C   UNL     1      12.994   1.543 -23.372  0.00  0.00    +0.000 C 
ATOM     31  C   UNL     1      13.842   1.983 -24.098  0.00  0.00    +0.000 C 
BRANCH  31  32
ATOM     32  C   UNL     1      14.923   2.546 -25.025  0.00  0.00    +0.000 C 
ATOM     33  C   UNL     1      15.769   2.988 -25.753  0.00  0.00    +0.000 C 
BRANCH  33  34
ATOM     34  C   UNL     1      16.848   3.554 -26.682  0.00  0.00    +0.000 C 
ATOM     35  C   UNL     1      17.925   4.120 -27.610  0.00  0.00    +0.000 C 
BRANCH  35  36
ATOM     36  C   UNL     1      19.004   4.688 -28.539  0.00  0.00    +0.000 C 
ATOM     37  C   UNL     1      20.083   5.255 -29.466  0.00  0.00    +0.000 C 
ATOM     38  C   UNL     1      21.164   5.821 -30.393  0.00  0.00    +0.000 C 
ENDBRANCH  35  36
ENDBRANCH  33  34
ENDBRANCH  31  32
ENDBRANCH  17  30
BRANCH  16  39
ATOM     39  O   UNL     1       8.224  -1.434 -22.357  0.00  0.00    +0.000 OA
BRANCH  39  41
ATOM     40  O   UNL     1       7.475  -3.101 -20.964  0.00  0.00    +0.000 OA
ATOM     41  C   UNL     1       7.564  -1.923 -21.265  0.00  0.00    +0.000 C 
BRANCH  41  42
ATOM     42  C   UNL     1       6.930  -0.824 -20.515  0.00  0.00    +0.000 A 
ATOM     43  C   UNL     1       7.540  -0.256 -19.398  0.00  0.00    +0.000 A 
ATOM     44  C   UNL     1       5.691  -0.356 -20.951  0.00  0.00    +0.000 A 
ATOM     45  C   UNL     1       6.910   0.783 -18.716  0.00  0.00    +0.000 A 
ATOM     46  C   UNL     1       5.063   0.682 -20.268  0.00  0.00    +0.000 A 
ATOM     47  C   UNL     1       5.672   1.250 -19.152  0.00  0.00    +0.000 A 
ENDBRANCH  41  42
ENDBRANCH  39  41
ENDBRANCH  16  39
BRANCH   9  48
ATOM     48  C   UNL     1      11.742   1.129 -16.292  0.00  0.00    +0.000 C 
BRANCH  48  49
ATOM     49  O   UNL     1      11.678   1.844 -15.172  0.00  0.00    +0.000 OA
ATOM     50  H   UNL     1      12.570   1.995 -14.813  0.00  0.00    +0.000 HD
ENDBRANCH  48  49
ENDBRANCH   9  48
TORSDOF 12
ENDMDL
MODEL 5
REMARK VINA RESULT:      -6.8     22.954     26.968
REMARK  Name = 5358691_Yuanhuacine.pdbqt.pdb
REMARK  12 active torsions:
REMARK  status: ('A' for Active; 'I' for Inactive)
REMARK    1  A    between atoms: C_9  and  C_48
REMARK    2  A    between atoms: C_13  and  C_23
REMARK    3  A    between atoms: C_14  and  O_26
REMARK    4  A    between atoms: C_15  and  O_28
REMARK    5  A    between atoms: C_16  and  O_39
REMARK    6  A    between atoms: C_17  and  C_30
REMARK    7  A    between atoms: C_31  and  C_32
REMARK    8  A    between atoms: C_33  and  C_34
REMARK    9  A    between atoms: C_35  and  C_36
REMARK   10  A    between atoms: O_39  and  C_41
REMARK   11  A    between atoms: C_41  and  C_42
REMARK   12  A    between atoms: C_48  and  O_49
REMARK                            x       y       z     vdW  Elec       q    Type
REMARK                         _______ _______ _______ _____ _____    ______ ____
ROOT
ATOM      1  O   UNL     1      11.993  -4.391  -6.218  0.00  0.00    +0.000 OA
ATOM      2  O   UNL     1      15.166  -4.784  -4.791  0.00  0.00    +0.000 OA
ATOM      3  O   UNL     1      14.976  -2.838  -6.137  0.00  0.00    +0.000 OA
ATOM      4  O   UNL     1      17.034  -3.819  -5.890  0.00  0.00    +0.000 OA
ATOM      5  O   UNL     1      11.766  -9.542  -5.488  0.00  0.00    +0.000 OA
ATOM      6  C   UNL     1      14.168  -4.779  -7.007  0.00  0.00    +0.000 C 
ATOM      7  C   UNL     1      14.739  -5.655  -5.883  0.00  0.00    +0.000 C 
ATOM      8  C   UNL     1      12.779  -4.600  -7.323  0.00  0.00    +0.000 C 
ATOM      9  C   UNL     1      11.558  -5.389  -7.151  0.00  0.00    +0.000 C 
ATOM     10  C   UNL     1      15.142  -3.702  -7.218  0.00  0.00    +0.000 C 
ATOM     11  C   UNL     1      13.716  -6.595  -5.323  0.00  0.00    +0.000 C 
ATOM     12  C   UNL     1      15.988  -6.412  -6.428  0.00  0.00    +0.000 C 
ATOM     13  C   UNL     1      16.634  -4.115  -7.258  0.00  0.00    +0.000 C 
ATOM     14  C   UNL     1      12.880  -7.474  -6.226  0.00  0.00    +0.000 C 
ATOM     15  C   UNL     1      11.655  -6.834  -6.812  0.00  0.00    +0.000 C 
ATOM     16  C   UNL     1      16.793  -5.623  -7.346  0.00  0.00    +0.000 C 
ATOM     17  C   UNL     1      15.806  -3.556  -5.216  0.00  0.00    +0.000 C 
ATOM     18  C   UNL     1      13.684  -7.137  -4.013  0.00  0.00    +0.000 C 
ATOM     19  C   UNL     1      16.528  -7.749  -5.918  0.00  0.00    +0.000 C 
ATOM     20  C   UNL     1      12.470  -8.578  -5.197  0.00  0.00    +0.000 C 
ATOM     21  C   UNL     1      13.047  -8.248  -3.853  0.00  0.00    +0.000 C 
ATOM     22  C   UNL     1      12.546  -8.737  -2.533  0.00  0.00    +0.000 C 
ENDROOT
BRANCH  13  23
ATOM     23  C   UNL     1      17.388  -3.265  -8.307  0.00  0.00    +0.000 C 
ATOM     24  C   UNL     1      18.872  -2.914  -8.220  0.00  0.00    +0.000 C 
ATOM     25  C   UNL     1      16.769  -2.516  -9.243  0.00  0.00    +0.000 C 
ENDBRANCH  13  23
BRANCH  14  26
ATOM     26  O   UNL     1      13.650  -7.992  -7.290  0.00  0.00    +0.000 OA
ATOM     27  H   UNL     1      13.289  -8.875  -7.506  0.00  0.00    +0.000 HD
ENDBRANCH  14  26
BRANCH  15  28
ATOM     28  O   UNL     1      10.630  -7.692  -7.221  0.00  0.00    +0.000 OA
ATOM     29  H   UNL     1      10.314  -7.551  -8.139  0.00  0.00    +0.000 HD
ENDBRANCH  15  28
BRANCH  17  30
ATOM     30  C   UNL     1      16.066  -2.730  -4.041  0.00  0.00    +0.000 C 
ATOM     31  C   UNL     1      16.278  -2.051  -3.073  0.00  0.00    +0.000 C 
BRANCH  31  32
ATOM     32  C   UNL     1      16.547  -1.187  -1.839  0.00  0.00    +0.000 C 
ATOM     33  C   UNL     1      16.759  -0.509  -0.871  0.00  0.00    +0.000 C 
BRANCH  33  34
ATOM     34  C   UNL     1      17.032   0.354   0.365  0.00  0.00    +0.000 C 
ATOM     35  C   UNL     1      17.305   1.216   1.600  0.00  0.00    +0.000 C 
BRANCH  35  36
ATOM     36  C   UNL     1      17.580   2.080   2.835  0.00  0.00    +0.000 C 
ATOM     37  C   UNL     1      17.853   2.943   4.070  0.00  0.00    +0.000 C 
ATOM     38  C   UNL     1      18.126   3.806   5.307  0.00  0.00    +0.000 C 
ENDBRANCH  35  36
ENDBRANCH  33  34
ENDBRANCH  31  32
ENDBRANCH  17  30
BRANCH  16  39
ATOM     39  O   UNL     1      17.680  -6.301  -8.199  0.00  0.00    +0.000 OA
BRANCH  39  41
ATOM     40  O   UNL     1      17.094  -8.324  -9.117  0.00  0.00    +0.000 OA
ATOM     41  C   UNL     1      17.070  -7.105  -9.119  0.00  0.00    +0.000 C 
BRANCH  41  42
ATOM     42  C   UNL     1      16.406  -6.290 -10.152  0.00  0.00    +0.000 A 
ATOM     43  C   UNL     1      15.032  -6.051 -10.121  0.00  0.00    +0.000 A 
ATOM     44  C   UNL     1      17.188  -5.753 -11.173  0.00  0.00    +0.000 A 
ATOM     45  C   UNL     1      14.441  -5.274 -11.115  0.00  0.00    +0.000 A 
ATOM     46  C   UNL     1      16.595  -4.977 -12.165  0.00  0.00    +0.000 A 
ATOM     47  C   UNL     1      15.223  -4.738 -12.135  0.00  0.00    +0.000 A 
ENDBRANCH  41  42
ENDBRANCH  39  41
ENDBRANCH  16  39
BRANCH   9  48
ATOM     48  C   UNL     1      10.350  -4.934  -7.827  0.00  0.00    +0.000 C 
BRANCH  48  49
ATOM     49  O   UNL     1       9.250  -4.514  -8.446  0.00  0.00    +0.000 OA
ATOM     50  H   UNL     1       9.460  -3.784  -9.054  0.00  0.00    +0.000 HD
ENDBRANCH  48  49
ENDBRANCH   9  48
TORSDOF 12
ENDMDL
MODEL 6
REMARK VINA RESULT:      -6.7     11.210     16.000
REMARK  Name = 5358691_Yuanhuacine.pdbqt.pdb
REMARK  12 active torsions:
REMARK  status: ('A' for Active; 'I' for Inactive)
REMARK    1  A    between atoms: C_9  and  C_48
REMARK    2  A    between atoms: C_13  and  C_23
REMARK    3  A    between atoms: C_14  and  O_26
REMARK    4  A    between atoms: C_15  and  O_28
REMARK    5  A    between atoms: C_16  and  O_39
REMARK    6  A    between atoms: C_17  and  C_30
REMARK    7  A    between atoms: C_31  and  C_32
REMARK    8  A    between atoms: C_33  and  C_34
REMARK    9  A    between atoms: C_35  and  C_36
REMARK   10  A    between atoms: O_39  and  C_41
REMARK   11  A    between atoms: C_41  and  C_42
REMARK   12  A    between atoms: C_48  and  O_49
REMARK                            x       y       z     vdW  Elec       q    Type
REMARK                         _______ _______ _______ _____ _____    ______ ____
ROOT
ATOM      1  O   UNL     1     -13.016   5.067  -8.781  0.00  0.00    +0.000 OA
ATOM      2  O   UNL     1     -16.344   5.752  -7.933  0.00  0.00    +0.000 OA
ATOM      3  O   UNL     1     -16.036   3.586  -8.854  0.00  0.00    +0.000 OA
ATOM      4  O   UNL     1     -18.070   4.615  -9.098  0.00  0.00    +0.000 OA
ATOM      5  O   UNL     1     -12.705  10.261  -8.987  0.00  0.00    +0.000 OA
ATOM      6  C   UNL     1     -15.041   5.321  -9.939  0.00  0.00    +0.000 C 
ATOM      7  C   UNL     1     -15.734   6.398  -9.092  0.00  0.00    +0.000 C 
ATOM      8  C   UNL     1     -13.628   5.072 -10.009  0.00  0.00    +0.000 C 
ATOM      9  C   UNL     1     -12.416   5.868  -9.808  0.00  0.00    +0.000 C 
ATOM     10  C   UNL     1     -16.014   4.233 -10.089  0.00  0.00    +0.000 C 
ATOM     11  C   UNL     1     -14.766   7.417  -8.570  0.00  0.00    +0.000 C 
ATOM     12  C   UNL     1     -16.862   7.052  -9.945  0.00  0.00    +0.000 C 
ATOM     13  C   UNL     1     -17.468   4.646 -10.423  0.00  0.00    +0.000 C 
ATOM     14  C   UNL     1     -13.778   8.102  -9.487  0.00  0.00    +0.000 C 
ATOM     15  C   UNL     1     -12.507   7.352  -9.758  0.00  0.00    +0.000 C 
ATOM     16  C   UNL     1     -17.558   6.112 -10.809  0.00  0.00    +0.000 C 
ATOM     17  C   UNL     1     -16.961   4.472  -8.213  0.00  0.00    +0.000 C 
ATOM     18  C   UNL     1     -14.902   8.195  -7.392  0.00  0.00    +0.000 C 
ATOM     19  C   UNL     1     -17.420   8.465  -9.775  0.00  0.00    +0.000 C 
ATOM     20  C   UNL     1     -13.478   9.376  -8.630  0.00  0.00    +0.000 C 
ATOM     21  C   UNL     1     -14.253   9.310  -7.348  0.00  0.00    +0.000 C 
ATOM     22  C   UNL     1     -13.928  10.033  -6.082  0.00  0.00    +0.000 C 
ENDROOT
BRANCH  13  23
ATOM     23  C   UNL     1     -18.096   3.621 -11.397  0.00  0.00    +0.000 C 
ATOM     24  C   UNL     1     -19.583   3.273 -11.433  0.00  0.00    +0.000 C 
ATOM     25  C   UNL     1     -17.374   2.732 -12.109  0.00  0.00    +0.000 C 
ENDBRANCH  13  23
BRANCH  14  26
ATOM     26  O   UNL     1     -14.369   8.419 -10.729  0.00  0.00    +0.000 OA
ATOM     27  H   UNL     1     -13.695   8.889 -11.260  0.00  0.00    +0.000 HD
ENDBRANCH  14  26
BRANCH  15  28
ATOM     28  O   UNL     1     -11.403   8.108 -10.163  0.00  0.00    +0.000 OA
ATOM     29  H   UNL     1     -10.924   8.563  -9.438  0.00  0.00    +0.000 HD
ENDBRANCH  15  28
BRANCH  17  30
ATOM     30  C   UNL     1     -17.416   3.884  -6.957  0.00  0.00    +0.000 C 
ATOM     31  C   UNL     1     -17.790   3.402  -5.923  0.00  0.00    +0.000 C 
BRANCH  31  32
ATOM     32  C   UNL     1     -18.268   2.789  -4.604  0.00  0.00    +0.000 C 
ATOM     33  C   UNL     1     -18.643   2.309  -3.570  0.00  0.00    +0.000 C 
BRANCH  33  34
ATOM     34  C   UNL     1     -19.124   1.698  -2.250  0.00  0.00    +0.000 C 
ATOM     35  C   UNL     1     -19.603   1.086  -0.932  0.00  0.00    +0.000 C 
BRANCH  35  36
ATOM     36  C   UNL     1     -20.082   0.474   0.389  0.00  0.00    +0.000 C 
ATOM     37  C   UNL     1     -20.561  -0.137   1.710  0.00  0.00    +0.000 C 
ATOM     38  C   UNL     1     -21.040  -0.747   3.031  0.00  0.00    +0.000 C 
ENDBRANCH  35  36
ENDBRANCH  33  34
ENDBRANCH  31  32
ENDBRANCH  17  30
BRANCH  16  39
ATOM     39  O   UNL     1     -18.288   6.626 -11.894  0.00  0.00    +0.000 OA
BRANCH  39  41
ATOM     40  O   UNL     1     -17.541   8.477 -13.032  0.00  0.00    +0.000 OA
ATOM     41  C   UNL     1     -17.528   7.276 -12.825  0.00  0.00    +0.000 C 
BRANCH  41  42
ATOM     42  C   UNL     1     -16.713   6.311 -13.584  0.00  0.00    +0.000 A 
ATOM     43  C   UNL     1     -15.356   6.132 -13.317  0.00  0.00    +0.000 A 
ATOM     44  C   UNL     1     -17.334   5.569 -14.588  0.00  0.00    +0.000 A 
ATOM     45  C   UNL     1     -14.620   5.208 -14.056  0.00  0.00    +0.000 A 
ATOM     46  C   UNL     1     -16.596   4.646 -15.325  0.00  0.00    +0.000 A 
ATOM     47  C   UNL     1     -15.240   4.467 -15.059  0.00  0.00    +0.000 A 
ENDBRANCH  41  42
ENDBRANCH  39  41
ENDBRANCH  16  39
BRANCH   9  48
ATOM     48  C   UNL     1     -11.142   5.283 -10.203  0.00  0.00    +0.000 C 
BRANCH  48  49
ATOM     49  O   UNL     1      -9.980   4.748 -10.570  0.00  0.00    +0.000 OA
ATOM     50  H   UNL     1      -9.905   4.731 -11.540  0.00  0.00    +0.000 HD
ENDBRANCH  48  49
ENDBRANCH   9  48
TORSDOF 12
ENDMDL
MODEL 7
REMARK VINA RESULT:      -6.4     24.583     27.883
REMARK  Name = 5358691_Yuanhuacine.pdbqt.pdb
REMARK  12 active torsions:
REMARK  status: ('A' for Active; 'I' for Inactive)
REMARK    1  A    between atoms: C_9  and  C_48
REMARK    2  A    between atoms: C_13  and  C_23
REMARK    3  A    between atoms: C_14  and  O_26
REMARK    4  A    between atoms: C_15  and  O_28
REMARK    5  A    between atoms: C_16  and  O_39
REMARK    6  A    between atoms: C_17  and  C_30
REMARK    7  A    between atoms: C_31  and  C_32
REMARK    8  A    between atoms: C_33  and  C_34
REMARK    9  A    between atoms: C_35  and  C_36
REMARK   10  A    between atoms: O_39  and  C_41
REMARK   11  A    between atoms: C_41  and  C_42
REMARK   12  A    between atoms: C_48  and  O_49
REMARK                            x       y       z     vdW  Elec       q    Type
REMARK                         _______ _______ _______ _____ _____    ______ ____
ROOT
ATOM      1  O   UNL     1      -7.172  14.628 -19.917  0.00  0.00    +0.000 OA
ATOM      2  O   UNL     1      -4.059  16.228 -20.010  0.00  0.00    +0.000 OA
ATOM      3  O   UNL     1      -4.161  14.463 -18.427  0.00  0.00    +0.000 OA
ATOM      4  O   UNL     1      -2.707  16.198 -18.060  0.00  0.00    +0.000 OA
ATOM      5  O   UNL     1      -8.806  19.160 -21.893  0.00  0.00    +0.000 OA
ATOM      6  C   UNL     1      -5.895  15.935 -18.445  0.00  0.00    +0.000 C 
ATOM      7  C   UNL     1      -5.213  16.903 -19.423  0.00  0.00    +0.000 C 
ATOM      8  C   UNL     1      -7.113  15.210 -18.676  0.00  0.00    +0.000 C 
ATOM      9  C   UNL     1      -8.304  15.405 -19.504  0.00  0.00    +0.000 C 
ATOM     10  C   UNL     1      -4.824  15.378 -17.611  0.00  0.00    +0.000 C 
ATOM     11  C   UNL     1      -6.116  17.294 -20.553  0.00  0.00    +0.000 C 
ATOM     12  C   UNL     1      -4.709  18.143 -18.625  0.00  0.00    +0.000 C 
ATOM     13  C   UNL     1      -3.768  16.378 -17.081  0.00  0.00    +0.000 C 
ATOM     14  C   UNL     1      -7.521  17.794 -20.298  0.00  0.00    +0.000 C 
ATOM     15  C   UNL     1      -8.569  16.736 -20.114  0.00  0.00    +0.000 C 
ATOM     16  C   UNL     1      -4.201  17.817 -17.303  0.00  0.00    +0.000 C 
ATOM     17  C   UNL     1      -3.307  15.406 -19.084  0.00  0.00    +0.000 C 
ATOM     18  C   UNL     1      -5.725  17.696 -21.856  0.00  0.00    +0.000 C 
ATOM     19  C   UNL     1      -4.496  19.550 -19.184  0.00  0.00    +0.000 C 
ATOM     20  C   UNL     1      -7.763  18.564 -21.639  0.00  0.00    +0.000 C 
ATOM     21  C   UNL     1      -6.556  18.428 -22.519  0.00  0.00    +0.000 C 
ATOM     22  C   UNL     1      -6.525  18.584 -24.004  0.00  0.00    +0.000 C 
ENDROOT
BRANCH  13  23
ATOM     23  C   UNL     1      -3.343  15.984 -15.647  0.00  0.00    +0.000 C 
ATOM     24  C   UNL     1      -2.281  16.723 -14.834  0.00  0.00    +0.000 C 
ATOM     25  C   UNL     1      -3.647  14.799 -15.079  0.00  0.00    +0.000 C 
ENDBRANCH  13  23
BRANCH  14  26
ATOM     26  O   UNL     1      -7.563  18.648 -19.175  0.00  0.00    +0.000 OA
ATOM     27  H   UNL     1      -6.815  19.273 -19.258  0.00  0.00    +0.000 HD
ENDBRANCH  14  26
BRANCH  15  28
ATOM     28  O   UNL     1      -9.892  17.109 -20.367  0.00  0.00    +0.000 OA
ATOM     29  H   UNL     1     -10.123  17.201 -21.316  0.00  0.00    +0.000 HD
ENDBRANCH  15  28
BRANCH  17  30
ATOM     30  C   UNL     1      -2.266  14.698 -19.821  0.00  0.00    +0.000 C 
ATOM     31  C   UNL     1      -1.410  14.116 -20.430  0.00  0.00    +0.000 C 
BRANCH  31  32
ATOM     32  C   UNL     1      -0.318  13.376 -21.207  0.00  0.00    +0.000 C 
ATOM     33  C   UNL     1       0.538  12.796 -21.816  0.00  0.00    +0.000 C 
BRANCH  33  34
ATOM     34  C   UNL     1       1.631  12.058 -22.596  0.00  0.00    +0.000 C 
ATOM     35  C   UNL     1       2.723  11.321 -23.375  0.00  0.00    +0.000 C 
BRANCH  35  36
ATOM     36  C   UNL     1       3.817  10.582 -24.154  0.00  0.00    +0.000 C 
ATOM     37  C   UNL     1       4.910   9.844 -24.931  0.00  0.00    +0.000 C 
ATOM     38  C   UNL     1       6.003   9.103 -25.710  0.00  0.00    +0.000 C 
ENDBRANCH  35  36
ENDBRANCH  33  34
ENDBRANCH  31  32
ENDBRANCH  17  30
BRANCH  16  39
ATOM     39  O   UNL     1      -4.107  18.852 -16.357  0.00  0.00    +0.000 OA
BRANCH  39  41
ATOM     40  O   UNL     1      -5.945  20.229 -16.271  0.00  0.00    +0.000 OA
ATOM     41  C   UNL     1      -5.308  19.272 -15.862  0.00  0.00    +0.000 C 
BRANCH  41  42
ATOM     42  C   UNL     1      -5.716  18.429 -14.724  0.00  0.00    +0.000 A 
ATOM     43  C   UNL     1      -6.631  17.388 -14.878  0.00  0.00    +0.000 A 
ATOM     44  C   UNL     1      -5.160  18.695 -13.473  0.00  0.00    +0.000 A 
ATOM     45  C   UNL     1      -6.990  16.612 -13.778  0.00  0.00    +0.000 A 
ATOM     46  C   UNL     1      -5.520  17.918 -12.376  0.00  0.00    +0.000 A 
ATOM     47  C   UNL     1      -6.434  16.878 -12.529  0.00  0.00    +0.000 A 
ENDBRANCH  41  42
ENDBRANCH  39  41
ENDBRANCH  16  39
BRANCH   9  48
ATOM     48  C   UNL     1      -9.445  14.528 -19.278  0.00  0.00    +0.000 C 
BRANCH  48  49
ATOM     49  O   UNL     1     -10.487  13.729 -19.066  0.00  0.00    +0.000 OA
ATOM     50  H   UNL     1     -10.875  13.445 -19.912  0.00  0.00    +0.000 HD
ENDBRANCH  48  49
ENDBRANCH   9  48
TORSDOF 12
ENDMDL
MODEL 8
REMARK VINA RESULT:      -6.4     28.339     33.650
REMARK  Name = 5358691_Yuanhuacine.pdbqt.pdb
REMARK  12 active torsions:
REMARK  status: ('A' for Active; 'I' for Inactive)
REMARK    1  A    between atoms: C_9  and  C_48
REMARK    2  A    between atoms: C_13  and  C_23
REMARK    3  A    between atoms: C_14  and  O_26
REMARK    4  A    between atoms: C_15  and  O_28
REMARK    5  A    between atoms: C_16  and  O_39
REMARK    6  A    between atoms: C_17  and  C_30
REMARK    7  A    between atoms: C_31  and  C_32
REMARK    8  A    between atoms: C_33  and  C_34
REMARK    9  A    between atoms: C_35  and  C_36
REMARK   10  A    between atoms: O_39  and  C_41
REMARK   11  A    between atoms: C_41  and  C_42
REMARK   12  A    between atoms: C_48  and  O_49
REMARK                            x       y       z     vdW  Elec       q    Type
REMARK                         _______ _______ _______ _____ _____    ______ ____
ROOT
ATOM      1  O   UNL     1      12.332   9.607 -15.917  0.00  0.00    +0.000 OA
ATOM      2  O   UNL     1      14.656  12.209 -16.220  0.00  0.00    +0.000 OA
ATOM      3  O   UNL     1      15.398  10.169 -17.181  0.00  0.00    +0.000 OA
ATOM      4  O   UNL     1      16.957  11.660 -16.404  0.00  0.00    +0.000 OA
ATOM      5  O   UNL     1      10.644  12.483 -11.917  0.00  0.00    +0.000 OA
ATOM      6  C   UNL     1      14.484  10.058 -15.100  0.00  0.00    +0.000 C 
ATOM      7  C   UNL     1      14.421  11.582 -14.921  0.00  0.00    +0.000 C 
ATOM      8  C   UNL     1      13.366   9.158 -15.135  0.00  0.00    +0.000 C 
ATOM      9  C   UNL     1      12.006   9.161 -14.594  0.00  0.00    +0.000 C 
ATOM     10  C   UNL     1      15.702   9.789 -15.875  0.00  0.00    +0.000 C 
ATOM     11  C   UNL     1      13.075  12.040 -14.448  0.00  0.00    +0.000 C 
ATOM     12  C   UNL     1      15.559  12.016 -13.949  0.00  0.00    +0.000 C 
ATOM     13  C   UNL     1      16.976  10.561 -15.451  0.00  0.00    +0.000 C 
ATOM     14  C   UNL     1      12.402  11.397 -13.256  0.00  0.00    +0.000 C 
ATOM     15  C   UNL     1      11.634  10.140 -13.537  0.00  0.00    +0.000 C 
ATOM     16  C   UNL     1      16.788  11.258 -14.115  0.00  0.00    +0.000 C 
ATOM     17  C   UNL     1      15.676  11.565 -17.023  0.00  0.00    +0.000 C 
ATOM     18  C   UNL     1      12.480  13.308 -14.672  0.00  0.00    +0.000 C 
ATOM     19  C   UNL     1      15.560  13.259 -13.058  0.00  0.00    +0.000 C 
ATOM     20  C   UNL     1      11.420  12.552 -12.867  0.00  0.00    +0.000 C 
ATOM     21  C   UNL     1      11.579  13.690 -13.830  0.00  0.00    +0.000 C 
ATOM     22  C   UNL     1      10.566  14.748 -14.120  0.00  0.00    +0.000 C 
ENDROOT
BRANCH  13  23
ATOM     23  C   UNL     1      18.217   9.650 -15.601  0.00  0.00    +0.000 C 
ATOM     24  C   UNL     1      19.621  10.160 -15.922  0.00  0.00    +0.000 C 
ATOM     25  C   UNL     1      18.144   8.311 -15.749  0.00  0.00    +0.000 C 
ENDBRANCH  13  23
BRANCH  14  26
ATOM     26  O   UNL     1      13.334  11.119 -12.232  0.00  0.00    +0.000 OA
ATOM     27  H   UNL     1      12.938  10.433 -11.658  0.00  0.00    +0.000 HD
ENDBRANCH  14  26
BRANCH  15  28
ATOM     28  O   UNL     1      10.629   9.798 -12.627  0.00  0.00    +0.000 OA
ATOM     29  H   UNL     1       9.714   9.873 -12.973  0.00  0.00    +0.000 HD
ENDBRANCH  15  28
BRANCH  17  30
ATOM     30  C   UNL     1      15.721  12.210 -18.331  0.00  0.00    +0.000 C 
ATOM     31  C   UNL     1      15.759  12.739 -19.408  0.00  0.00    +0.000 C 
BRANCH  31  32
ATOM     32  C   UNL     1      15.807  13.413 -20.782  0.00  0.00    +0.000 C 
ATOM     33  C   UNL     1      15.845  13.940 -21.860  0.00  0.00    +0.000 C 
BRANCH  33  34
ATOM     34  C   UNL     1      15.892  14.611 -23.236  0.00  0.00    +0.000 C 
ATOM     35  C   UNL     1      15.939  15.281 -24.611  0.00  0.00    +0.000 C 
BRANCH  35  36
ATOM     36  C   UNL     1      15.985  15.954 -25.987  0.00  0.00    +0.000 C 
ATOM     37  C   UNL     1      16.033  16.626 -27.363  0.00  0.00    +0.000 C 
ATOM     38  C   UNL     1      16.082  17.299 -28.738  0.00  0.00    +0.000 C 
ENDBRANCH  35  36
ENDBRANCH  33  34
ENDBRANCH  31  32
ENDBRANCH  17  30
BRANCH  16  39
ATOM     39  O   UNL     1      17.718  11.266 -13.061  0.00  0.00    +0.000 OA
BRANCH  39  41
ATOM     40  O   UNL     1      16.579  10.392 -11.267  0.00  0.00    +0.000 OA
ATOM     41  C   UNL     1      17.475  10.335 -12.092  0.00  0.00    +0.000 C 
BRANCH  41  42
ATOM     42  C   UNL     1      18.483   9.261 -12.150  0.00  0.00    +0.000 A 
ATOM     43  C   UNL     1      18.118   7.916 -12.120  0.00  0.00    +0.000 A 
ATOM     44  C   UNL     1      19.827   9.621 -12.238  0.00  0.00    +0.000 A 
ATOM     45  C   UNL     1      19.099   6.929 -12.179  0.00  0.00    +0.000 A 
ATOM     46  C   UNL     1      20.806   8.633 -12.297  0.00  0.00    +0.000 A 
ATOM     47  C   UNL     1      20.442   7.288 -12.267  0.00  0.00    +0.000 A 
ENDBRANCH  41  42
ENDBRANCH  39  41
ENDBRANCH  16  39
BRANCH   9  48
ATOM     48  C   UNL     1      11.238   7.925 -14.669  0.00  0.00    +0.000 C 
BRANCH  48  49
ATOM     49  O   UNL     1      10.542   6.794 -14.741  0.00  0.00    +0.000 OA
ATOM     50  H   UNL     1      10.380   6.552 -15.669  0.00  0.00    +0.000 HD
ENDBRANCH  48  49
ENDBRANCH   9  48
TORSDOF 12
ENDMDL
MODEL 9
REMARK VINA RESULT:      -6.2     23.670     28.735
REMARK  Name = 5358691_Yuanhuacine.pdbqt.pdb
REMARK  12 active torsions:
REMARK  status: ('A' for Active; 'I' for Inactive)
REMARK    1  A    between atoms: C_9  and  C_48
REMARK    2  A    between atoms: C_13  and  C_23
REMARK    3  A    between atoms: C_14  and  O_26
REMARK    4  A    between atoms: C_15  and  O_28
REMARK    5  A    between atoms: C_16  and  O_39
REMARK    6  A    between atoms: C_17  and  C_30
REMARK    7  A    between atoms: C_31  and  C_32
REMARK    8  A    between atoms: C_33  and  C_34
REMARK    9  A    between atoms: C_35  and  C_36
REMARK   10  A    between atoms: O_39  and  C_41
REMARK   11  A    between atoms: C_41  and  C_42
REMARK   12  A    between atoms: C_48  and  O_49
REMARK                            x       y       z     vdW  Elec       q    Type
REMARK                         _______ _______ _______ _____ _____    ______ ____
ROOT
ATOM      1  O   UNL     1       4.507  -2.301 -22.601  0.00  0.00    +0.000 OA
ATOM      2  O   UNL     1       4.590   1.101 -21.779  0.00  0.00    +0.000 OA
ATOM      3  O   UNL     1       6.241   0.478 -23.366  0.00  0.00    +0.000 OA
ATOM      4  O   UNL     1       6.642   2.273 -21.998  0.00  0.00    +0.000 OA
ATOM      5  O   UNL     1       2.195  -2.678 -17.950  0.00  0.00    +0.000 OA
ATOM      6  C   UNL     1       6.014  -0.853 -21.535  0.00  0.00    +0.000 C 
ATOM      7  C   UNL     1       5.050   0.103 -20.818  0.00  0.00    +0.000 C 
ATOM      8  C   UNL     1       5.720  -2.190 -21.970  0.00  0.00    +0.000 C 
ATOM      9  C   UNL     1       4.790  -3.242 -21.557  0.00  0.00    +0.000 C 
ATOM     10  C   UNL     1       6.957  -0.003 -22.271  0.00  0.00    +0.000 C 
ATOM     11  C   UNL     1       3.834  -0.604 -20.300  0.00  0.00    +0.000 C 
ATOM     12  C   UNL     1       5.827   0.832 -19.681  0.00  0.00    +0.000 C 
ATOM     13  C   UNL     1       7.523   1.222 -21.512  0.00  0.00    +0.000 C 
ATOM     14  C   UNL     1       3.951  -1.864 -19.472  0.00  0.00    +0.000 C 
ATOM     15  C   UNL     1       4.099  -3.143 -20.243  0.00  0.00    +0.000 C 
ATOM     16  C   UNL     1       7.200   1.158 -20.029  0.00  0.00    +0.000 C 
ATOM     17  C   UNL     1       5.612   1.573 -22.692  0.00  0.00    +0.000 C 
ATOM     18  C   UNL     1       2.549  -0.041 -20.085  0.00  0.00    +0.000 C 
ATOM     19  C   UNL     1       5.223   1.409 -18.400  0.00  0.00    +0.000 C 
ATOM     20  C   UNL     1       2.561  -1.825 -18.755  0.00  0.00    +0.000 C 
ATOM     21  C   UNL     1       1.788  -0.629 -19.225  0.00  0.00    +0.000 C 
ATOM     22  C   UNL     1       0.305  -0.462 -19.176  0.00  0.00    +0.000 C 
ENDROOT
BRANCH  13  23
ATOM     23  C   UNL     1       9.003   1.444 -21.901  0.00  0.00    +0.000 C 
ATOM     24  C   UNL     1      10.029   0.321 -22.048  0.00  0.00    +0.000 C 
ATOM     25  C   UNL     1       9.608   2.649 -21.873  0.00  0.00    +0.000 C 
ENDBRANCH  13  23
BRANCH  14  26
ATOM     26  O   UNL     1       5.026  -1.778 -18.561  0.00  0.00    +0.000 OA
ATOM     27  H   UNL     1       5.782  -2.254 -18.959  0.00  0.00    +0.000 HD
ENDBRANCH  14  26
BRANCH  15  28
ATOM     28  O   UNL     1       3.724  -4.319 -19.589  0.00  0.00    +0.000 OA
ATOM     29  H   UNL     1       3.021  -4.836 -20.038  0.00  0.00    +0.000 HD
ENDBRANCH  15  28
BRANCH  17  30
ATOM     30  C   UNL     1       4.994   2.464 -23.669  0.00  0.00    +0.000 C 
ATOM     31  C   UNL     1       4.486   3.195 -24.474  0.00  0.00    +0.000 C 
BRANCH  31  32
ATOM     32  C   UNL     1       3.836   4.127 -25.500  0.00  0.00    +0.000 C 
ATOM     33  C   UNL     1       3.327   4.857 -26.306  0.00  0.00    +0.000 C 
BRANCH  33  34
ATOM     34  C   UNL     1       2.680   5.791 -27.333  0.00  0.00    +0.000 C 
ATOM     35  C   UNL     1       2.032   6.723 -28.360  0.00  0.00    +0.000 C 
BRANCH  35  36
ATOM     36  C   UNL     1       1.383   7.657 -29.388  0.00  0.00    +0.000 C 
ATOM     37  C   UNL     1       0.735   8.590 -30.414  0.00  0.00    +0.000 C 
ATOM     38  C   UNL     1       0.087   9.525 -31.441  0.00  0.00    +0.000 C 
ENDBRANCH  35  36
ENDBRANCH  33  34
ENDBRANCH  31  32
ENDBRANCH  17  30
BRANCH  16  39
ATOM     39  O   UNL     1       8.101   1.431 -18.986  0.00  0.00    +0.000 OA
BRANCH  39  41
ATOM     40  O   UNL     1       8.618  -0.805 -18.866  0.00  0.00    +0.000 OA
ATOM     41  C   UNL     1       8.858   0.361 -18.603  0.00  0.00    +0.000 C 
BRANCH  41  42
ATOM     42  C   UNL     1       9.997   0.808 -17.781  0.00  0.00    +0.000 A 
ATOM     43  C   UNL     1      11.264   0.999 -18.332  0.00  0.00    +0.000 A 
ATOM     44  C   UNL     1       9.780   1.042 -16.424  0.00  0.00    +0.000 A 
ATOM     45  C   UNL     1      12.315   1.424 -17.522  0.00  0.00    +0.000 A 
ATOM     46  C   UNL     1      10.832   1.467 -15.618  0.00  0.00    +0.000 A 
ATOM     47  C   UNL     1      12.098   1.657 -16.167  0.00  0.00    +0.000 A 
ENDBRANCH  41  42
ENDBRANCH  39  41
ENDBRANCH  16  39
BRANCH   9  48
ATOM     48  C   UNL     1       4.964  -4.571 -22.128  0.00  0.00    +0.000 C 
BRANCH  48  49
ATOM     49  O   UNL     1       5.125  -5.781 -22.655  0.00  0.00    +0.000 OA
ATOM     50  H   UNL     1       5.638  -5.728 -23.480  0.00  0.00    +0.000 HD
ENDBRANCH  48  49
ENDBRANCH   9  48
TORSDOF 12
ENDMDL
