MODEL 1
REMARK VINA RESULT:      -5.0      0.000      0.000
REMARK  Name = 5386_Tegafur.pdbqt.pdb
REMARK  1 active torsions:
REMARK  status: ('A' for Active; 'I' for Inactive)
REMARK    1  A    between atoms: N_4  and  C_12
REMARK                            x       y       z     vdW  Elec       q    Type
REMARK                         _______ _______ _______ _____ _____    ______ ____
ROOT
ATOM      1  F   UNL     1      -0.810  -2.387 -20.670  0.00  0.00    +0.000 F 
ATOM      2  O   UNL     1      -3.554   1.337 -17.824  0.00  0.00    +0.000 OA
ATOM      3  O   UNL     1      -2.548  -3.083 -18.551  0.00  0.00    +0.000 OA
ATOM      4  N   UNL     1      -1.848   0.830 -19.382  0.00  0.00    +0.000 N 
ATOM      5  N   UNL     1      -2.953  -0.850 -18.166  0.00  0.00    +0.000 N 
ATOM      6  C   UNL     1      -2.837   0.538 -18.414  0.00  0.00    +0.000 C 
ATOM      7  C   UNL     1      -1.182  -0.214 -19.917  0.00  0.00    +0.000 C 
ATOM      8  C   UNL     1      -1.216  -1.493 -19.754  0.00  0.00    +0.000 C 
ATOM      9  C   UNL     1      -2.277  -1.911 -18.781  0.00  0.00    +0.000 C 
ATOM     10  H   UNL     1      -3.675  -1.110 -17.509  0.00  0.00    +0.000 HD
ENDROOT
BRANCH   4  12
ATOM     11  O   UNL     1      -0.757   2.972 -19.046  0.00  0.00    +0.000 OA
ATOM     12  C   UNL     1      -1.543   2.093 -19.800  0.00  0.00    +0.000 C 
ATOM     13  C   UNL     1      -1.929   2.756 -20.996  0.00  0.00    +0.000 C 
ATOM     14  C   UNL     1      -1.500   4.191 -21.307  0.00  0.00    +0.000 C 
ATOM     15  C   UNL     1      -0.843   3.958 -19.948  0.00  0.00    +0.000 C 
ENDBRANCH   4  12
TORSDOF 1
ENDMDL
MODEL 2
REMARK VINA RESULT:      -4.9      4.048      6.477
REMARK  Name = 5386_Tegafur.pdbqt.pdb
REMARK  1 active torsions:
REMARK  status: ('A' for Active; 'I' for Inactive)
REMARK    1  A    between atoms: N_4  and  C_12
REMARK                            x       y       z     vdW  Elec       q    Type
REMARK                         _______ _______ _______ _____ _____    ______ ____
ROOT
ATOM      1  F   UNL     1      -3.837  -0.333 -15.963  0.00  0.00    +0.000 F 
ATOM      2  O   UNL     1      -5.838  -0.750 -20.995  0.00  0.00    +0.000 OA
ATOM      3  O   UNL     1      -3.094   1.441 -18.037  0.00  0.00    +0.000 OA
ATOM      4  N   UNL     1      -5.546  -1.694 -18.846  0.00  0.00    +0.000 N 
ATOM      5  N   UNL     1      -4.415   0.257 -19.505  0.00  0.00    +0.000 N 
ATOM      6  C   UNL     1      -5.328  -0.756 -19.881  0.00  0.00    +0.000 C 
ATOM      7  C   UNL     1      -4.884  -1.498 -17.687  0.00  0.00    +0.000 C 
ATOM      8  C   UNL     1      -4.043  -0.620 -17.259  0.00  0.00    +0.000 C 
ATOM      9  C   UNL     1      -3.785   0.456 -18.270  0.00  0.00    +0.000 C 
ATOM     10  H   UNL     1      -4.256   0.973 -20.201  0.00  0.00    +0.000 HD
ENDROOT
BRANCH   4  12
ATOM     11  O   UNL     1      -5.929  -4.057 -19.245  0.00  0.00    +0.000 OA
ATOM     12  C   UNL     1      -6.384  -2.765 -18.955  0.00  0.00    +0.000 C 
ATOM     13  C   UNL     1      -7.798  -2.812 -18.821  0.00  0.00    +0.000 C 
ATOM     14  C   UNL     1      -8.590  -4.111 -18.984  0.00  0.00    +0.000 C 
ATOM     15  C   UNL     1      -7.159  -4.588 -19.220  0.00  0.00    +0.000 C 
ENDBRANCH   4  12
TORSDOF 1
ENDMDL
MODEL 3
REMARK VINA RESULT:      -4.8     15.380     16.460
REMARK  Name = 5386_Tegafur.pdbqt.pdb
REMARK  1 active torsions:
REMARK  status: ('A' for Active; 'I' for Inactive)
REMARK    1  A    between atoms: N_4  and  C_12
REMARK                            x       y       z     vdW  Elec       q    Type
REMARK                         _______ _______ _______ _____ _____    ______ ____
ROOT
ATOM      1  F   UNL     1     -12.450   9.032  -7.821  0.00  0.00    +0.000 F 
ATOM      2  O   UNL     1     -10.726   4.023  -9.023  0.00  0.00    +0.000 OA
ATOM      3  O   UNL     1      -9.974   8.023  -6.896  0.00  0.00    +0.000 OA
ATOM      4  N   UNL     1     -12.480   5.610  -8.992  0.00  0.00    +0.000 N 
ATOM      5  N   UNL     1     -10.435   6.005  -7.904  0.00  0.00    +0.000 N 
ATOM      6  C   UNL     1     -11.197   5.103  -8.684  0.00  0.00    +0.000 C 
ATOM      7  C   UNL     1     -12.788   6.837  -8.523  0.00  0.00    +0.000 C 
ATOM      8  C   UNL     1     -12.170   7.719  -7.813  0.00  0.00    +0.000 C 
ATOM      9  C   UNL     1     -10.771   7.297  -7.479  0.00  0.00    +0.000 C 
ATOM     10  H   UNL     1      -9.495   5.702  -7.692  0.00  0.00    +0.000 HD
ENDROOT
BRANCH   4  12
ATOM     11  O   UNL     1     -14.117   3.835  -9.238  0.00  0.00    +0.000 OA
ATOM     12  C   UNL     1     -13.407   4.935  -9.733  0.00  0.00    +0.000 C 
ATOM     13  C   UNL     1     -13.823   5.168 -11.071  0.00  0.00    +0.000 C 
ATOM     14  C   UNL     1     -14.880   4.302 -11.759  0.00  0.00    +0.000 C 
ATOM     15  C   UNL     1     -14.797   3.654 -10.378  0.00  0.00    +0.000 C 
ENDBRANCH   4  12
TORSDOF 1
ENDMDL
MODEL 4
REMARK VINA RESULT:      -4.7     11.579     12.756
REMARK  Name = 5386_Tegafur.pdbqt.pdb
REMARK  1 active torsions:
REMARK  status: ('A' for Active; 'I' for Inactive)
REMARK    1  A    between atoms: N_4  and  C_12
REMARK                            x       y       z     vdW  Elec       q    Type
REMARK                         _______ _______ _______ _____ _____    ______ ____
ROOT
ATOM      1  F   UNL     1      12.260   2.807 -22.135  0.00  0.00    +0.000 F 
ATOM      2  O   UNL     1       7.713   2.909 -19.167  0.00  0.00    +0.000 OA
ATOM      3  O   UNL     1       9.719   3.291 -23.279  0.00  0.00    +0.000 OA
ATOM      4  N   UNL     1      10.015   2.391 -19.330  0.00  0.00    +0.000 N 
ATOM      5  N   UNL     1       8.748   3.003 -21.211  0.00  0.00    +0.000 N 
ATOM      6  C   UNL     1       8.743   2.770 -19.816  0.00  0.00    +0.000 C 
ATOM      7  C   UNL     1      11.020   2.312 -20.227  0.00  0.00    +0.000 C 
ATOM      8  C   UNL     1      11.118   2.500 -21.499  0.00  0.00    +0.000 C 
ATOM      9  C   UNL     1       9.826   2.961 -22.104  0.00  0.00    +0.000 C 
ATOM     10  H   UNL     1       7.868   3.314 -21.598  0.00  0.00    +0.000 HD
ENDROOT
BRANCH   4  12
ATOM     11  O   UNL     1      10.815   3.056 -17.136  0.00  0.00    +0.000 OA
ATOM     12  C   UNL     1      10.276   2.112 -18.020  0.00  0.00    +0.000 C 
ATOM     13  C   UNL     1      10.085   0.897 -17.309  0.00  0.00    +0.000 C 
ATOM     14  C   UNL     1      10.441   0.753 -15.828  0.00  0.00    +0.000 C 
ATOM     15  C   UNL     1      10.827   2.205 -16.101  0.00  0.00    +0.000 C 
ENDBRANCH   4  12
TORSDOF 1
ENDMDL
MODEL 5
REMARK VINA RESULT:      -4.4     15.440     16.424
REMARK  Name = 5386_Tegafur.pdbqt.pdb
REMARK  1 active torsions:
REMARK  status: ('A' for Active; 'I' for Inactive)
REMARK    1  A    between atoms: N_4  and  C_12
REMARK                            x       y       z     vdW  Elec       q    Type
REMARK                         _______ _______ _______ _____ _____    ______ ____
ROOT
ATOM      1  F   UNL     1     -14.664   9.335 -11.428  0.00  0.00    +0.000 F 
ATOM      2  O   UNL     1     -12.062   4.829  -9.869  0.00  0.00    +0.000 OA
ATOM      3  O   UNL     1     -14.814   6.919 -12.892  0.00  0.00    +0.000 OA
ATOM      4  N   UNL     1     -12.392   7.160  -9.641  0.00  0.00    +0.000 N 
ATOM      5  N   UNL     1     -13.361   5.939 -11.400  0.00  0.00    +0.000 N 
ATOM      6  C   UNL     1     -12.543   5.891 -10.246  0.00  0.00    +0.000 C 
ATOM      7  C   UNL     1     -13.026   8.199 -10.222  0.00  0.00    +0.000 C 
ATOM      8  C   UNL     1     -13.779   8.339 -11.260  0.00  0.00    +0.000 C 
ATOM      9  C   UNL     1     -14.047   7.032 -11.944  0.00  0.00    +0.000 C 
ATOM     10  H   UNL     1     -13.530   5.048 -11.844  0.00  0.00    +0.000 HD
ENDROOT
BRANCH   4  12
ATOM     11  O   UNL     1     -10.254   7.369  -8.511  0.00  0.00    +0.000 OA
ATOM     12  C   UNL     1     -11.654   7.382  -8.515  0.00  0.00    +0.000 C 
ATOM     13  C   UNL     1     -12.099   7.648  -7.192  0.00  0.00    +0.000 C 
ATOM     14  C   UNL     1     -11.126   7.868  -6.033  0.00  0.00    +0.000 C 
ATOM     15  C   UNL     1     -10.170   7.628  -7.200  0.00  0.00    +0.000 C 
ENDBRANCH   4  12
TORSDOF 1
ENDMDL
MODEL 6
REMARK VINA RESULT:      -4.4      9.895     10.962
REMARK  Name = 5386_Tegafur.pdbqt.pdb
REMARK  1 active torsions:
REMARK  status: ('A' for Active; 'I' for Inactive)
REMARK    1  A    between atoms: N_4  and  C_12
REMARK                            x       y       z     vdW  Elec       q    Type
REMARK                         _______ _______ _______ _____ _____    ______ ____
ROOT
ATOM      1  F   UNL     1     -12.989  -1.341 -24.186  0.00  0.00    +0.000 F 
ATOM      2  O   UNL     1     -11.433  -4.843 -20.337  0.00  0.00    +0.000 OA
ATOM      3  O   UNL     1     -13.236  -4.141 -24.501  0.00  0.00    +0.000 OA
ATOM      4  N   UNL     1     -11.439  -2.635 -21.185  0.00  0.00    +0.000 N 
ATOM      5  N   UNL     1     -12.246  -4.447 -22.445  0.00  0.00    +0.000 N 
ATOM      6  C   UNL     1     -11.670  -4.029 -21.222  0.00  0.00    +0.000 C 
ATOM      7  C   UNL     1     -11.791  -1.922 -22.275  0.00  0.00    +0.000 C 
ATOM      8  C   UNL     1     -12.311  -2.210 -23.419  0.00  0.00    +0.000 C 
ATOM      9  C   UNL     1     -12.646  -3.667 -23.538  0.00  0.00    +0.000 C 
ATOM     10  H   UNL     1     -12.465  -5.431 -22.503  0.00  0.00    +0.000 HD
ENDROOT
BRANCH   4  12
ATOM     11  O   UNL     1      -9.661  -2.341 -19.559  0.00  0.00    +0.000 OA
ATOM     12  C   UNL     1     -10.894  -1.983 -20.117  0.00  0.00    +0.000 C 
ATOM     13  C   UNL     1     -11.413  -0.885 -19.379  0.00  0.00    +0.000 C 
ATOM     14  C   UNL     1     -10.667  -0.274 -18.192  0.00  0.00    +0.000 C 
ATOM     15  C   UNL     1      -9.713  -1.388 -18.619  0.00  0.00    +0.000 C 
ENDBRANCH   4  12
TORSDOF 1
ENDMDL
MODEL 7
REMARK VINA RESULT:      -4.4      5.836      7.453
REMARK  Name = 5386_Tegafur.pdbqt.pdb
REMARK  1 active torsions:
REMARK  status: ('A' for Active; 'I' for Inactive)
REMARK    1  A    between atoms: N_4  and  C_12
REMARK                            x       y       z     vdW  Elec       q    Type
REMARK                         _______ _______ _______ _____ _____    ______ ____
ROOT
ATOM      1  F   UNL     1       4.068   0.174 -21.816  0.00  0.00    +0.000 F 
ATOM      2  O   UNL     1       3.852  -2.195 -16.933  0.00  0.00    +0.000 OA
ATOM      3  O   UNL     1       5.123   1.397 -19.494  0.00  0.00    +0.000 OA
ATOM      4  N   UNL     1       3.149  -2.139 -19.191  0.00  0.00    +0.000 N 
ATOM      5  N   UNL     1       4.388  -0.385 -18.236  0.00  0.00    +0.000 N 
ATOM      6  C   UNL     1       3.783  -1.647 -18.027  0.00  0.00    +0.000 C 
ATOM      7  C   UNL     1       3.209  -1.370 -20.297  0.00  0.00    +0.000 C 
ATOM      8  C   UNL     1       3.726  -0.222 -20.579  0.00  0.00    +0.000 C 
ATOM      9  C   UNL     1       4.474   0.361 -19.418  0.00  0.00    +0.000 C 
ATOM     10  H   UNL     1       4.888  -0.011 -17.442  0.00  0.00    +0.000 HD
ENDROOT
BRANCH   4  12
ATOM     11  O   UNL     1       1.555  -3.735 -18.295  0.00  0.00    +0.000 OA
ATOM     12  C   UNL     1       2.495  -3.335 -19.252  0.00  0.00    +0.000 C 
ATOM     13  C   UNL     1       2.614  -4.371 -20.218  0.00  0.00    +0.000 C 
ATOM     14  C   UNL     1       1.802  -5.664 -20.131  0.00  0.00    +0.000 C 
ATOM     15  C   UNL     1       1.319  -4.910 -18.893  0.00  0.00    +0.000 C 
ENDBRANCH   4  12
TORSDOF 1
ENDMDL
MODEL 8
REMARK VINA RESULT:      -4.3     17.104     19.004
REMARK  Name = 5386_Tegafur.pdbqt.pdb
REMARK  1 active torsions:
REMARK  status: ('A' for Active; 'I' for Inactive)
REMARK    1  A    between atoms: N_4  and  C_12
REMARK                            x       y       z     vdW  Elec       q    Type
REMARK                         _______ _______ _______ _____ _____    ______ ____
ROOT
ATOM      1  F   UNL     1       5.567 -15.900 -15.965  0.00  0.00    +0.000 F 
ATOM      2  O   UNL     1       2.649 -14.233 -11.698  0.00  0.00    +0.000 OA
ATOM      3  O   UNL     1       3.089 -14.569 -16.256  0.00  0.00    +0.000 OA
ATOM      4  N   UNL     1       4.447 -15.514 -12.547  0.00  0.00    +0.000 N 
ATOM      5  N   UNL     1       2.869 -14.503 -13.965  0.00  0.00    +0.000 N 
ATOM      6  C   UNL     1       3.280 -14.720 -12.629  0.00  0.00    +0.000 C 
ATOM      7  C   UNL     1       4.989 -15.935 -13.709  0.00  0.00    +0.000 C 
ATOM      8  C   UNL     1       4.688 -15.793 -14.955  0.00  0.00    +0.000 C 
ATOM      9  C   UNL     1       3.490 -14.915 -15.151  0.00  0.00    +0.000 C 
ATOM     10  H   UNL     1       2.061 -13.907 -14.075  0.00  0.00    +0.000 HD
ENDROOT
BRANCH   4  12
ATOM     11  O   UNL     1       6.232 -15.273 -10.920  0.00  0.00    +0.000 OA
ATOM     12  C   UNL     1       5.047 -15.865 -11.373  0.00  0.00    +0.000 C 
ATOM     13  C   UNL     1       4.644 -16.839 -10.420  0.00  0.00    +0.000 C 
ATOM     14  C   UNL     1       5.445 -17.113  -9.146  0.00  0.00    +0.000 C 
ATOM     15  C   UNL     1       6.277 -16.016  -9.806  0.00  0.00    +0.000 C 
ENDBRANCH   4  12
TORSDOF 1
ENDMDL
MODEL 9
REMARK VINA RESULT:      -4.2     17.028     18.195
REMARK  Name = 5386_Tegafur.pdbqt.pdb
REMARK  1 active torsions:
REMARK  status: ('A' for Active; 'I' for Inactive)
REMARK    1  A    between atoms: N_4  and  C_12
REMARK                            x       y       z     vdW  Elec       q    Type
REMARK                         _______ _______ _______ _____ _____    ______ ____
ROOT
ATOM      1  F   UNL     1       3.186 -13.551 -11.490  0.00  0.00    +0.000 F 
ATOM      2  O   UNL     1       5.162 -17.072 -15.123  0.00  0.00    +0.000 OA
ATOM      3  O   UNL     1       5.478 -15.127 -10.976  0.00  0.00    +0.000 OA
ATOM      4  N   UNL     1       3.407 -15.645 -14.431  0.00  0.00    +0.000 N 
ATOM      5  N   UNL     1       5.228 -16.138 -13.029  0.00  0.00    +0.000 N 
ATOM      6  C   UNL     1       4.625 -16.350 -14.291  0.00  0.00    +0.000 C 
ATOM      7  C   UNL     1       3.006 -14.894 -13.385  0.00  0.00    +0.000 C 
ATOM      8  C   UNL     1       3.480 -14.645 -12.211  0.00  0.00    +0.000 C 
ATOM      9  C   UNL     1       4.805 -15.307 -11.984  0.00  0.00    +0.000 C 
ATOM     10  H   UNL     1       6.121 -16.592 -12.898  0.00  0.00    +0.000 HD
ENDROOT
BRANCH   4  12
ATOM     11  O   UNL     1       1.775 -16.747 -15.850  0.00  0.00    +0.000 OA
ATOM     12  C   UNL     1       2.633 -15.681 -15.554  0.00  0.00    +0.000 C 
ATOM     13  C   UNL     1       2.533 -14.727 -16.602  0.00  0.00    +0.000 C 
ATOM     14  C   UNL     1       1.610 -14.929 -17.805  0.00  0.00    +0.000 C 
ATOM     15  C   UNL     1       1.354 -16.201 -16.998  0.00  0.00    +0.000 C 
ENDBRANCH   4  12
TORSDOF 1
ENDMDL
