MODEL 1
REMARK VINA RESULT:      -5.5      0.000      0.000
REMARK  Name = 5470187_Zerumbone.pdbqt.pdb
REMARK  0 active torsions:
REMARK  status: ('A' for Active; 'I' for Inactive)
REMARK                            x       y       z     vdW  Elec       q    Type
REMARK                         _______ _______ _______ _____ _____    ______ ____
ROOT
ATOM      1  O   UNL     1       6.343 -15.106 -11.245  0.00  0.00    +0.000 OA
ATOM      2  C   UNL     1       3.211 -15.504 -14.975  0.00  0.00    +0.000 C 
ATOM      3  C   UNL     1       2.074 -16.430 -14.759  0.00  0.00    +0.000 C 
ATOM      4  C   UNL     1       2.687 -14.070 -15.229  0.00  0.00    +0.000 C 
ATOM      5  C   UNL     1       4.063 -15.998 -16.170  0.00  0.00    +0.000 C 
ATOM      6  C   UNL     1       4.029 -15.537 -13.720  0.00  0.00    +0.000 C 
ATOM      7  C   UNL     1       1.085 -17.443 -14.155  0.00  0.00    +0.000 C 
ATOM      8  C   UNL     1       0.529 -18.257 -13.308  0.00  0.00    +0.000 C 
ATOM      9  C   UNL     1       1.287 -18.349 -12.113  0.00  0.00    +0.000 C 
ATOM     10  C   UNL     1       2.426 -18.035 -11.140  0.00  0.00    +0.000 C 
ATOM     11  C   UNL     1       4.630 -15.628 -12.677  0.00  0.00    +0.000 C 
ATOM     12  C   UNL     1      -0.955 -18.411 -13.271  0.00  0.00    +0.000 C 
ATOM     13  C   UNL     1       3.700 -17.386 -10.593  0.00  0.00    +0.000 C 
ATOM     14  C   UNL     1       4.787 -16.714 -10.348  0.00  0.00    +0.000 C 
ATOM     15  C   UNL     1       5.327 -15.774 -11.398  0.00  0.00    +0.000 C 
ATOM     16  C   UNL     1       5.447 -16.939  -9.009  0.00  0.00    +0.000 C 
ENDROOT
TORSDOF 0
ENDMDL
MODEL 2
REMARK VINA RESULT:      -5.5     31.224     33.981
REMARK  Name = 5470187_Zerumbone.pdbqt.pdb
REMARK  0 active torsions:
REMARK  status: ('A' for Active; 'I' for Inactive)
REMARK                            x       y       z     vdW  Elec       q    Type
REMARK                         _______ _______ _______ _____ _____    ______ ____
ROOT
ATOM      1  O   UNL     1      -6.596  15.082 -14.717  0.00  0.00    +0.000 OA
ATOM      2  C   UNL     1      -2.956  14.804 -17.965  0.00  0.00    +0.000 C 
ATOM      3  C   UNL     1      -1.835  15.751 -17.753  0.00  0.00    +0.000 C 
ATOM      4  C   UNL     1      -2.441  13.347 -17.885  0.00  0.00    +0.000 C 
ATOM      5  C   UNL     1      -3.615  15.081 -19.339  0.00  0.00    +0.000 C 
ATOM      6  C   UNL     1      -3.942  15.061 -16.867  0.00  0.00    +0.000 C 
ATOM      7  C   UNL     1      -0.914  16.853 -17.198  0.00  0.00    +0.000 C 
ATOM      8  C   UNL     1      -0.461  17.803 -16.436  0.00  0.00    +0.000 C 
ATOM      9  C   UNL     1      -1.379  18.108 -15.398  0.00  0.00    +0.000 C 
ATOM     10  C   UNL     1      -2.652  17.974 -14.561  0.00  0.00    +0.000 C 
ATOM     11  C   UNL     1      -4.682  15.337 -15.955  0.00  0.00    +0.000 C 
ATOM     12  C   UNL     1       1.007  17.957 -16.212  0.00  0.00    +0.000 C 
ATOM     13  C   UNL     1      -4.009  17.436 -14.099  0.00  0.00    +0.000 C 
ATOM     14  C   UNL     1      -5.139  16.820 -13.900  0.00  0.00    +0.000 C 
ATOM     15  C   UNL     1      -5.549  15.710 -14.836  0.00  0.00    +0.000 C 
ATOM     16  C   UNL     1      -5.976  17.281 -12.732  0.00  0.00    +0.000 C 
ENDROOT
TORSDOF 0
ENDMDL
MODEL 3
REMARK VINA RESULT:      -5.5     18.515     20.925
REMARK  Name = 5470187_Zerumbone.pdbqt.pdb
REMARK  0 active torsions:
REMARK  status: ('A' for Active; 'I' for Inactive)
REMARK                            x       y       z     vdW  Elec       q    Type
REMARK                         _______ _______ _______ _____ _____    ______ ____
ROOT
ATOM      1  O   UNL     1      13.683   0.193 -21.415  0.00  0.00    +0.000 OA
ATOM      2  C   UNL     1      11.189   0.557 -17.229  0.00  0.00    +0.000 C 
ATOM      3  C   UNL     1       9.836   1.153 -17.339  0.00  0.00    +0.000 C 
ATOM      4  C   UNL     1      11.088  -0.887 -16.681  0.00  0.00    +0.000 C 
ATOM      5  C   UNL     1      12.069   1.436 -16.306  0.00  0.00    +0.000 C 
ATOM      6  C   UNL     1      11.761   0.542 -18.613  0.00  0.00    +0.000 C 
ATOM      7  C   UNL     1       8.542   1.796 -17.869  0.00  0.00    +0.000 C 
ATOM      8  C   UNL     1       7.671   2.300 -18.692  0.00  0.00    +0.000 C 
ATOM      9  C   UNL     1       8.181   2.340 -20.015  0.00  0.00    +0.000 C 
ATOM     10  C   UNL     1       9.191   2.114 -21.142  0.00  0.00    +0.000 C 
ATOM     11  C   UNL     1      12.145   0.573 -19.757  0.00  0.00    +0.000 C 
ATOM     12  C   UNL     1       6.209   2.112 -18.454  0.00  0.00    +0.000 C 
ATOM     13  C   UNL     1      10.484   1.675 -21.837  0.00  0.00    +0.000 C 
ATOM     14  C   UNL     1      11.651   1.227 -22.197  0.00  0.00    +0.000 C 
ATOM     15  C   UNL     1      12.569   0.636 -21.157  0.00  0.00    +0.000 C 
ATOM     16  C   UNL     1      12.011   1.346 -23.659  0.00  0.00    +0.000 C 
ENDROOT
TORSDOF 0
ENDMDL
MODEL 4
REMARK VINA RESULT:      -5.3     27.485     29.337
REMARK  Name = 5470187_Zerumbone.pdbqt.pdb
REMARK  0 active torsions:
REMARK  status: ('A' for Active; 'I' for Inactive)
REMARK                            x       y       z     vdW  Elec       q    Type
REMARK                         _______ _______ _______ _____ _____    ______ ____
ROOT
ATOM      1  O   UNL     1     -14.945  10.664  -9.567  0.00  0.00    +0.000 OA
ATOM      2  C   UNL     1     -13.285   6.728 -11.939  0.00  0.00    +0.000 C 
ATOM      3  C   UNL     1     -12.259   5.934 -11.222  0.00  0.00    +0.000 C 
ATOM      4  C   UNL     1     -14.533   5.855 -12.216  0.00  0.00    +0.000 C 
ATOM      5  C   UNL     1     -12.689   7.271 -13.262  0.00  0.00    +0.000 C 
ATOM      6  C   UNL     1     -13.646   7.868 -11.038  0.00  0.00    +0.000 C 
ATOM      7  C   UNL     1     -11.254   5.413 -10.179  0.00  0.00    +0.000 C 
ATOM      8  C   UNL     1     -10.559   5.323  -9.084  0.00  0.00    +0.000 C 
ATOM      9  C   UNL     1     -10.841   6.403  -8.209  0.00  0.00    +0.000 C 
ATOM     10  C   UNL     1     -11.527   7.684  -7.729  0.00  0.00    +0.000 C 
ATOM     11  C   UNL     1     -13.872   8.757 -10.253  0.00  0.00    +0.000 C 
ATOM     12  C   UNL     1     -10.187   3.986  -8.534  0.00  0.00    +0.000 C 
ATOM     13  C   UNL     1     -12.469   8.892  -7.740  0.00  0.00    +0.000 C 
ATOM     14  C   UNL     1     -13.339   9.831  -7.975  0.00  0.00    +0.000 C 
ATOM     15  C   UNL     1     -14.109   9.817  -9.271  0.00  0.00    +0.000 C 
ATOM     16  C   UNL     1     -13.508  10.891  -6.914  0.00  0.00    +0.000 C 
ENDROOT
TORSDOF 0
ENDMDL
MODEL 5
REMARK VINA RESULT:      -5.3     17.331     19.898
REMARK  Name = 5470187_Zerumbone.pdbqt.pdb
REMARK  0 active torsions:
REMARK  status: ('A' for Active; 'I' for Inactive)
REMARK                            x       y       z     vdW  Elec       q    Type
REMARK                         _______ _______ _______ _____ _____    ______ ____
ROOT
ATOM      1  O   UNL     1      13.083  -3.074 -21.233  0.00  0.00    +0.000 OA
ATOM      2  C   UNL     1      12.416   1.680 -20.321  0.00  0.00    +0.000 C 
ATOM      3  C   UNL     1      11.840   2.002 -18.993  0.00  0.00    +0.000 C 
ATOM      4  C   UNL     1      13.814   2.328 -20.464  0.00  0.00    +0.000 C 
ATOM      5  C   UNL     1      11.461   2.178 -21.434  0.00  0.00    +0.000 C 
ATOM      6  C   UNL     1      12.533   0.188 -20.381  0.00  0.00    +0.000 C 
ATOM      7  C   UNL     1      11.252   1.909 -17.574  0.00  0.00    +0.000 C 
ATOM      8  C   UNL     1      10.820   1.405 -16.457  0.00  0.00    +0.000 C 
ATOM      9  C   UNL     1      10.879  -0.013 -16.478  0.00  0.00    +0.000 C 
ATOM     10  C   UNL     1      11.182  -1.400 -17.046  0.00  0.00    +0.000 C 
ATOM     11  C   UNL     1      12.588  -1.017 -20.347  0.00  0.00    +0.000 C 
ATOM     12  C   UNL     1      11.001   2.146 -15.173  0.00  0.00    +0.000 C 
ATOM     13  C   UNL     1      11.664  -2.466 -18.035  0.00  0.00    +0.000 C 
ATOM     14  C   UNL     1      12.129  -3.176 -19.022  0.00  0.00    +0.000 C 
ATOM     15  C   UNL     1      12.630  -2.478 -20.261  0.00  0.00    +0.000 C 
ATOM     16  C   UNL     1      12.121  -4.676 -18.853  0.00  0.00    +0.000 C 
ENDROOT
TORSDOF 0
ENDMDL
MODEL 6
REMARK VINA RESULT:      -5.2     26.654     29.117
REMARK  Name = 5470187_Zerumbone.pdbqt.pdb
REMARK  0 active torsions:
REMARK  status: ('A' for Active; 'I' for Inactive)
REMARK                            x       y       z     vdW  Elec       q    Type
REMARK                         _______ _______ _______ _____ _____    ______ ____
ROOT
ATOM      1  O   UNL     1      16.454   8.929 -13.773  0.00  0.00    +0.000 OA
ATOM      2  C   UNL     1      11.695   9.305 -14.813  0.00  0.00    +0.000 C 
ATOM      3  C   UNL     1      11.370   9.987 -16.088  0.00  0.00    +0.000 C 
ATOM      4  C   UNL     1      11.161   7.852 -14.837  0.00  0.00    +0.000 C 
ATOM      5  C   UNL     1      11.081  10.097 -13.631  0.00  0.00    +0.000 C 
ATOM      6  C   UNL     1      13.189   9.301 -14.702  0.00  0.00    +0.000 C 
ATOM      7  C   UNL     1      11.461  10.724 -17.436  0.00  0.00    +0.000 C 
ATOM      8  C   UNL     1      11.965  11.308 -18.483  0.00  0.00    +0.000 C 
ATOM      9  C   UNL     1      13.381  11.360 -18.408  0.00  0.00    +0.000 C 
ATOM     10  C   UNL     1      14.769  11.112 -17.815  0.00  0.00    +0.000 C 
ATOM     11  C   UNL     1      14.395   9.347 -14.690  0.00  0.00    +0.000 C 
ATOM     12  C   UNL     1      11.285  11.202 -19.808  0.00  0.00    +0.000 C 
ATOM     13  C   UNL     1      15.838  10.617 -16.836  0.00  0.00    +0.000 C 
ATOM     14  C   UNL     1      16.550  10.111 -15.871  0.00  0.00    +0.000 C 
ATOM     15  C   UNL     1      15.856   9.431 -14.718  0.00  0.00    +0.000 C 
ATOM     16  C   UNL     1      18.049  10.257 -15.976  0.00  0.00    +0.000 C 
ENDROOT
TORSDOF 0
ENDMDL
MODEL 7
REMARK VINA RESULT:      -5.1     18.574     21.211
REMARK  Name = 5470187_Zerumbone.pdbqt.pdb
REMARK  0 active torsions:
REMARK  status: ('A' for Active; 'I' for Inactive)
REMARK                            x       y       z     vdW  Elec       q    Type
REMARK                         _______ _______ _______ _____ _____    ______ ____
ROOT
ATOM      1  O   UNL     1      10.739   1.714 -23.567  0.00  0.00    +0.000 OA
ATOM      2  C   UNL     1       7.999   0.878 -19.609  0.00  0.00    +0.000 C 
ATOM      3  C   UNL     1       8.707   0.965 -18.310  0.00  0.00    +0.000 C 
ATOM      4  C   UNL     1       6.862   1.926 -19.665  0.00  0.00    +0.000 C 
ATOM      5  C   UNL     1       7.437  -0.554 -19.798  0.00  0.00    +0.000 C 
ATOM      6  C   UNL     1       9.017   1.168 -20.669  0.00  0.00    +0.000 C 
ATOM      7  C   UNL     1       9.776   1.145 -17.217  0.00  0.00    +0.000 C 
ATOM      8  C   UNL     1      10.923   1.378 -16.651  0.00  0.00    +0.000 C 
ATOM      9  C   UNL     1      11.931   1.625 -17.617  0.00  0.00    +0.000 C 
ATOM     10  C   UNL     1      12.525   1.820 -19.013  0.00  0.00    +0.000 C 
ATOM     11  C   UNL     1       9.901   1.407 -21.455  0.00  0.00    +0.000 C 
ATOM     12  C   UNL     1      10.984   2.038 -15.313  0.00  0.00    +0.000 C 
ATOM     13  C   UNL     1      12.584   1.921 -20.541  0.00  0.00    +0.000 C 
ATOM     14  C   UNL     1      12.388   1.957 -21.827  0.00  0.00    +0.000 C 
ATOM     15  C   UNL     1      11.006   1.698 -22.371  0.00  0.00    +0.000 C 
ATOM     16  C   UNL     1      13.587   2.249 -22.696  0.00  0.00    +0.000 C 
ENDROOT
TORSDOF 0
ENDMDL
MODEL 8
REMARK VINA RESULT:      -5.0     16.771     18.625
REMARK  Name = 5470187_Zerumbone.pdbqt.pdb
REMARK  0 active torsions:
REMARK  status: ('A' for Active; 'I' for Inactive)
REMARK                            x       y       z     vdW  Elec       q    Type
REMARK                         _______ _______ _______ _____ _____    ______ ____
ROOT
ATOM      1  O   UNL     1       3.332   2.186 -17.581  0.00  0.00    +0.000 OA
ATOM      2  C   UNL     1       8.036   1.690 -18.805  0.00  0.00    +0.000 C 
ATOM      3  C   UNL     1       8.408   0.386 -19.403  0.00  0.00    +0.000 C 
ATOM      4  C   UNL     1       8.325   2.834 -19.807  0.00  0.00    +0.000 C 
ATOM      5  C   UNL     1       8.823   1.900 -17.488  0.00  0.00    +0.000 C 
ATOM      6  C   UNL     1       6.568   1.621 -18.515  0.00  0.00    +0.000 C 
ATOM      7  C   UNL     1       8.376  -1.048 -19.964  0.00  0.00    +0.000 C 
ATOM      8  C   UNL     1       7.925  -2.210 -20.332  0.00  0.00    +0.000 C 
ATOM      9  C   UNL     1       6.542  -2.337 -20.045  0.00  0.00    +0.000 C 
ATOM     10  C   UNL     1       5.160  -1.902 -19.553  0.00  0.00    +0.000 C 
ATOM     11  C   UNL     1       5.387   1.478 -18.310  0.00  0.00    +0.000 C 
ATOM     12  C   UNL     1       8.517  -2.911 -21.510  0.00  0.00    +0.000 C 
ATOM     13  C   UNL     1       4.072  -1.001 -18.962  0.00  0.00    +0.000 C 
ATOM     14  C   UNL     1       3.332  -0.067 -18.440  0.00  0.00    +0.000 C 
ATOM     15  C   UNL     1       3.959   1.256 -18.077  0.00  0.00    +0.000 C 
ATOM     16  C   UNL     1       1.873  -0.388 -18.221  0.00  0.00    +0.000 C 
ENDROOT
TORSDOF 0
ENDMDL
MODEL 9
REMARK VINA RESULT:      -4.8     27.652     30.157
REMARK  Name = 5470187_Zerumbone.pdbqt.pdb
REMARK  0 active torsions:
REMARK  status: ('A' for Active; 'I' for Inactive)
REMARK                            x       y       z     vdW  Elec       q    Type
REMARK                         _______ _______ _______ _____ _____    ______ ____
ROOT
ATOM      1  O   UNL     1      11.269  12.712 -11.313  0.00  0.00    +0.000 OA
ATOM      2  C   UNL     1      12.141   9.625 -14.998  0.00  0.00    +0.000 C 
ATOM      3  C   UNL     1      11.934  10.177 -16.358  0.00  0.00    +0.000 C 
ATOM      4  C   UNL     1      13.612   9.179 -14.825  0.00  0.00    +0.000 C 
ATOM      5  C   UNL     1      11.174   8.436 -14.770  0.00  0.00    +0.000 C 
ATOM      6  C   UNL     1      11.822  10.730 -14.038  0.00  0.00    +0.000 C 
ATOM      7  C   UNL     1      11.616  11.103 -17.546  0.00  0.00    +0.000 C 
ATOM      8  C   UNL     1      11.275  12.162 -18.218  0.00  0.00    +0.000 C 
ATOM      9  C   UNL     1      10.930  13.230 -17.350  0.00  0.00    +0.000 C 
ATOM     10  C   UNL     1      10.722  13.948 -16.015  0.00  0.00    +0.000 C 
ATOM     11  C   UNL     1      11.543  11.672 -13.338  0.00  0.00    +0.000 C 
ATOM     12  C   UNL     1      11.890  12.443 -19.549  0.00  0.00    +0.000 C 
ATOM     13  C   UNL     1      10.695  14.168 -14.500  0.00  0.00    +0.000 C 
ATOM     14  C   UNL     1      10.751  14.118 -13.201  0.00  0.00    +0.000 C 
ATOM     15  C   UNL     1      11.189  12.841 -12.529  0.00  0.00    +0.000 C 
ATOM     16  C   UNL     1      10.355  15.365 -12.447  0.00  0.00    +0.000 C 
ENDROOT
TORSDOF 0
ENDMDL
