MODEL 1
REMARK VINA RESULT:      -5.6      0.000      0.000
REMARK  Name = 5azacytidine.pdbqt.pdb
REMARK  5 active torsions:
REMARK  status: ('A' for Active; 'I' for Inactive)
REMARK    1  A    between atoms: C2*_2  and  O2*_16
REMARK    2  A    between atoms: C3*_3  and  O3*_21
REMARK    3  A    between atoms: C4*_4  and  C5*_18
REMARK    4  A    between atoms: C1*_5  and  N_6
REMARK    5  A    between atoms: C5*_18  and  O5*_19
REMARK                            x       y       z     vdW  Elec       q    Type
REMARK                         _______ _______ _______ _____ _____    ______ ____
ROOT
ATOM      1  O4* UNL     1      11.328   2.018 -17.125  0.00  0.00    +0.000 OA
ATOM      2  C2* UNL     1      10.394  -0.080 -17.338  0.00  0.00    +0.000 A 
ATOM      3  C3* UNL     1      11.325  -0.108 -16.250  0.00  0.00    +0.000 A 
ATOM      4  C4* UNL     1      11.888   1.206 -16.124  0.00  0.00    +0.000 A 
ATOM      5  C1* UNL     1      10.424   1.252 -17.891  0.00  0.00    +0.000 A 
ENDROOT
BRANCH   5   6
ATOM      6  N   UNL     1       9.787   1.784 -18.972  0.00  0.00    +0.000 N 
ATOM      7  C   UNL     1       8.461   2.192 -19.053  0.00  0.00    +0.000 A 
ATOM      8  O   UNL     1       7.660   2.088 -18.127  0.00  0.00    +0.000 OA
ATOM      9  N   UNL     1       8.083   2.722 -20.284  0.00  0.00    +0.000 NA
ATOM     10  C   UNL     1       8.945   2.806 -21.266  0.00  0.00    +0.000 A 
ATOM     11  N   UNL     1      10.256   2.370 -21.188  0.00  0.00    +0.000 NA
ATOM     12  C   UNL     1      10.450   1.964 -20.112  0.00  0.00    +0.000 A 
ATOM     13  N   UNL     1       8.532   3.334 -22.446  0.00  0.00    +0.000 N 
ATOM     14  H   UNL     1       9.056   3.019 -23.251  0.00  0.00    +0.000 HD
ATOM     15  H   UNL     1       7.525   3.326 -22.563  0.00  0.00    +0.000 HD
ENDBRANCH   5   6
BRANCH   2  16
ATOM     16  O2* UNL     1      10.151  -1.222 -18.050  0.00  0.00    +0.000 OA
ATOM     17  H2* UNL     1       9.254  -1.581 -17.872  0.00  0.00    +0.000 HD
ENDBRANCH   2  16
BRANCH   3  18
ATOM     18  O3* UNL     1      12.035  -1.239 -15.957  0.00  0.00    +0.000 OA
ATOM     19  H3* UNL     1      11.998  -1.858 -16.710  0.00  0.00    +0.000 HD
ENDBRANCH   3  18
BRANCH   4  20
ATOM     20  C5* UNL     1      13.027   1.588 -15.390  0.00  0.00    +0.000 C 
BRANCH  20  21
ATOM     21  O5* UNL     1      14.097   1.950 -14.688  0.00  0.00    +0.000 OA
ATOM     22  H5* UNL     1      14.181   1.390 -13.897  0.00  0.00    +0.000 HD
ENDBRANCH  20  21
ENDBRANCH   4  20
TORSDOF 5
ENDMDL
MODEL 2
REMARK VINA RESULT:      -5.4     22.563     24.422
REMARK  Name = 5azacytidine.pdbqt.pdb
REMARK  5 active torsions:
REMARK  status: ('A' for Active; 'I' for Inactive)
REMARK    1  A    between atoms: C2*_2  and  O2*_16
REMARK    2  A    between atoms: C3*_3  and  O3*_21
REMARK    3  A    between atoms: C4*_4  and  C5*_18
REMARK    4  A    between atoms: C1*_5  and  N_6
REMARK    5  A    between atoms: C5*_18  and  O5*_19
REMARK                            x       y       z     vdW  Elec       q    Type
REMARK                         _______ _______ _______ _____ _____    ______ ____
ROOT
ATOM      1  O4* UNL     1     -10.884   4.895 -10.424  0.00  0.00    +0.000 OA
ATOM      2  C2* UNL     1     -11.284   6.124  -8.514  0.00  0.00    +0.000 A 
ATOM      3  C3* UNL     1     -10.232   5.193  -8.240  0.00  0.00    +0.000 A 
ATOM      4  C4* UNL     1      -9.988   4.445  -9.440  0.00  0.00    +0.000 A 
ATOM      5  C1* UNL     1     -11.699   5.910  -9.879  0.00  0.00    +0.000 A 
ENDROOT
BRANCH   5   6
ATOM      6  N   UNL     1     -12.702   6.477 -10.607  0.00  0.00    +0.000 N 
ATOM      7  C   UNL     1     -12.871   7.825 -10.902  0.00  0.00    +0.000 A 
ATOM      8  O   UNL     1     -12.121   8.709 -10.496  0.00  0.00    +0.000 OA
ATOM      9  N   UNL     1     -13.981   8.120 -11.689  0.00  0.00    +0.000 NA
ATOM     10  C   UNL     1     -14.781   7.166 -12.095  0.00  0.00    +0.000 A 
ATOM     11  N   UNL     1     -14.624   5.830 -11.773  0.00  0.00    +0.000 NA
ATOM     12  C   UNL     1     -13.660   5.714 -11.128  0.00  0.00    +0.000 A 
ATOM     13  N   UNL     1     -15.848   7.502 -12.864  0.00  0.00    +0.000 N 
ATOM     14  H   UNL     1     -16.622   6.853 -12.812  0.00  0.00    +0.000 HD
ATOM     15  H   UNL     1     -16.106   8.479 -12.796  0.00  0.00    +0.000 HD
ENDBRANCH   5   6
BRANCH   2  16
ATOM     16  O2* UNL     1     -12.103   6.538  -7.500  0.00  0.00    +0.000 OA
ATOM     17  H2* UNL     1     -12.830   5.900  -7.331  0.00  0.00    +0.000 HD
ENDBRANCH   2  16
BRANCH   3  18
ATOM     18  O3* UNL     1     -10.077   4.649  -6.995  0.00  0.00    +0.000 OA
ATOM     19  H3* UNL     1     -10.444   5.252  -6.322  0.00  0.00    +0.000 HD
ENDBRANCH   3  18
BRANCH   4  20
ATOM     20  C5* UNL     1      -9.251   3.253  -9.576  0.00  0.00    +0.000 C 
BRANCH  20  21
ATOM     21  O5* UNL     1      -8.552   2.128  -9.696  0.00  0.00    +0.000 OA
ATOM     22  H5* UNL     1      -7.636   2.331  -9.954  0.00  0.00    +0.000 HD
ENDBRANCH  20  21
ENDBRANCH   4  20
TORSDOF 5
ENDMDL
MODEL 3
REMARK VINA RESULT:      -5.4      1.470      2.179
REMARK  Name = 5azacytidine.pdbqt.pdb
REMARK  5 active torsions:
REMARK  status: ('A' for Active; 'I' for Inactive)
REMARK    1  A    between atoms: C2*_2  and  O2*_16
REMARK    2  A    between atoms: C3*_3  and  O3*_21
REMARK    3  A    between atoms: C4*_4  and  C5*_18
REMARK    4  A    between atoms: C1*_5  and  N_6
REMARK    5  A    between atoms: C5*_18  and  O5*_19
REMARK                            x       y       z     vdW  Elec       q    Type
REMARK                         _______ _______ _______ _____ _____    ______ ____
ROOT
ATOM      1  O4* UNL     1      12.063   1.825 -17.687  0.00  0.00    +0.000 OA
ATOM      2  C2* UNL     1      10.550   0.085 -17.615  0.00  0.00    +0.000 A 
ATOM      3  C3* UNL     1      11.139   0.225 -16.318  0.00  0.00    +0.000 A 
ATOM      4  C4* UNL     1      12.068   1.316 -16.376  0.00  0.00    +0.000 A 
ATOM      5  C1* UNL     1      11.156   1.079 -18.469  0.00  0.00    +0.000 A 
ENDROOT
BRANCH   5   6
ATOM      6  N   UNL     1      11.004   1.324 -19.801  0.00  0.00    +0.000 N 
ATOM      7  C   UNL     1      11.640   0.679 -20.855  0.00  0.00    +0.000 A 
ATOM      8  O   UNL     1      12.478  -0.208 -20.703  0.00  0.00    +0.000 OA
ATOM      9  N   UNL     1      11.275   1.123 -22.123  0.00  0.00    +0.000 NA
ATOM     10  C   UNL     1      10.396   2.082 -22.264  0.00  0.00    +0.000 A 
ATOM     11  N   UNL     1       9.788   2.741 -21.210  0.00  0.00    +0.000 NA
ATOM     12  C   UNL     1      10.164   2.272 -20.211  0.00  0.00    +0.000 A 
ATOM     13  N   UNL     1      10.068   2.479 -23.520  0.00  0.00    +0.000 N 
ATOM     14  H   UNL     1       9.735   3.431 -23.585  0.00  0.00    +0.000 HD
ATOM     15  H   UNL     1      10.754   2.219 -24.219  0.00  0.00    +0.000 HD
ENDBRANCH   5   6
BRANCH   2  16
ATOM     16  O2* UNL     1      10.106  -1.140 -18.029  0.00  0.00    +0.000 OA
ATOM     17  H2* UNL     1      10.717  -1.553 -18.678  0.00  0.00    +0.000 HD
ENDBRANCH   2  16
BRANCH   3  18
ATOM     18  O3* UNL     1      11.337  -0.861 -15.512  0.00  0.00    +0.000 OA
ATOM     19  H3* UNL     1      11.816  -0.592 -14.706  0.00  0.00    +0.000 HD
ENDBRANCH   3  18
BRANCH   4  20
ATOM     20  C5* UNL     1      13.067   1.647 -15.441  0.00  0.00    +0.000 C 
BRANCH  20  21
ATOM     21  O5* UNL     1      14.017   1.963 -14.566  0.00  0.00    +0.000 OA
ATOM     22  H5* UNL     1      14.488   2.762 -14.859  0.00  0.00    +0.000 HD
ENDBRANCH  20  21
ENDBRANCH   4  20
TORSDOF 5
ENDMDL
MODEL 4
REMARK VINA RESULT:      -5.4     12.051     13.787
REMARK  Name = 5azacytidine.pdbqt.pdb
REMARK  5 active torsions:
REMARK  status: ('A' for Active; 'I' for Inactive)
REMARK    1  A    between atoms: C2*_2  and  O2*_16
REMARK    2  A    between atoms: C3*_3  and  O3*_21
REMARK    3  A    between atoms: C4*_4  and  C5*_18
REMARK    4  A    between atoms: C1*_5  and  N_6
REMARK    5  A    between atoms: C5*_18  and  O5*_19
REMARK                            x       y       z     vdW  Elec       q    Type
REMARK                         _______ _______ _______ _____ _____    ______ ____
ROOT
ATOM      1  O4* UNL     1      10.058  -4.408  -8.004  0.00  0.00    +0.000 OA
ATOM      2  C2* UNL     1      10.014  -5.368  -5.907  0.00  0.00    +0.000 A 
ATOM      3  C3* UNL     1       9.012  -4.346  -5.957  0.00  0.00    +0.000 A 
ATOM      4  C4* UNL     1       9.045  -3.767  -7.270  0.00  0.00    +0.000 A 
ATOM      5  C1* UNL     1      10.676  -5.380  -7.189  0.00  0.00    +0.000 A 
ENDROOT
BRANCH   5   6
ATOM      6  N   UNL     1      11.738  -6.106  -7.638  0.00  0.00    +0.000 N 
ATOM      7  C   UNL     1      12.006  -7.448  -7.394  0.00  0.00    +0.000 A 
ATOM      8  O   UNL     1      11.302  -8.163  -6.685  0.00  0.00    +0.000 OA
ATOM      9  N   UNL     1      13.159  -7.938  -8.001  0.00  0.00    +0.000 NA
ATOM     10  C   UNL     1      13.908  -7.155  -8.737  0.00  0.00    +0.000 A 
ATOM     11  N   UNL     1      13.652  -5.812  -8.951  0.00  0.00    +0.000 NA
ATOM     12  C   UNL     1      12.661  -5.530  -8.406  0.00  0.00    +0.000 A 
ATOM     13  N   UNL     1      15.020  -7.678  -9.312  0.00  0.00    +0.000 N 
ATOM     14  H   UNL     1      15.748  -7.003  -9.507  0.00  0.00    +0.000 HD
ATOM     15  H   UNL     1      15.339  -8.533  -8.873  0.00  0.00    +0.000 HD
ENDBRANCH   5   6
BRANCH   2  16
ATOM     16  O2* UNL     1      10.605  -5.679  -4.714  0.00  0.00    +0.000 OA
ATOM     17  H2* UNL     1       9.942  -5.833  -4.006  0.00  0.00    +0.000 HD
ENDBRANCH   2  16
BRANCH   3  18
ATOM     18  O3* UNL     1       8.690  -3.619  -4.845  0.00  0.00    +0.000 OA
ATOM     19  H3* UNL     1       9.498  -3.240  -4.452  0.00  0.00    +0.000 HD
ENDBRANCH   3  18
BRANCH   4  20
ATOM     20  C5* UNL     1       8.447  -2.566  -7.696  0.00  0.00    +0.000 C 
BRANCH  20  21
ATOM     21  O5* UNL     1       7.881  -1.435  -8.108  0.00  0.00    +0.000 OA
ATOM     22  H5* UNL     1       6.928  -1.451  -7.915  0.00  0.00    +0.000 HD
ENDBRANCH  20  21
ENDBRANCH   4  20
TORSDOF 5
ENDMDL
MODEL 5
REMARK VINA RESULT:      -5.2     14.767     17.153
REMARK  Name = 5azacytidine.pdbqt.pdb
REMARK  5 active torsions:
REMARK  status: ('A' for Active; 'I' for Inactive)
REMARK    1  A    between atoms: C2*_2  and  O2*_16
REMARK    2  A    between atoms: C3*_3  and  O3*_21
REMARK    3  A    between atoms: C4*_4  and  C5*_18
REMARK    4  A    between atoms: C1*_5  and  N_6
REMARK    5  A    between atoms: C5*_18  and  O5*_19
REMARK                            x       y       z     vdW  Elec       q    Type
REMARK                         _______ _______ _______ _____ _____    ______ ____
ROOT
ATOM      1  O4* UNL     1      -7.283  -1.433 -19.300  0.00  0.00    +0.000 OA
ATOM      2  C2* UNL     1      -5.974  -3.331 -19.228  0.00  0.00    +0.000 A 
ATOM      3  C3* UNL     1      -7.331  -3.727 -19.454  0.00  0.00    +0.000 A 
ATOM      4  C4* UNL     1      -8.130  -2.536 -19.507  0.00  0.00    +0.000 A 
ATOM      5  C1* UNL     1      -5.962  -1.893 -19.110  0.00  0.00    +0.000 A 
ENDROOT
BRANCH   5   6
ATOM      6  N   UNL     1      -4.948  -1.029 -18.825  0.00  0.00    +0.000 N 
ATOM      7  C   UNL     1      -4.176  -0.986 -17.670  0.00  0.00    +0.000 A 
ATOM      8  O   UNL     1      -4.345  -1.737 -16.712  0.00  0.00    +0.000 OA
ATOM      9  N   UNL     1      -3.187  -0.006 -17.658  0.00  0.00    +0.000 NA
ATOM     10  C   UNL     1      -3.036   0.798 -18.681  0.00  0.00    +0.000 A 
ATOM     11  N   UNL     1      -3.828   0.770 -19.816  0.00  0.00    +0.000 NA
ATOM     12  C   UNL     1      -4.601  -0.096 -19.708  0.00  0.00    +0.000 A 
ATOM     13  N   UNL     1      -2.056   1.736 -18.626  0.00  0.00    +0.000 N 
ATOM     14  H   UNL     1      -2.225   2.551 -19.200  0.00  0.00    +0.000 HD
ATOM     15  H   UNL     1      -1.739   1.935 -17.685  0.00  0.00    +0.000 HD
ENDBRANCH   5   6
BRANCH   2  16
ATOM     16  O2* UNL     1      -5.120  -4.179 -18.579  0.00  0.00    +0.000 OA
ATOM     17  H2* UNL     1      -5.297  -5.119 -18.801  0.00  0.00    +0.000 HD
ENDBRANCH   2  16
BRANCH   3  18
ATOM     18  O3* UNL     1      -7.813  -4.909 -18.964  0.00  0.00    +0.000 OA
ATOM     19  H3* UNL     1      -8.136  -5.464 -19.697  0.00  0.00    +0.000 HD
ENDBRANCH   3  18
BRANCH   4  20
ATOM     20  C5* UNL     1      -9.532  -2.436 -19.436  0.00  0.00    +0.000 C 
BRANCH  20  21
ATOM     21  O5* UNL     1     -10.857  -2.348 -19.361  0.00  0.00    +0.000 OA
ATOM     22  H5* UNL     1     -11.240  -2.326 -20.255  0.00  0.00    +0.000 HD
ENDBRANCH  20  21
ENDBRANCH   4  20
TORSDOF 5
ENDMDL
MODEL 6
REMARK VINA RESULT:      -5.1      4.125      5.812
REMARK  Name = 5azacytidine.pdbqt.pdb
REMARK  5 active torsions:
REMARK  status: ('A' for Active; 'I' for Inactive)
REMARK    1  A    between atoms: C2*_2  and  O2*_16
REMARK    2  A    between atoms: C3*_3  and  O3*_21
REMARK    3  A    between atoms: C4*_4  and  C5*_18
REMARK    4  A    between atoms: C1*_5  and  N_6
REMARK    5  A    between atoms: C5*_18  and  O5*_19
REMARK                            x       y       z     vdW  Elec       q    Type
REMARK                         _______ _______ _______ _____ _____    ______ ____
ROOT
ATOM      1  O4* UNL     1      11.976  -0.276 -19.066  0.00  0.00    +0.000 OA
ATOM      2  C2* UNL     1      11.408  -0.389 -16.833  0.00  0.00    +0.000 A 
ATOM      3  C3* UNL     1      11.467   0.990 -17.215  0.00  0.00    +0.000 A 
ATOM      4  C4* UNL     1      11.810   1.042 -18.607  0.00  0.00    +0.000 A 
ATOM      5  C1* UNL     1      11.752  -1.169 -17.997  0.00  0.00    +0.000 A 
ENDROOT
BRANCH   5   6
ATOM      6  N   UNL     1      11.911  -2.514 -18.155  0.00  0.00    +0.000 N 
ATOM      7  C   UNL     1      10.972  -3.425 -18.622  0.00  0.00    +0.000 A 
ATOM      8  O   UNL     1       9.823  -3.118 -18.932  0.00  0.00    +0.000 OA
ATOM      9  N   UNL     1      11.418  -4.742 -18.702  0.00  0.00    +0.000 NA
ATOM     10  C   UNL     1      12.640  -5.053 -18.348  0.00  0.00    +0.000 A 
ATOM     11  N   UNL     1      13.561  -4.145 -17.855  0.00  0.00    +0.000 NA
ATOM     12  C   UNL     1      13.074  -3.086 -17.851  0.00  0.00    +0.000 A 
ATOM     13  N   UNL     1      13.031  -6.348 -18.446  0.00  0.00    +0.000 N 
ATOM     14  H   UNL     1      13.778  -6.609 -17.816  0.00  0.00    +0.000 HD
ATOM     15  H   UNL     1      12.259  -7.003 -18.486  0.00  0.00    +0.000 HD
ENDBRANCH   5   6
BRANCH   2  16
ATOM     16  O2* UNL     1      11.676  -0.746 -15.541  0.00  0.00    +0.000 OA
ATOM     17  H2* UNL     1      10.882  -1.107 -15.088  0.00  0.00    +0.000 HD
ENDBRANCH   2  16
BRANCH   3  18
ATOM     18  O3* UNL     1      11.863   1.952 -16.328  0.00  0.00    +0.000 OA
ATOM     19  H3* UNL     1      12.780   2.221 -16.519  0.00  0.00    +0.000 HD
ENDBRANCH   3  18
BRANCH   4  20
ATOM     20  C5* UNL     1      12.245   2.160 -19.345  0.00  0.00    +0.000 C 
BRANCH  20  21
ATOM     21  O5* UNL     1      12.665   3.214 -20.038  0.00  0.00    +0.000 OA
ATOM     22  H5* UNL     1      13.614   3.126 -20.234  0.00  0.00    +0.000 HD
ENDBRANCH  20  21
ENDBRANCH   4  20
TORSDOF 5
ENDMDL
MODEL 7
REMARK VINA RESULT:      -5.1      3.203      5.537
REMARK  Name = 5azacytidine.pdbqt.pdb
REMARK  5 active torsions:
REMARK  status: ('A' for Active; 'I' for Inactive)
REMARK    1  A    between atoms: C2*_2  and  O2*_16
REMARK    2  A    between atoms: C3*_3  and  O3*_21
REMARK    3  A    between atoms: C4*_4  and  C5*_18
REMARK    4  A    between atoms: C1*_5  and  N_6
REMARK    5  A    between atoms: C5*_18  and  O5*_19
REMARK                            x       y       z     vdW  Elec       q    Type
REMARK                         _______ _______ _______ _____ _____    ______ ____
ROOT
ATOM      1  O4* UNL     1      12.449   1.751 -20.244  0.00  0.00    +0.000 OA
ATOM      2  C2* UNL     1      10.237   2.284 -20.625  0.00  0.00    +0.000 A 
ATOM      3  C3* UNL     1      10.952   2.411 -21.859  0.00  0.00    +0.000 A 
ATOM      4  C4* UNL     1      12.321   2.065 -21.607  0.00  0.00    +0.000 A 
ATOM      5  C1* UNL     1      11.192   1.893 -19.617  0.00  0.00    +0.000 A 
ENDROOT
BRANCH   5   6
ATOM      6  N   UNL     1      11.048   1.709 -18.274  0.00  0.00    +0.000 N 
ATOM      7  C   UNL     1      10.988   0.501 -17.590  0.00  0.00    +0.000 A 
ATOM      8  O   UNL     1      11.027  -0.596 -18.143  0.00  0.00    +0.000 OA
ATOM      9  N   UNL     1      10.859   0.612 -16.208  0.00  0.00    +0.000 NA
ATOM     10  C   UNL     1      10.799   1.790 -15.639  0.00  0.00    +0.000 A 
ATOM     11  N   UNL     1      10.830   2.989 -16.328  0.00  0.00    +0.000 NA
ATOM     12  C   UNL     1      10.952   2.762 -17.465  0.00  0.00    +0.000 A 
ATOM     13  N   UNL     1      10.677   1.849 -14.288  0.00  0.00    +0.000 N 
ATOM     14  H   UNL     1      10.240   2.694 -13.944  0.00  0.00    +0.000 HD
ATOM     15  H   UNL     1      10.332   0.991 -13.874  0.00  0.00    +0.000 HD
ENDBRANCH   5   6
BRANCH   2  16
ATOM     16  O2* UNL     1       9.130   3.055 -20.401  0.00  0.00    +0.000 OA
ATOM     17  H2* UNL     1       8.982   3.215 -19.443  0.00  0.00    +0.000 HD
ENDBRANCH   2  16
BRANCH   3  18
ATOM     18  O3* UNL     1      10.593   3.345 -22.790  0.00  0.00    +0.000 OA
ATOM     19  H3* UNL     1       9.626   3.331 -22.918  0.00  0.00    +0.000 HD
ENDBRANCH   3  18
BRANCH   4  20
ATOM     20  C5* UNL     1      13.435   2.302 -22.436  0.00  0.00    +0.000 C 
BRANCH  20  21
ATOM     21  O5* UNL     1      14.484   2.535 -23.219  0.00  0.00    +0.000 OA
ATOM     22  H5* UNL     1      15.273   2.706 -22.676  0.00  0.00    +0.000 HD
ENDBRANCH  20  21
ENDBRANCH   4  20
TORSDOF 5
ENDMDL
MODEL 8
REMARK VINA RESULT:      -5.1     12.572     14.896
REMARK  Name = 5azacytidine.pdbqt.pdb
REMARK  5 active torsions:
REMARK  status: ('A' for Active; 'I' for Inactive)
REMARK    1  A    between atoms: C2*_2  and  O2*_16
REMARK    2  A    between atoms: C3*_3  and  O3*_21
REMARK    3  A    between atoms: C4*_4  and  C5*_18
REMARK    4  A    between atoms: C1*_5  and  N_6
REMARK    5  A    between atoms: C5*_18  and  O5*_19
REMARK                            x       y       z     vdW  Elec       q    Type
REMARK                         _______ _______ _______ _____ _____    ______ ____
ROOT
ATOM      1  O4* UNL     1      12.725  -5.346  -7.518  0.00  0.00    +0.000 OA
ATOM      2  C2* UNL     1      11.738  -7.416  -7.766  0.00  0.00    +0.000 A 
ATOM      3  C3* UNL     1      12.339  -7.050  -9.013  0.00  0.00    +0.000 A 
ATOM      4  C4* UNL     1      12.957  -5.767  -8.839  0.00  0.00    +0.000 A 
ATOM      5  C1* UNL     1      11.967  -6.329  -6.846  0.00  0.00    +0.000 A 
ENDROOT
BRANCH   5   6
ATOM      6  N   UNL     1      11.547  -6.141  -5.563  0.00  0.00    +0.000 N 
ATOM      7  C   UNL     1      12.287  -6.315  -4.399  0.00  0.00    +0.000 A 
ATOM      8  O   UNL     1      13.452  -6.708  -4.387  0.00  0.00    +0.000 OA
ATOM      9  N   UNL     1      11.605  -6.028  -3.220  0.00  0.00    +0.000 NA
ATOM     10  C   UNL     1      10.358  -5.631  -3.252  0.00  0.00    +0.000 A 
ATOM     11  N   UNL     1       9.618  -5.488  -4.413  0.00  0.00    +0.000 NA
ATOM     12  C   UNL     1      10.300  -5.743  -5.323  0.00  0.00    +0.000 A 
ATOM     13  N   UNL     1       9.736  -5.359  -2.077  0.00  0.00    +0.000 N 
ATOM     14  H   UNL     1       8.730  -5.457  -2.104  0.00  0.00    +0.000 HD
ATOM     15  H   UNL     1      10.184  -5.782  -1.274  0.00  0.00    +0.000 HD
ENDBRANCH   5   6
BRANCH   2  16
ATOM     16  O2* UNL     1      10.643  -8.235  -7.757  0.00  0.00    +0.000 OA
ATOM     17  H2* UNL     1       9.845  -7.787  -8.113  0.00  0.00    +0.000 HD
ENDBRANCH   2  16
BRANCH   3  18
ATOM     18  O3* UNL     1      11.792  -7.443 -10.203  0.00  0.00    +0.000 OA
ATOM     19  H3* UNL     1      11.272  -8.258 -10.075  0.00  0.00    +0.000 HD
ENDBRANCH   3  18
BRANCH   4  20
ATOM     20  C5* UNL     1      13.424  -4.894  -9.840  0.00  0.00    +0.000 C 
BRANCH  20  21
ATOM     21  O5* UNL     1      13.872  -4.076 -10.787  0.00  0.00    +0.000 OA
ATOM     22  H5* UNL     1      13.864  -4.529 -11.648  0.00  0.00    +0.000 HD
ENDBRANCH  20  21
ENDBRANCH   4  20
TORSDOF 5
ENDMDL
MODEL 9
REMARK VINA RESULT:      -5.0     14.270     16.562
REMARK  Name = 5azacytidine.pdbqt.pdb
REMARK  5 active torsions:
REMARK  status: ('A' for Active; 'I' for Inactive)
REMARK    1  A    between atoms: C2*_2  and  O2*_16
REMARK    2  A    between atoms: C3*_3  and  O3*_21
REMARK    3  A    between atoms: C4*_4  and  C5*_18
REMARK    4  A    between atoms: C1*_5  and  N_6
REMARK    5  A    between atoms: C5*_18  and  O5*_19
REMARK                            x       y       z     vdW  Elec       q    Type
REMARK                         _______ _______ _______ _____ _____    ______ ____
ROOT
ATOM      1  O4* UNL     1      10.502  -5.348  -5.036  0.00  0.00    +0.000 OA
ATOM      2  C2* UNL     1      11.012  -6.700  -6.834  0.00  0.00    +0.000 A 
ATOM      3  C3* UNL     1      10.619  -5.417  -7.331  0.00  0.00    +0.000 A 
ATOM      4  C4* UNL     1      10.316  -4.585  -6.202  0.00  0.00    +0.000 A 
ATOM      5  C1* UNL     1      10.912  -6.650  -5.395  0.00  0.00    +0.000 A 
ENDROOT
BRANCH   5   6
ATOM      6  N   UNL     1      11.101  -7.616  -4.453  0.00  0.00    +0.000 N 
ATOM      7  C   UNL     1      11.872  -8.766  -4.567  0.00  0.00    +0.000 A 
ATOM      8  O   UNL     1      12.476  -9.080  -5.590  0.00  0.00    +0.000 OA
ATOM      9  N   UNL     1      11.903  -9.570  -3.430  0.00  0.00    +0.000 NA
ATOM     10  C   UNL     1      11.235  -9.229  -2.357  0.00  0.00    +0.000 A 
ATOM     11  N   UNL     1      10.445  -8.097  -2.259  0.00  0.00    +0.000 NA
ATOM     12  C   UNL     1      10.514  -7.508  -3.263  0.00  0.00    +0.000 A 
ATOM     13  N   UNL     1      11.299 -10.042  -1.272  0.00  0.00    +0.000 N 
ATOM     14  H   UNL     1      10.499  -9.979  -0.655  0.00  0.00    +0.000 HD
ATOM     15  H   UNL     1      11.597 -10.985  -1.489  0.00  0.00    +0.000 HD
ENDBRANCH   5   6
BRANCH   2  16
ATOM     16  O2* UNL     1      10.804  -7.816  -7.597  0.00  0.00    +0.000 OA
ATOM     17  H2* UNL     1      11.394  -8.556  -7.335  0.00  0.00    +0.000 HD
ENDBRANCH   2  16
BRANCH   3  18
ATOM     18  O3* UNL     1       9.967  -5.293  -8.527  0.00  0.00    +0.000 OA
ATOM     19  H3* UNL     1       9.011  -5.177  -8.372  0.00  0.00    +0.000 HD
ENDBRANCH   3  18
BRANCH   4  20
ATOM     20  C5* UNL     1       9.636  -3.352  -6.198  0.00  0.00    +0.000 C 
BRANCH  20  21
ATOM     21  O5* UNL     1       9.000  -2.185  -6.203  0.00  0.00    +0.000 OA
ATOM     22  H5* UNL     1       8.197  -2.246  -6.748  0.00  0.00    +0.000 HD
ENDBRANCH  20  21
ENDBRANCH   4  20
TORSDOF 5
ENDMDL
