MODEL 1
REMARK VINA RESULT:      -6.0      0.000      0.000
REMARK  Name = 60953_Capecitabine.pdbqt.pdb
REMARK  6 active torsions:
REMARK  status: ('A' for Active; 'I' for Inactive)
REMARK    1  A    between atoms: N_4  and  C_16
REMARK    2  A    between atoms: C_11  and  O_23
REMARK    3  A    between atoms: C_14  and  O_19
REMARK    4  A    between atoms: C_15  and  O_21
REMARK    5  A    between atoms: O_23  and  C_24
REMARK    6  A    between atoms: C_25  and  C_26
REMARK                            x       y       z     vdW  Elec       q    Type
REMARK                         _______ _______ _______ _____ _____    ______ ____
ROOT
ATOM      1  F   UNL     1       5.802  -1.301 -19.080  0.00  0.00    +0.000 F 
ATOM      2  O   UNL     1       7.497   3.757 -18.590  0.00  0.00    +0.000 OA
ATOM      3  O   UNL     1       2.942   2.728 -18.388  0.00  0.00    +0.000 OA
ATOM      4  N   UNL     1       8.000   1.547 -19.099  0.00  0.00    +0.000 N 
ATOM      5  N   UNL     1       5.744   2.295 -18.767  0.00  0.00    +0.000 NA
ATOM      6  N   UNL     1       3.996   0.723 -18.918  0.00  0.00    +0.000 N 
ATOM      7  C   UNL     1       7.445   0.339 -19.327  0.00  0.00    +0.000 C 
ATOM      8  C   UNL     1       7.109   2.613 -18.810  0.00  0.00    +0.000 C 
ATOM      9  C   UNL     1       6.222  -0.056 -19.364  0.00  0.00    +0.000 C 
ATOM     10  C   UNL     1       5.325   1.086 -18.996  0.00  0.00    +0.000 C 
ATOM     11  C   UNL     1       2.922   1.527 -18.609  0.00  0.00    +0.000 C 
ATOM     12  H   UNL     1       3.752  -0.245 -19.076  0.00  0.00    +0.000 HD
ENDROOT
BRANCH   4  16
ATOM     13  O   UNL     1      10.189   1.303 -18.095  0.00  0.00    +0.000 OA
ATOM     14  C   UNL     1      10.220   2.128 -20.249  0.00  0.00    +0.000 A 
ATOM     15  C   UNL     1      11.565   2.095 -19.760  0.00  0.00    +0.000 A 
ATOM     16  C   UNL     1       9.363   1.654 -19.186  0.00  0.00    +0.000 A 
ATOM     17  C   UNL     1      11.528   1.568 -18.424  0.00  0.00    +0.000 A 
ATOM     18  C   UNL     1      12.569   1.537 -17.358  0.00  0.00    +0.000 C 
BRANCH  14  19
ATOM     19  O   UNL     1       9.869   3.053 -21.191  0.00  0.00    +0.000 OA
ATOM     20  H   UNL     1      10.638   3.589 -21.489  0.00  0.00    +0.000 HD
ENDBRANCH  14  19
BRANCH  15  21
ATOM     21  O   UNL     1      12.496   3.002 -20.193  0.00  0.00    +0.000 OA
ATOM     22  H   UNL     1      12.434   3.119 -21.160  0.00  0.00    +0.000 HD
ENDBRANCH  15  21
ENDBRANCH   4  16
BRANCH  11  23
ATOM     23  O   UNL     1       1.794   0.755 -18.600  0.00  0.00    +0.000 OA
BRANCH  23  24
ATOM     24  C   UNL     1       1.960  -0.517 -18.957  0.00  0.00    +0.000 C 
ATOM     25  C   UNL     1       2.153  -1.981 -19.367  0.00  0.00    +0.000 C 
BRANCH  25  26
ATOM     26  C   UNL     1       2.348  -3.444 -19.776  0.00  0.00    +0.000 C 
ATOM     27  C   UNL     1       2.547  -4.904 -20.190  0.00  0.00    +0.000 C 
ATOM     28  C   UNL     1       2.758  -6.363 -20.611  0.00  0.00    +0.000 C 
ENDBRANCH  25  26
ENDBRANCH  23  24
ENDBRANCH  11  23
TORSDOF 6
ENDMDL
MODEL 2
REMARK VINA RESULT:      -5.9      8.600     11.622
REMARK  Name = 60953_Capecitabine.pdbqt.pdb
REMARK  6 active torsions:
REMARK  status: ('A' for Active; 'I' for Inactive)
REMARK    1  A    between atoms: N_4  and  C_16
REMARK    2  A    between atoms: C_11  and  O_23
REMARK    3  A    between atoms: C_14  and  O_19
REMARK    4  A    between atoms: C_15  and  O_21
REMARK    5  A    between atoms: O_23  and  C_24
REMARK    6  A    between atoms: C_25  and  C_26
REMARK                            x       y       z     vdW  Elec       q    Type
REMARK                         _______ _______ _______ _____ _____    ______ ____
ROOT
ATOM      1  F   UNL     1      -3.265  -2.291 -21.762  0.00  0.00    +0.000 F 
ATOM      2  O   UNL     1      -3.940   1.479 -18.015  0.00  0.00    +0.000 OA
ATOM      3  O   UNL     1      -6.497  -2.435 -17.963  0.00  0.00    +0.000 OA
ATOM      4  N   UNL     1      -2.973   0.850 -20.032  0.00  0.00    +0.000 N 
ATOM      5  N   UNL     1      -4.629  -0.500 -18.939  0.00  0.00    +0.000 NA
ATOM      6  N   UNL     1      -5.252  -2.547 -19.926  0.00  0.00    +0.000 N 
ATOM      7  C   UNL     1      -2.980  -0.109 -20.979  0.00  0.00    +0.000 C 
ATOM      8  C   UNL     1      -3.857   0.669 -18.936  0.00  0.00    +0.000 C 
ATOM      9  C   UNL     1      -3.672  -1.186 -21.113  0.00  0.00    +0.000 C 
ATOM     10  C   UNL     1      -4.544  -1.363 -19.908  0.00  0.00    +0.000 C 
ATOM     11  C   UNL     1      -6.138  -3.011 -18.979  0.00  0.00    +0.000 C 
ATOM     12  H   UNL     1      -5.106  -3.183 -20.697  0.00  0.00    +0.000 HD
ENDROOT
BRANCH   4  16
ATOM     13  O   UNL     1      -2.475   2.959 -21.111  0.00  0.00    +0.000 OA
ATOM     14  C   UNL     1      -0.847   2.235 -19.646  0.00  0.00    +0.000 A 
ATOM     15  C   UNL     1      -0.398   3.450 -20.254  0.00  0.00    +0.000 A 
ATOM     16  C   UNL     1      -2.140   1.923 -20.211  0.00  0.00    +0.000 A 
ATOM     17  C   UNL     1      -1.428   3.892 -21.153  0.00  0.00    +0.000 A 
ATOM     18  C   UNL     1      -1.413   4.936 -22.216  0.00  0.00    +0.000 C 
BRANCH  14  19
ATOM     19  O   UNL     1       0.070   1.316 -19.221  0.00  0.00    +0.000 OA
ATOM     20  H   UNL     1       0.295   1.428 -18.271  0.00  0.00    +0.000 HD
ENDBRANCH  14  19
BRANCH  15  21
ATOM     21  O   UNL     1       0.937   3.689 -20.453  0.00  0.00    +0.000 OA
ATOM     22  H   UNL     1       1.392   2.871 -20.730  0.00  0.00    +0.000 HD
ENDBRANCH  15  21
ENDBRANCH   4  16
BRANCH  11  23
ATOM     23  O   UNL     1      -6.578  -4.245 -19.369  0.00  0.00    +0.000 OA
BRANCH  23  24
ATOM     24  C   UNL     1      -7.614  -4.253 -20.205  0.00  0.00    +0.000 C 
ATOM     25  C   UNL     1      -8.806  -4.259 -21.167  0.00  0.00    +0.000 C 
BRANCH  25  26
ATOM     26  C   UNL     1      -9.998  -4.264 -22.129  0.00  0.00    +0.000 C 
ATOM     27  C   UNL     1     -11.185  -4.267 -23.096  0.00  0.00    +0.000 C 
ATOM     28  C   UNL     1     -12.365  -4.272 -24.074  0.00  0.00    +0.000 C 
ENDBRANCH  25  26
ENDBRANCH  23  24
ENDBRANCH  11  23
TORSDOF 6
ENDMDL
MODEL 3
REMARK VINA RESULT:      -5.8      5.435     11.644
REMARK  Name = 60953_Capecitabine.pdbqt.pdb
REMARK  6 active torsions:
REMARK  status: ('A' for Active; 'I' for Inactive)
REMARK    1  A    between atoms: N_4  and  C_16
REMARK    2  A    between atoms: C_11  and  O_23
REMARK    3  A    between atoms: C_14  and  O_19
REMARK    4  A    between atoms: C_15  and  O_21
REMARK    5  A    between atoms: O_23  and  C_24
REMARK    6  A    between atoms: C_25  and  C_26
REMARK                            x       y       z     vdW  Elec       q    Type
REMARK                         _______ _______ _______ _____ _____    ______ ____
ROOT
ATOM      1  F   UNL     1      -0.179  -3.458 -20.882  0.00  0.00    +0.000 F 
ATOM      2  O   UNL     1      -2.596   0.185 -17.785  0.00  0.00    +0.000 OA
ATOM      3  O   UNL     1       2.056   0.139 -18.243  0.00  0.00    +0.000 OA
ATOM      4  N   UNL     1      -2.765  -1.760 -19.045  0.00  0.00    +0.000 N 
ATOM      5  N   UNL     1      -0.647  -0.750 -18.541  0.00  0.00    +0.000 NA
ATOM      6  N   UNL     1       1.312  -1.742 -19.393  0.00  0.00    +0.000 N 
ATOM      7  C   UNL     1      -2.038  -2.692 -19.694  0.00  0.00    +0.000 C 
ATOM      8  C   UNL     1      -2.042  -0.718 -18.409  0.00  0.00    +0.000 C 
ATOM      9  C   UNL     1      -0.769  -2.851 -19.838  0.00  0.00    +0.000 C 
ATOM     10  C   UNL     1      -0.054  -1.699 -19.202  0.00  0.00    +0.000 C 
ATOM     11  C   UNL     1       2.254  -0.845 -18.941  0.00  0.00    +0.000 C 
ATOM     12  H   UNL     1       1.696  -2.494 -19.948  0.00  0.00    +0.000 HD
ENDROOT
BRANCH   4  16
ATOM     13  O   UNL     1      -4.720  -3.185 -18.992  0.00  0.00    +0.000 OA
ATOM     14  C   UNL     1      -5.193  -0.930 -19.091  0.00  0.00    +0.000 A 
ATOM     15  C   UNL     1      -6.429  -1.651 -19.129  0.00  0.00    +0.000 A 
ATOM     16  C   UNL     1      -4.127  -1.904 -19.032  0.00  0.00    +0.000 A 
ATOM     17  C   UNL     1      -6.116  -3.051 -19.053  0.00  0.00    +0.000 A 
ATOM     18  C   UNL     1      -6.962  -4.254 -19.294  0.00  0.00    +0.000 C 
BRANCH  14  19
ATOM     19  O   UNL     1      -5.110   0.294 -19.693  0.00  0.00    +0.000 OA
ATOM     20  H   UNL     1      -5.865   0.461 -20.300  0.00  0.00    +0.000 HD
ENDBRANCH  14  19
BRANCH  15  21
ATOM     21  O   UNL     1      -7.518  -1.150 -19.793  0.00  0.00    +0.000 OA
ATOM     22  H   UNL     1      -7.963  -0.470 -19.252  0.00  0.00    +0.000 HD
ENDBRANCH  15  21
ENDBRANCH   4  16
BRANCH  11  23
ATOM     23  O   UNL     1       3.481  -1.242 -19.393  0.00  0.00    +0.000 OA
BRANCH  23  24
ATOM     24  C   UNL     1       4.482  -0.393 -19.173  0.00  0.00    +0.000 C 
ATOM     25  C   UNL     1       5.633   0.585 -18.917  0.00  0.00    +0.000 C 
BRANCH  25  26
ATOM     26  C   UNL     1       6.783   1.564 -18.660  0.00  0.00    +0.000 C 
ATOM     27  C   UNL     1       7.936   2.537 -18.401  0.00  0.00    +0.000 C 
ATOM     28  C   UNL     1       9.099   3.501 -18.143  0.00  0.00    +0.000 C 
ENDBRANCH  25  26
ENDBRANCH  23  24
ENDBRANCH  11  23
TORSDOF 6
ENDMDL
MODEL 4
REMARK VINA RESULT:      -5.8      2.388      3.475
REMARK  Name = 60953_Capecitabine.pdbqt.pdb
REMARK  6 active torsions:
REMARK  status: ('A' for Active; 'I' for Inactive)
REMARK    1  A    between atoms: N_4  and  C_16
REMARK    2  A    between atoms: C_11  and  O_23
REMARK    3  A    between atoms: C_14  and  O_19
REMARK    4  A    between atoms: C_15  and  O_21
REMARK    5  A    between atoms: O_23  and  C_24
REMARK    6  A    between atoms: C_25  and  C_26
REMARK                            x       y       z     vdW  Elec       q    Type
REMARK                         _______ _______ _______ _____ _____    ______ ____
ROOT
ATOM      1  F   UNL     1       5.931  -1.482 -19.030  0.00  0.00    +0.000 F 
ATOM      2  O   UNL     1       7.407   3.650 -18.594  0.00  0.00    +0.000 OA
ATOM      3  O   UNL     1       2.889   2.448 -18.591  0.00  0.00    +0.000 OA
ATOM      4  N   UNL     1       8.018   1.449 -19.018  0.00  0.00    +0.000 N 
ATOM      5  N   UNL     1       5.721   2.116 -18.818  0.00  0.00    +0.000 NA
ATOM      6  N   UNL     1       4.044   0.473 -19.014  0.00  0.00    +0.000 N 
ATOM      7  C   UNL     1       7.521   0.215 -19.240  0.00  0.00    +0.000 C 
ATOM      8  C   UNL     1       7.073   2.485 -18.802  0.00  0.00    +0.000 C 
ATOM      9  C   UNL     1       6.317  -0.229 -19.327  0.00  0.00    +0.000 C 
ATOM     10  C   UNL     1       5.360   0.886 -19.035  0.00  0.00    +0.000 C 
ATOM     11  C   UNL     1       2.925   1.242 -18.780  0.00  0.00    +0.000 C 
ATOM     12  H   UNL     1       3.845  -0.507 -19.157  0.00  0.00    +0.000 HD
ENDROOT
BRANCH   4  16
ATOM     13  O   UNL     1      10.165   1.278 -17.913  0.00  0.00    +0.000 OA
ATOM     14  C   UNL     1      10.266   2.120 -20.058  0.00  0.00    +0.000 A 
ATOM     15  C   UNL     1      11.586   2.134 -19.506  0.00  0.00    +0.000 A 
ATOM     16  C   UNL     1       9.379   1.607 -19.040  0.00  0.00    +0.000 A 
ATOM     17  C   UNL     1      11.507   1.595 -18.176  0.00  0.00    +0.000 A 
ATOM     18  C   UNL     1      12.497   1.594 -17.063  0.00  0.00    +0.000 C 
BRANCH  14  19
ATOM     19  O   UNL     1       9.925   3.039 -21.009  0.00  0.00    +0.000 OA
ATOM     20  H   UNL     1       9.198   3.630 -20.711  0.00  0.00    +0.000 HD
ENDBRANCH  14  19
BRANCH  15  21
ATOM     21  O   UNL     1      12.502   3.078 -19.889  0.00  0.00    +0.000 OA
ATOM     22  H   UNL     1      13.369   2.900 -19.476  0.00  0.00    +0.000 HD
ENDBRANCH  15  21
ENDBRANCH   4  16
BRANCH  11  23
ATOM     23  O   UNL     1       1.829   0.427 -18.806  0.00  0.00    +0.000 OA
BRANCH  23  24
ATOM     24  C   UNL     1       0.761   0.913 -19.435  0.00  0.00    +0.000 C 
ATOM     25  C   UNL     1      -0.468   1.475 -20.159  0.00  0.00    +0.000 C 
BRANCH  25  26
ATOM     26  C   UNL     1      -1.695   2.039 -20.880  0.00  0.00    +0.000 C 
ATOM     27  C   UNL     1      -2.926   2.603 -21.595  0.00  0.00    +0.000 C 
ATOM     28  C   UNL     1      -4.161   3.175 -22.300  0.00  0.00    +0.000 C 
ENDBRANCH  25  26
ENDBRANCH  23  24
ENDBRANCH  11  23
TORSDOF 6
ENDMDL
MODEL 5
REMARK VINA RESULT:      -5.7     12.235     13.539
REMARK  Name = 60953_Capecitabine.pdbqt.pdb
REMARK  6 active torsions:
REMARK  status: ('A' for Active; 'I' for Inactive)
REMARK    1  A    between atoms: N_4  and  C_16
REMARK    2  A    between atoms: C_11  and  O_23
REMARK    3  A    between atoms: C_14  and  O_19
REMARK    4  A    between atoms: C_15  and  O_21
REMARK    5  A    between atoms: O_23  and  C_24
REMARK    6  A    between atoms: C_25  and  C_26
REMARK                            x       y       z     vdW  Elec       q    Type
REMARK                         _______ _______ _______ _____ _____    ______ ____
ROOT
ATOM      1  F   UNL     1      10.099  13.740 -16.300  0.00  0.00    +0.000 F 
ATOM      2  O   UNL     1      12.298   9.065 -14.883  0.00  0.00    +0.000 OA
ATOM      3  O   UNL     1      12.286  10.450 -19.348  0.00  0.00    +0.000 OA
ATOM      4  N   UNL     1      11.016  10.907 -14.282  0.00  0.00    +0.000 N 
ATOM      5  N   UNL     1      11.675  10.502 -16.553  0.00  0.00    +0.000 NA
ATOM      6  N   UNL     1      11.038  12.051 -18.210  0.00  0.00    +0.000 N 
ATOM      7  C   UNL     1      10.393  11.996 -14.776  0.00  0.00    +0.000 C 
ATOM      8  C   UNL     1      11.698  10.085 -15.216  0.00  0.00    +0.000 C 
ATOM      9  C   UNL     1      10.262  12.446 -15.974  0.00  0.00    +0.000 C 
ATOM     10  C   UNL     1      11.046  11.581 -16.913  0.00  0.00    +0.000 C 
ATOM     11  C   UNL     1      11.652  11.494 -19.310  0.00  0.00    +0.000 C 
ATOM     12  H   UNL     1      10.554  12.916 -18.405  0.00  0.00    +0.000 HD
ENDROOT
BRANCH   4  16
ATOM     13  O   UNL     1      10.370   9.465 -12.448  0.00  0.00    +0.000 OA
ATOM     14  C   UNL     1      11.272  11.484 -11.794  0.00  0.00    +0.000 A 
ATOM     15  C   UNL     1      10.880  10.766 -10.621  0.00  0.00    +0.000 A 
ATOM     16  C   UNL     1      10.923  10.670 -12.935  0.00  0.00    +0.000 A 
ATOM     17  C   UNL     1      10.333   9.506 -11.045  0.00  0.00    +0.000 A 
ATOM     18  C   UNL     1       9.557   8.478 -10.297  0.00  0.00    +0.000 C 
BRANCH  14  19
ATOM     19  O   UNL     1      11.281  12.850 -11.774  0.00  0.00    +0.000 OA
ATOM     20  H   UNL     1      12.185  13.213 -11.639  0.00  0.00    +0.000 HD
ENDBRANCH  14  19
BRANCH  15  21
ATOM     21  O   UNL     1      10.477  11.426  -9.490  0.00  0.00    +0.000 OA
ATOM     22  H   UNL     1      10.381  10.801  -8.746  0.00  0.00    +0.000 HD
ENDBRANCH  15  21
ENDBRANCH   4  16
BRANCH  11  23
ATOM     23  O   UNL     1      11.427  12.305 -20.387  0.00  0.00    +0.000 OA
BRANCH  23  24
ATOM     24  C   UNL     1      11.654  11.760 -21.580  0.00  0.00    +0.000 C 
ATOM     25  C   UNL     1      11.917  11.135 -22.954  0.00  0.00    +0.000 C 
BRANCH  25  26
ATOM     26  C   UNL     1      12.178  10.512 -24.328  0.00  0.00    +0.000 C 
ATOM     27  C   UNL     1      12.445   9.894 -25.703  0.00  0.00    +0.000 C 
ATOM     28  C   UNL     1      12.725   9.279 -27.079  0.00  0.00    +0.000 C 
ENDBRANCH  25  26
ENDBRANCH  23  24
ENDBRANCH  11  23
TORSDOF 6
ENDMDL
MODEL 6
REMARK VINA RESULT:      -5.7      2.275      8.207
REMARK  Name = 60953_Capecitabine.pdbqt.pdb
REMARK  6 active torsions:
REMARK  status: ('A' for Active; 'I' for Inactive)
REMARK    1  A    between atoms: N_4  and  C_16
REMARK    2  A    between atoms: C_11  and  O_23
REMARK    3  A    between atoms: C_14  and  O_19
REMARK    4  A    between atoms: C_15  and  O_21
REMARK    5  A    between atoms: O_23  and  C_24
REMARK    6  A    between atoms: C_25  and  C_26
REMARK                            x       y       z     vdW  Elec       q    Type
REMARK                         _______ _______ _______ _____ _____    ______ ____
ROOT
ATOM      1  F   UNL     1       6.025   0.096 -21.570  0.00  0.00    +0.000 F 
ATOM      2  O   UNL     1       3.380   2.628 -17.659  0.00  0.00    +0.000 OA
ATOM      3  O   UNL     1       7.941   3.389 -18.348  0.00  0.00    +0.000 OA
ATOM      4  N   UNL     1       3.384   0.973 -19.290  0.00  0.00    +0.000 N 
ATOM      5  N   UNL     1       5.373   2.174 -18.691  0.00  0.00    +0.000 NA
ATOM      6  N   UNL     1       7.377   1.686 -19.829  0.00  0.00    +0.000 N 
ATOM      7  C   UNL     1       4.180   0.314 -20.156  0.00  0.00    +0.000 C 
ATOM      8  C   UNL     1       4.002   1.965 -18.486  0.00  0.00    +0.000 C 
ATOM      9  C   UNL     1       5.442   0.383 -20.393  0.00  0.00    +0.000 C 
ATOM     10  C   UNL     1       6.038   1.479 -19.565  0.00  0.00    +0.000 C 
ATOM     11  C   UNL     1       8.217   2.608 -19.246  0.00  0.00    +0.000 C 
ATOM     12  H   UNL     1       7.816   1.129 -20.549  0.00  0.00    +0.000 HD
ENDROOT
BRANCH   4  16
ATOM     13  O   UNL     1       1.056   1.517 -19.672  0.00  0.00    +0.000 OA
ATOM     14  C   UNL     1       1.405  -0.573 -18.760  0.00  0.00    +0.000 A 
ATOM     15  C   UNL     1      -0.006  -0.360 -18.872  0.00  0.00    +0.000 A 
ATOM     16  C   UNL     1       2.060   0.622 -19.240  0.00  0.00    +0.000 A 
ATOM     17  C   UNL     1      -0.204   0.940 -19.453  0.00  0.00    +0.000 A 
ATOM     18  C   UNL     1      -1.430   1.777 -19.575  0.00  0.00    +0.000 C 
BRANCH  14  19
ATOM     19  O   UNL     1       1.885  -1.396 -17.781  0.00  0.00    +0.000 OA
ATOM     20  H   UNL     1       1.338  -1.359 -16.965  0.00  0.00    +0.000 HD
ENDBRANCH  14  19
BRANCH  15  21
ATOM     21  O   UNL     1      -0.880  -0.938 -17.990  0.00  0.00    +0.000 OA
ATOM     22  H   UNL     1      -1.541  -0.286 -17.688  0.00  0.00    +0.000 HD
ENDBRANCH  15  21
ENDBRANCH   4  16
BRANCH  11  23
ATOM     23  O   UNL     1       9.447   2.503 -19.832  0.00  0.00    +0.000 OA
BRANCH  23  24
ATOM     24  C   UNL     1      10.127   1.393 -19.554  0.00  0.00    +0.000 C 
ATOM     25  C   UNL     1      10.911   0.116 -19.233  0.00  0.00    +0.000 C 
BRANCH  25  26
ATOM     26  C   UNL     1      11.696  -1.159 -18.910  0.00  0.00    +0.000 C 
ATOM     27  C   UNL     1      12.486  -2.431 -18.591  0.00  0.00    +0.000 C 
ATOM     28  C   UNL     1      13.289  -3.698 -18.273  0.00  0.00    +0.000 C 
ENDBRANCH  25  26
ENDBRANCH  23  24
ENDBRANCH  11  23
TORSDOF 6
ENDMDL
MODEL 7
REMARK VINA RESULT:      -5.6     13.629     16.481
REMARK  Name = 60953_Capecitabine.pdbqt.pdb
REMARK  6 active torsions:
REMARK  status: ('A' for Active; 'I' for Inactive)
REMARK    1  A    between atoms: N_4  and  C_16
REMARK    2  A    between atoms: C_11  and  O_23
REMARK    3  A    between atoms: C_14  and  O_19
REMARK    4  A    between atoms: C_15  and  O_21
REMARK    5  A    between atoms: O_23  and  C_24
REMARK    6  A    between atoms: C_25  and  C_26
REMARK                            x       y       z     vdW  Elec       q    Type
REMARK                         _______ _______ _______ _____ _____    ______ ____
ROOT
ATOM      1  F   UNL     1      15.040  -5.408 -10.944  0.00  0.00    +0.000 F 
ATOM      2  O   UNL     1      13.759  -2.323  -6.756  0.00  0.00    +0.000 OA
ATOM      3  O   UNL     1      17.451  -1.307  -9.439  0.00  0.00    +0.000 OA
ATOM      4  N   UNL     1      13.412  -4.294  -7.935  0.00  0.00    +0.000 N 
ATOM      5  N   UNL     1      15.224  -2.806  -8.449  0.00  0.00    +0.000 NA
ATOM      6  N   UNL     1      16.661  -3.346 -10.235  0.00  0.00    +0.000 N 
ATOM      7  C   UNL     1      13.903  -5.053  -8.936  0.00  0.00    +0.000 C 
ATOM      8  C   UNL     1      14.110  -3.093  -7.647  0.00  0.00    +0.000 C 
ATOM      9  C   UNL     1      14.932  -4.920  -9.697  0.00  0.00    +0.000 C 
ATOM     10  C   UNL     1      15.599  -3.614  -9.396  0.00  0.00    +0.000 C 
ATOM     11  C   UNL     1      17.482  -2.241 -10.226  0.00  0.00    +0.000 C 
ATOM     12  H   UNL     1      16.871  -4.007 -10.970  0.00  0.00    +0.000 HD
ENDROOT
BRANCH   4  16
ATOM     13  O   UNL     1      12.388  -5.154  -5.918  0.00  0.00    +0.000 OA
ATOM     14  C   UNL     1      10.943  -4.954  -7.704  0.00  0.00    +0.000 A 
ATOM     15  C   UNL     1      10.226  -5.529  -6.607  0.00  0.00    +0.000 A 
ATOM     16  C   UNL     1      12.305  -4.749  -7.268  0.00  0.00    +0.000 A 
ATOM     17  C   UNL     1      11.137  -5.634  -5.501  0.00  0.00    +0.000 A 
ATOM     18  C   UNL     1      11.021  -6.366  -4.208  0.00  0.00    +0.000 C 
BRANCH  14  19
ATOM     19  O   UNL     1      10.560  -5.243  -8.983  0.00  0.00    +0.000 OA
ATOM     20  H   UNL     1      10.632  -4.463  -9.577  0.00  0.00    +0.000 HD
ENDBRANCH  14  19
BRANCH  15  21
ATOM     21  O   UNL     1       9.185  -6.395  -6.819  0.00  0.00    +0.000 OA
ATOM     22  H   UNL     1       9.021  -6.932  -6.021  0.00  0.00    +0.000 HD
ENDBRANCH  15  21
ENDBRANCH   4  16
BRANCH  11  23
ATOM     23  O   UNL     1      18.375  -2.358 -11.255  0.00  0.00    +0.000 OA
BRANCH  23  24
ATOM     24  C   UNL     1      19.161  -1.304 -11.463  0.00  0.00    +0.000 C 
ATOM     25  C   UNL     1      20.067  -0.091 -11.699  0.00  0.00    +0.000 C 
BRANCH  25  26
ATOM     26  C   UNL     1      20.973   1.121 -11.933  0.00  0.00    +0.000 C 
ATOM     27  C   UNL     1      21.881   2.333 -12.161  0.00  0.00    +0.000 C 
ATOM     28  C   UNL     1      22.798   3.541 -12.380  0.00  0.00    +0.000 C 
ENDBRANCH  25  26
ENDBRANCH  23  24
ENDBRANCH  11  23
TORSDOF 6
ENDMDL
MODEL 8
REMARK VINA RESULT:      -5.6     14.409     19.369
REMARK  Name = 60953_Capecitabine.pdbqt.pdb
REMARK  6 active torsions:
REMARK  status: ('A' for Active; 'I' for Inactive)
REMARK    1  A    between atoms: N_4  and  C_16
REMARK    2  A    between atoms: C_11  and  O_23
REMARK    3  A    between atoms: C_14  and  O_19
REMARK    4  A    between atoms: C_15  and  O_21
REMARK    5  A    between atoms: O_23  and  C_24
REMARK    6  A    between atoms: C_25  and  C_26
REMARK                            x       y       z     vdW  Elec       q    Type
REMARK                         _______ _______ _______ _____ _____    ______ ____
ROOT
ATOM      1  F   UNL     1      -9.583  -4.893 -21.684  0.00  0.00    +0.000 F 
ATOM      2  O   UNL     1     -13.191  -1.372 -23.495  0.00  0.00    +0.000 OA
ATOM      3  O   UNL     1     -11.434  -0.995 -19.179  0.00  0.00    +0.000 OA
ATOM      4  N   UNL     1     -12.055  -3.374 -23.810  0.00  0.00    +0.000 N 
ATOM      5  N   UNL     1     -11.926  -2.148 -21.751  0.00  0.00    +0.000 NA
ATOM      6  N   UNL     1     -10.566  -2.984 -20.019  0.00  0.00    +0.000 N 
ATOM      7  C   UNL     1     -11.239  -4.258 -23.202  0.00  0.00    +0.000 C 
ATOM      8  C   UNL     1     -12.447  -2.242 -23.049  0.00  0.00    +0.000 C 
ATOM      9  C   UNL     1     -10.744  -4.303 -22.016  0.00  0.00    +0.000 C 
ATOM     10  C   UNL     1     -11.136  -3.063 -21.273  0.00  0.00    +0.000 C 
ATOM     11  C   UNL     1     -10.722  -1.984 -19.086  0.00  0.00    +0.000 C 
ATOM     12  H   UNL     1      -9.935  -3.719 -19.731  0.00  0.00    +0.000 HD
ENDROOT
BRANCH   4  16
ATOM     13  O   UNL     1     -13.569  -4.478 -25.343  0.00  0.00    +0.000 OA
ATOM     14  C   UNL     1     -11.908  -3.251 -26.369  0.00  0.00    +0.000 A 
ATOM     15  C   UNL     1     -12.684  -3.896 -27.384  0.00  0.00    +0.000 A 
ATOM     16  C   UNL     1     -12.456  -3.646 -25.092  0.00  0.00    +0.000 A 
ATOM     17  C   UNL     1     -13.721  -4.644 -26.728  0.00  0.00    +0.000 A 
ATOM     18  C   UNL     1     -14.652  -5.684 -27.249  0.00  0.00    +0.000 C 
BRANCH  14  19
ATOM     19  O   UNL     1     -10.594  -2.965 -26.609  0.00  0.00    +0.000 OA
ATOM     20  H   UNL     1     -10.480  -2.348 -27.366  0.00  0.00    +0.000 HD
ENDBRANCH  14  19
BRANCH  15  21
ATOM     21  O   UNL     1     -12.120  -4.264 -28.577  0.00  0.00    +0.000 OA
ATOM     22  H   UNL     1     -12.359  -3.628 -29.278  0.00  0.00    +0.000 HD
ENDBRANCH  15  21
ENDBRANCH   4  16
BRANCH  11  23
ATOM     23  O   UNL     1      -9.946  -2.281 -18.001  0.00  0.00    +0.000 OA
BRANCH  23  24
ATOM     24  C   UNL     1      -8.631  -2.283 -18.212  0.00  0.00    +0.000 C 
ATOM     25  C   UNL     1      -7.118  -2.285 -18.452  0.00  0.00    +0.000 C 
BRANCH  25  26
ATOM     26  C   UNL     1      -5.605  -2.287 -18.691  0.00  0.00    +0.000 C 
ATOM     27  C   UNL     1      -4.092  -2.289 -18.922  0.00  0.00    +0.000 C 
ATOM     28  C   UNL     1      -2.575  -2.297 -19.143  0.00  0.00    +0.000 C 
ENDBRANCH  25  26
ENDBRANCH  23  24
ENDBRANCH  11  23
TORSDOF 6
ENDMDL
MODEL 9
REMARK VINA RESULT:      -5.5     13.807     16.630
REMARK  Name = 60953_Capecitabine.pdbqt.pdb
REMARK  6 active torsions:
REMARK  status: ('A' for Active; 'I' for Inactive)
REMARK    1  A    between atoms: N_4  and  C_16
REMARK    2  A    between atoms: C_11  and  O_23
REMARK    3  A    between atoms: C_14  and  O_19
REMARK    4  A    between atoms: C_15  and  O_21
REMARK    5  A    between atoms: O_23  and  C_24
REMARK    6  A    between atoms: C_25  and  C_26
REMARK                            x       y       z     vdW  Elec       q    Type
REMARK                         _______ _______ _______ _____ _____    ______ ____
ROOT
ATOM      1  F   UNL     1      16.033  -4.794  -6.728  0.00  0.00    +0.000 F 
ATOM      2  O   UNL     1      11.198  -5.693  -8.852  0.00  0.00    +0.000 OA
ATOM      3  O   UNL     1      14.924  -4.992 -11.588  0.00  0.00    +0.000 OA
ATOM      4  N   UNL     1      12.472  -5.250  -6.961  0.00  0.00    +0.000 N 
ATOM      5  N   UNL     1      13.401  -5.154  -9.172  0.00  0.00    +0.000 NA
ATOM      6  N   UNL     1      15.686  -4.640  -9.418  0.00  0.00    +0.000 N 
ATOM      7  C   UNL     1      13.707  -4.898  -6.550  0.00  0.00    +0.000 C 
ATOM      8  C   UNL     1      12.280  -5.381  -8.361  0.00  0.00    +0.000 C 
ATOM      9  C   UNL     1      14.785  -4.618  -7.194  0.00  0.00    +0.000 C 
ATOM     10  C   UNL     1      14.550  -4.827  -8.659  0.00  0.00    +0.000 C 
ATOM     11  C   UNL     1      15.812  -4.751 -10.785  0.00  0.00    +0.000 C 
ATOM     12  H   UNL     1      16.551  -4.420  -8.943  0.00  0.00    +0.000 HD
ENDROOT
BRANCH   4  16
ATOM     13  O   UNL     1      11.690  -6.352  -4.953  0.00  0.00    +0.000 OA
ATOM     14  C   UNL     1      10.194  -4.845  -5.852  0.00  0.00    +0.000 A 
ATOM     15  C   UNL     1       9.582  -5.463  -4.716  0.00  0.00    +0.000 A 
ATOM     16  C   UNL     1      11.505  -5.430  -6.007  0.00  0.00    +0.000 A 
ATOM     17  C   UNL     1      10.531  -6.388  -4.161  0.00  0.00    +0.000 A 
ATOM     18  C   UNL     1      10.365  -7.467  -3.146  0.00  0.00    +0.000 C 
BRANCH  14  19
ATOM     19  O   UNL     1       9.409  -4.389  -6.873  0.00  0.00    +0.000 OA
ATOM     20  H   UNL     1       9.928  -3.902  -7.551  0.00  0.00    +0.000 HD
ENDBRANCH  14  19
BRANCH  15  21
ATOM     21  O   UNL     1       8.224  -5.640  -4.653  0.00  0.00    +0.000 OA
ATOM     22  H   UNL     1       7.825  -4.996  -4.037  0.00  0.00    +0.000 HD
ENDBRANCH  15  21
ENDBRANCH   4  16
BRANCH  11  23
ATOM     23  O   UNL     1      17.119  -4.527 -11.117  0.00  0.00    +0.000 OA
BRANCH  23  24
ATOM     24  C   UNL     1      17.562  -3.286 -10.926  0.00  0.00    +0.000 C 
ATOM     25  C   UNL     1      18.071  -1.858 -10.709  0.00  0.00    +0.000 C 
BRANCH  25  26
ATOM     26  C   UNL     1      18.583  -0.430 -10.493  0.00  0.00    +0.000 C 
ATOM     27  C   UNL     1      19.087   0.999 -10.278  0.00  0.00    +0.000 C 
ATOM     28  C   UNL     1      19.580   2.434 -10.060  0.00  0.00    +0.000 C 
ENDBRANCH  25  26
ENDBRANCH  23  24
ENDBRANCH  11  23
TORSDOF 6
ENDMDL
