REMARK  Name = 6223_Gliotoxin.pdbqt.pdb
REMARK  3 active torsions:
REMARK  status: ('A' for Active; 'I' for Inactive)
REMARK    1  A    between atoms: C_10  and  C_21
REMARK    2  A    between atoms: C_14  and  O_19
REMARK    3  A    between atoms: C_21  and  O_22
REMARK                            x       y       z     vdW  Elec       q    Type
REMARK                         _______ _______ _______ _____ _____    ______ ____
ROOT
ATOM      1  S   UNL     1      -0.507   1.161   2.212  0.00  0.00    +0.000 S 
ATOM      2  S   UNL     1      -1.961  -0.304   2.196  0.00  0.00    +0.000 S 
ATOM      3  O   UNL     1      -0.214  -2.332  -0.249  0.00  0.00    +0.000 OA
ATOM      4  O   UNL     1      -1.600   2.710  -0.794  0.00  0.00    +0.000 OA
ATOM      5  N   UNL     1       0.333  -0.107  -0.064  0.00  0.00    +0.000 N 
ATOM      6  N   UNL     1      -2.292   0.492  -0.430  0.00  0.00    +0.000 N 
ATOM      7  C   UNL     1      -0.110   1.233   0.432  0.00  0.00    +0.000 C 
ATOM      8  C   UNL     1       1.667  -0.083  -0.473  0.00  0.00    +0.000 A 
ATOM      9  C   UNL     1       1.071   2.046   0.153  0.00  0.00    +0.000 C 
ATOM     10  C   UNL     1      -2.002  -0.737   0.380  0.00  0.00    +0.000 C 
ATOM     11  C   UNL     1       2.137   1.346  -0.429  0.00  0.00    +0.000 A 
ATOM     12  C   UNL     1      -0.557  -1.173  -0.023  0.00  0.00    +0.000 C 
ATOM     13  C   UNL     1      -1.378   1.582  -0.350  0.00  0.00    +0.000 C 
ATOM     14  C   UNL     1       2.653  -1.188  -0.528  0.00  0.00    +0.000 A 
ATOM     15  C   UNL     1       3.412   1.465  -0.195  0.00  0.00    +0.000 A 
ATOM     16  C   UNL     1       3.994  -0.707  -0.336  0.00  0.00    +0.000 A 
ATOM     17  C   UNL     1      -3.583   0.560  -1.114  0.00  0.00    +0.000 C 
ATOM     18  C   UNL     1       4.493   0.373  -0.161  0.00  0.00    +0.000 A 
ENDROOT
BRANCH  14  19
ATOM     19  O   UNL     1       2.331  -2.485  -0.250  0.00  0.00    +0.000 OA
ATOM     20  H   UNL     1       1.371  -2.665  -0.313  0.00  0.00    +0.000 HD
ENDBRANCH  14  19
BRANCH  10  21
ATOM     21  C   UNL     1      -2.962  -1.856   0.182  0.00  0.00    +0.000 C 
BRANCH  21  22
ATOM     22  O   UNL     1      -3.836  -2.852   0.016  0.00  0.00    +0.000 OA
ATOM     23  H   UNL     1      -4.601  -2.566  -0.518  0.00  0.00    +0.000 HD
ENDBRANCH  21  22
ENDBRANCH  10  21
TORSDOF 3
