MODEL 1
REMARK VINA RESULT:      -6.0      0.000      0.000
REMARK  Name = 6223_Gliotoxin.pdbqt.pdb
REMARK  3 active torsions:
REMARK  status: ('A' for Active; 'I' for Inactive)
REMARK    1  A    between atoms: C_10  and  C_21
REMARK    2  A    between atoms: C_14  and  O_19
REMARK    3  A    between atoms: C_21  and  O_22
REMARK                            x       y       z     vdW  Elec       q    Type
REMARK                         _______ _______ _______ _____ _____    ______ ____
ROOT
ATOM      1  S   UNL     1       1.104  -1.387 -18.964  0.00  0.00    +0.000 S 
ATOM      2  S   UNL     1       1.899   0.499 -19.234  0.00  0.00    +0.000 S 
ATOM      3  O   UNL     1      -1.315   2.147 -18.927  0.00  0.00    +0.000 OA
ATOM      4  O   UNL     1      -0.089  -1.697 -22.297  0.00  0.00    +0.000 OA
ATOM      5  N   UNL     1      -1.266  -0.097 -19.423  0.00  0.00    +0.000 N 
ATOM      6  N   UNL     1       0.355   0.480 -21.526  0.00  0.00    +0.000 N 
ATOM      7  C   UNL     1      -0.431  -1.226 -19.938  0.00  0.00    +0.000 C 
ATOM      8  C   UNL     1      -2.472  -0.556 -18.892  0.00  0.00    +0.000 A 
ATOM      9  C   UNL     1      -1.335  -2.358 -19.751  0.00  0.00    +0.000 C 
ATOM     10  C   UNL     1       0.573   1.291 -20.283  0.00  0.00    +0.000 C 
ATOM     11  C   UNL     1      -2.576  -2.028 -19.188  0.00  0.00    +0.000 A 
ATOM     12  C   UNL     1      -0.765   1.198 -19.483  0.00  0.00    +0.000 C 
ATOM     13  C   UNL     1      -0.073  -0.871 -21.382  0.00  0.00    +0.000 C 
ATOM     14  C   UNL     1      -3.334   0.055 -17.853  0.00  0.00    +0.000 A 
ATOM     15  C   UNL     1      -3.269  -2.686 -18.305  0.00  0.00    +0.000 A 
ATOM     16  C   UNL     1      -4.055  -0.944 -17.112  0.00  0.00    +0.000 A 
ATOM     17  C   UNL     1       0.762   1.074 -22.799  0.00  0.00    +0.000 C 
ATOM     18  C   UNL     1      -4.131  -2.143 -17.154  0.00  0.00    +0.000 A 
ENDROOT
BRANCH  14  19
ATOM     19  O   UNL     1      -3.085   1.282 -17.308  0.00  0.00    +0.000 OA
ATOM     20  H   UNL     1      -3.158   1.292 -16.332  0.00  0.00    +0.000 HD
ENDBRANCH  14  19
BRANCH  10  21
ATOM     21  C   UNL     1       0.944   2.712 -20.521  0.00  0.00    +0.000 C 
BRANCH  21  22
ATOM     22  O   UNL     1       1.290   3.986 -20.722  0.00  0.00    +0.000 OA
ATOM     23  H   UNL     1       1.505   4.430 -19.880  0.00  0.00    +0.000 HD
ENDBRANCH  21  22
ENDBRANCH  10  21
TORSDOF 3
ENDMDL
MODEL 2
REMARK VINA RESULT:      -5.8     12.536     13.230
REMARK  Name = 6223_Gliotoxin.pdbqt.pdb
REMARK  3 active torsions:
REMARK  status: ('A' for Active; 'I' for Inactive)
REMARK    1  A    between atoms: C_10  and  C_21
REMARK    2  A    between atoms: C_14  and  O_19
REMARK    3  A    between atoms: C_21  and  O_22
REMARK                            x       y       z     vdW  Elec       q    Type
REMARK                         _______ _______ _______ _____ _____    ______ ____
ROOT
ATOM      1  S   UNL     1       9.596  -0.649 -20.463  0.00  0.00    +0.000 S 
ATOM      2  S   UNL     1       9.553  -2.704 -20.276  0.00  0.00    +0.000 S 
ATOM      3  O   UNL     1      11.212  -2.674 -17.053  0.00  0.00    +0.000 OA
ATOM      4  O   UNL     1      12.993  -0.508 -21.500  0.00  0.00    +0.000 OA
ATOM      5  N   UNL     1      11.397  -0.827 -18.409  0.00  0.00    +0.000 N 
ATOM      6  N   UNL     1      12.304  -2.459 -20.383  0.00  0.00    +0.000 N 
ATOM      7  C   UNL     1      11.264  -0.306 -19.805  0.00  0.00    +0.000 C 
ATOM      8  C   UNL     1      11.577   0.210 -17.493  0.00  0.00    +0.000 A 
ATOM      9  C   UNL     1      11.504   1.121 -19.601  0.00  0.00    +0.000 C 
ATOM     10  C   UNL     1      11.224  -3.021 -19.505  0.00  0.00    +0.000 C 
ATOM     11  C   UNL     1      11.748   1.487 -18.271  0.00  0.00    +0.000 A 
ATOM     12  C   UNL     1      11.287  -2.193 -18.182  0.00  0.00    +0.000 C 
ATOM     13  C   UNL     1      12.298  -1.058 -20.644  0.00  0.00    +0.000 C 
ATOM     14  C   UNL     1      11.243   0.259 -16.050  0.00  0.00    +0.000 A 
ATOM     15  C   UNL     1      11.336   2.543 -17.630  0.00  0.00    +0.000 A 
ATOM     16  C   UNL     1      10.934   1.597 -15.625  0.00  0.00    +0.000 A 
ATOM     17  C   UNL     1      13.190  -3.409 -21.054  0.00  0.00    +0.000 C 
ATOM     18  C   UNL     1      10.903   2.673 -16.161  0.00  0.00    +0.000 A 
ENDROOT
BRANCH  14  19
ATOM     19  O   UNL     1      10.763  -0.819 -15.362  0.00  0.00    +0.000 OA
ATOM     20  H   UNL     1      11.136  -1.669 -15.672  0.00  0.00    +0.000 HD
ENDBRANCH  14  19
BRANCH  10  21
ATOM     21  C   UNL     1      11.346  -4.476 -19.220  0.00  0.00    +0.000 C 
BRANCH  21  22
ATOM     22  O   UNL     1      11.473  -5.780 -18.963  0.00  0.00    +0.000 OA
ATOM     23  H   UNL     1      11.291  -5.975 -18.025  0.00  0.00    +0.000 HD
ENDBRANCH  21  22
ENDBRANCH  10  21
TORSDOF 3
ENDMDL
MODEL 3
REMARK VINA RESULT:      -5.6     12.677     13.685
REMARK  Name = 6223_Gliotoxin.pdbqt.pdb
REMARK  3 active torsions:
REMARK  status: ('A' for Active; 'I' for Inactive)
REMARK    1  A    between atoms: C_10  and  C_21
REMARK    2  A    between atoms: C_14  and  O_19
REMARK    3  A    between atoms: C_21  and  O_22
REMARK                            x       y       z     vdW  Elec       q    Type
REMARK                         _______ _______ _______ _____ _____    ______ ____
ROOT
ATOM      1  S   UNL     1      10.508   0.916 -21.086  0.00  0.00    +0.000 S 
ATOM      2  S   UNL     1      10.969  -0.857 -22.037  0.00  0.00    +0.000 S 
ATOM      3  O   UNL     1      12.174  -2.436 -19.005  0.00  0.00    +0.000 OA
ATOM      4  O   UNL     1      13.854   2.114 -21.035  0.00  0.00    +0.000 OA
ATOM      5  N   UNL     1      12.040  -0.142 -19.079  0.00  0.00    +0.000 N 
ATOM      6  N   UNL     1      13.559  -0.201 -21.331  0.00  0.00    +0.000 N 
ATOM      7  C   UNL     1      11.943   1.058 -19.967  0.00  0.00    +0.000 C 
ATOM      8  C   UNL     1      11.840   0.198 -17.740  0.00  0.00    +0.000 A 
ATOM      9  C   UNL     1      11.786   2.128 -18.986  0.00  0.00    +0.000 C 
ATOM     10  C   UNL     1      12.563  -1.312 -21.178  0.00  0.00    +0.000 C 
ATOM     11  C   UNL     1      11.770   1.698 -17.652  0.00  0.00    +0.000 A 
ATOM     12  C   UNL     1      12.256  -1.391 -19.648  0.00  0.00    +0.000 C 
ATOM     13  C   UNL     1      13.227   1.079 -20.800  0.00  0.00    +0.000 C 
ATOM     14  C   UNL     1      11.338  -0.637 -16.624  0.00  0.00    +0.000 A 
ATOM     15  C   UNL     1      11.031   2.125 -16.669  0.00  0.00    +0.000 A 
ATOM     16  C   UNL     1      10.651   0.157 -15.641  0.00  0.00    +0.000 A 
ATOM     17  C   UNL     1      14.731  -0.456 -22.168  0.00  0.00    +0.000 C 
ATOM     18  C   UNL     1      10.409   1.327 -15.512  0.00  0.00    +0.000 A 
ENDROOT
BRANCH  14  19
ATOM     19  O   UNL     1      11.072  -1.969 -16.754  0.00  0.00    +0.000 OA
ATOM     20  H   UNL     1      10.883  -2.409 -15.900  0.00  0.00    +0.000 HD
ENDBRANCH  14  19
BRANCH  10  21
ATOM     21  C   UNL     1      13.017  -2.632 -21.691  0.00  0.00    +0.000 C 
BRANCH  21  22
ATOM     22  O   UNL     1      13.442  -3.812 -22.149  0.00  0.00    +0.000 OA
ATOM     23  H   UNL     1      14.164  -4.167 -21.596  0.00  0.00    +0.000 HD
ENDBRANCH  21  22
ENDBRANCH  10  21
TORSDOF 3
ENDMDL
MODEL 4
REMARK VINA RESULT:      -5.5      2.684      3.927
REMARK  Name = 6223_Gliotoxin.pdbqt.pdb
REMARK  3 active torsions:
REMARK  status: ('A' for Active; 'I' for Inactive)
REMARK    1  A    between atoms: C_10  and  C_21
REMARK    2  A    between atoms: C_14  and  O_19
REMARK    3  A    between atoms: C_21  and  O_22
REMARK                            x       y       z     vdW  Elec       q    Type
REMARK                         _______ _______ _______ _____ _____    ______ ____
ROOT
ATOM      1  S   UNL     1       0.859   0.743 -21.840  0.00  0.00    +0.000 S 
ATOM      2  S   UNL     1       2.386  -0.615 -21.546  0.00  0.00    +0.000 S 
ATOM      3  O   UNL     1       0.783  -2.141 -18.674  0.00  0.00    +0.000 OA
ATOM      4  O   UNL     1       1.922   2.957 -19.271  0.00  0.00    +0.000 OA
ATOM      5  N   UNL     1       0.122  -0.037 -19.321  0.00  0.00    +0.000 N 
ATOM      6  N   UNL     1       2.719   0.747 -19.164  0.00  0.00    +0.000 N 
ATOM      7  C   UNL     1       0.488   1.182 -20.107  0.00  0.00    +0.000 C 
ATOM      8  C   UNL     1      -1.205   0.015 -18.892  0.00  0.00    +0.000 A 
ATOM      9  C   UNL     1      -0.727   1.982 -19.979  0.00  0.00    +0.000 C 
ATOM     10  C   UNL     1       2.478  -0.641 -19.681  0.00  0.00    +0.000 C 
ATOM     11  C   UNL     1      -1.747   1.377 -19.231  0.00  0.00    +0.000 A 
ATOM     12  C   UNL     1       1.064  -1.044 -19.155  0.00  0.00    +0.000 C 
ATOM     13  C   UNL     1       1.750   1.751 -19.454  0.00  0.00    +0.000 C 
ATOM     14  C   UNL     1      -2.133  -1.096 -18.572  0.00  0.00    +0.000 A 
ATOM     15  C   UNL     1      -3.030   1.384 -19.451  0.00  0.00    +0.000 A 
ATOM     16  C   UNL     1      -3.499  -0.730 -18.828  0.00  0.00    +0.000 A 
ATOM     17  C   UNL     1       4.016   1.021 -18.546  0.00  0.00    +0.000 C 
ATOM     18  C   UNL     1      -4.055   0.262 -19.219  0.00  0.00    +0.000 A 
ENDROOT
BRANCH  14  19
ATOM     19  O   UNL     1      -1.750  -2.406 -18.572  0.00  0.00    +0.000 OA
ATOM     20  H   UNL     1      -2.506  -3.027 -18.535  0.00  0.00    +0.000 HD
ENDBRANCH  14  19
BRANCH  10  21
ATOM     21  C   UNL     1       3.496  -1.645 -19.272  0.00  0.00    +0.000 C 
BRANCH  21  22
ATOM     22  O   UNL     1       4.409  -2.540 -18.886  0.00  0.00    +0.000 OA
ATOM     23  H   UNL     1       5.310  -2.168 -18.927  0.00  0.00    +0.000 HD
ENDBRANCH  21  22
ENDBRANCH  10  21
TORSDOF 3
ENDMDL
MODEL 5
REMARK VINA RESULT:      -5.5      2.712      4.908
REMARK  Name = 6223_Gliotoxin.pdbqt.pdb
REMARK  3 active torsions:
REMARK  status: ('A' for Active; 'I' for Inactive)
REMARK    1  A    between atoms: C_10  and  C_21
REMARK    2  A    between atoms: C_14  and  O_19
REMARK    3  A    between atoms: C_21  and  O_22
REMARK                            x       y       z     vdW  Elec       q    Type
REMARK                         _______ _______ _______ _____ _____    ______ ____
ROOT
ATOM      1  S   UNL     1      -0.946  -2.343 -21.533  0.00  0.00    +0.000 S 
ATOM      2  S   UNL     1      -2.489  -0.975 -21.442  0.00  0.00    +0.000 S 
ATOM      3  O   UNL     1      -0.843   1.057 -18.932  0.00  0.00    +0.000 OA
ATOM      4  O   UNL     1      -1.902  -4.080 -18.584  0.00  0.00    +0.000 OA
ATOM      5  N   UNL     1      -0.159  -1.119 -19.215  0.00  0.00    +0.000 N 
ATOM      6  N   UNL     1      -2.737  -1.898 -18.848  0.00  0.00    +0.000 N 
ATOM      7  C   UNL     1      -0.523  -2.463 -19.762  0.00  0.00    +0.000 C 
ATOM      8  C   UNL     1       1.179  -1.075 -18.820  0.00  0.00    +0.000 A 
ATOM      9  C   UNL     1       0.710  -3.210 -19.528  0.00  0.00    +0.000 C 
ATOM     10  C   UNL     1      -2.534  -0.620 -19.609  0.00  0.00    +0.000 C 
ATOM     11  C   UNL     1       1.737  -2.469 -18.928  0.00  0.00    +0.000 A 
ATOM     12  C   UNL     1      -1.115  -0.111 -19.202  0.00  0.00    +0.000 C 
ATOM     13  C   UNL     1      -1.757  -2.923 -18.982  0.00  0.00    +0.000 C 
ATOM     14  C   UNL     1       2.094   0.087 -18.729  0.00  0.00    +0.000 A 
ATOM     15  C   UNL     1       3.014  -2.497 -19.179  0.00  0.00    +0.000 A 
ATOM     16  C   UNL     1       3.460  -0.300 -18.954  0.00  0.00    +0.000 A 
ATOM     17  C   UNL     1      -4.012  -2.075 -18.155  0.00  0.00    +0.000 C 
ATOM     18  C   UNL     1       4.024  -1.338 -19.178  0.00  0.00    +0.000 A 
ENDROOT
BRANCH  14  19
ATOM     19  O   UNL     1       1.688   1.371 -18.949  0.00  0.00    +0.000 OA
ATOM     20  H   UNL     1       2.087   1.769 -19.749  0.00  0.00    +0.000 HD
ENDBRANCH  14  19
BRANCH  10  21
ATOM     21  C   UNL     1      -3.560   0.426 -19.355  0.00  0.00    +0.000 C 
BRANCH  21  22
ATOM     22  O   UNL     1      -4.487   1.357 -19.112  0.00  0.00    +0.000 OA
ATOM     23  H   UNL     1      -4.149   2.043 -18.506  0.00  0.00    +0.000 HD
ENDBRANCH  21  22
ENDBRANCH  10  21
TORSDOF 3
ENDMDL
MODEL 6
REMARK VINA RESULT:      -5.4      2.749      4.347
REMARK  Name = 6223_Gliotoxin.pdbqt.pdb
REMARK  3 active torsions:
REMARK  status: ('A' for Active; 'I' for Inactive)
REMARK    1  A    between atoms: C_10  and  C_21
REMARK    2  A    between atoms: C_14  and  O_19
REMARK    3  A    between atoms: C_21  and  O_22
REMARK                            x       y       z     vdW  Elec       q    Type
REMARK                         _______ _______ _______ _____ _____    ______ ____
ROOT
ATOM      1  S   UNL     1       0.400  -0.516 -21.496  0.00  0.00    +0.000 S 
ATOM      2  S   UNL     1       1.174  -2.430 -21.523  0.00  0.00    +0.000 S 
ATOM      3  O   UNL     1      -1.292  -3.705 -19.192  0.00  0.00    +0.000 OA
ATOM      4  O   UNL     1       1.919   0.384 -18.412  0.00  0.00    +0.000 OA
ATOM      5  N   UNL     1      -0.931  -1.437 -19.288  0.00  0.00    +0.000 N 
ATOM      6  N   UNL     1       1.710  -1.915 -18.861  0.00  0.00    +0.000 N 
ATOM      7  C   UNL     1       0.010  -0.357 -19.720  0.00  0.00    +0.000 C 
ATOM      8  C   UNL     1      -2.163  -0.912 -18.897  0.00  0.00    +0.000 A 
ATOM      9  C   UNL     1      -0.772   0.840 -19.423  0.00  0.00    +0.000 C 
ATOM     10  C   UNL     1       0.991  -2.907 -19.727  0.00  0.00    +0.000 C 
ATOM     11  C   UNL     1      -2.043   0.588 -18.886  0.00  0.00    +0.000 A 
ATOM     12  C   UNL     1      -0.521  -2.762 -19.363  0.00  0.00    +0.000 C 
ATOM     13  C   UNL     1       1.291  -0.554 -18.907  0.00  0.00    +0.000 C 
ATOM     14  C   UNL     1      -3.501  -1.550 -18.903  0.00  0.00    +0.000 A 
ATOM     15  C   UNL     1      -3.165   1.200 -19.132  0.00  0.00    +0.000 A 
ATOM     16  C   UNL     1      -4.545  -0.580 -19.092  0.00  0.00    +0.000 A 
ATOM     17  C   UNL     1       2.906  -2.376 -18.158  0.00  0.00    +0.000 C 
ATOM     18  C   UNL     1      -4.583   0.614 -19.228  0.00  0.00    +0.000 A 
ENDROOT
BRANCH  14  19
ATOM     19  O   UNL     1      -3.697  -2.860 -19.232  0.00  0.00    +0.000 OA
ATOM     20  H   UNL     1      -4.165  -3.365 -18.536  0.00  0.00    +0.000 HD
ENDBRANCH  14  19
BRANCH  10  21
ATOM     21  C   UNL     1       1.438  -4.316 -19.564  0.00  0.00    +0.000 C 
BRANCH  21  22
ATOM     22  O   UNL     1       1.820  -5.588 -19.420  0.00  0.00    +0.000 OA
ATOM     23  H   UNL     1       2.064  -5.781 -18.495  0.00  0.00    +0.000 HD
ENDBRANCH  21  22
ENDBRANCH  10  21
TORSDOF 3
ENDMDL
MODEL 7
REMARK VINA RESULT:      -5.1     15.917     17.220
REMARK  Name = 6223_Gliotoxin.pdbqt.pdb
REMARK  3 active torsions:
REMARK  status: ('A' for Active; 'I' for Inactive)
REMARK    1  A    between atoms: C_10  and  C_21
REMARK    2  A    between atoms: C_14  and  O_19
REMARK    3  A    between atoms: C_21  and  O_22
REMARK                            x       y       z     vdW  Elec       q    Type
REMARK                         _______ _______ _______ _____ _____    ______ ____
ROOT
ATOM      1  S   UNL     1      -5.429  17.714 -19.270  0.00  0.00    +0.000 S 
ATOM      2  S   UNL     1      -7.283  18.273 -18.555  0.00  0.00    +0.000 S 
ATOM      3  O   UNL     1      -7.122  16.021 -15.718  0.00  0.00    +0.000 OA
ATOM      4  O   UNL     1      -6.578  14.709 -20.780  0.00  0.00    +0.000 OA
ATOM      5  N   UNL     1      -5.743  15.635 -17.517  0.00  0.00    +0.000 N 
ATOM      6  N   UNL     1      -7.943  15.648 -19.111  0.00  0.00    +0.000 N 
ATOM      7  C   UNL     1      -5.502  15.916 -18.966  0.00  0.00    +0.000 C 
ATOM      8  C   UNL     1      -4.652  14.989 -16.934  0.00  0.00    +0.000 A 
ATOM      9  C   UNL     1      -4.214  15.259 -19.174  0.00  0.00    +0.000 C 
ATOM     10  C   UNL     1      -7.946  16.627 -17.975  0.00  0.00    +0.000 C 
ATOM     11  C   UNL     1      -3.680  14.647 -18.031  0.00  0.00    +0.000 A 
ATOM     12  C   UNL     1      -6.929  16.062 -16.932  0.00  0.00    +0.000 C 
ATOM     13  C   UNL     1      -6.696  15.328 -19.721  0.00  0.00    +0.000 C 
ATOM     14  C   UNL     1      -4.209  14.982 -15.520  0.00  0.00    +0.000 A 
ATOM     15  C   UNL     1      -2.441  14.610 -17.633  0.00  0.00    +0.000 A 
ATOM     16  C   UNL     1      -2.785  14.817 -15.416  0.00  0.00    +0.000 A 
ATOM     17  C   UNL     1      -9.240  15.217 -19.634  0.00  0.00    +0.000 C 
ATOM     18  C   UNL     1      -1.886  14.668 -16.201  0.00  0.00    +0.000 A 
ENDROOT
BRANCH  14  19
ATOM     19  O   UNL     1      -4.917  15.578 -14.517  0.00  0.00    +0.000 OA
ATOM     20  H   UNL     1      -5.196  14.952 -13.818  0.00  0.00    +0.000 HD
ENDBRANCH  14  19
BRANCH  10  21
ATOM     21  C   UNL     1      -9.276  16.848 -17.345  0.00  0.00    +0.000 C 
BRANCH  21  22
ATOM     22  O   UNL     1     -10.469  17.028 -16.773  0.00  0.00    +0.000 OA
ATOM     23  H   UNL     1     -11.168  17.144 -17.444  0.00  0.00    +0.000 HD
ENDBRANCH  21  22
ENDBRANCH  10  21
TORSDOF 3
ENDMDL
MODEL 8
REMARK VINA RESULT:      -5.1     17.460     18.845
REMARK  Name = 6223_Gliotoxin.pdbqt.pdb
REMARK  3 active torsions:
REMARK  status: ('A' for Active; 'I' for Inactive)
REMARK    1  A    between atoms: C_10  and  C_21
REMARK    2  A    between atoms: C_14  and  O_19
REMARK    3  A    between atoms: C_21  and  O_22
REMARK                            x       y       z     vdW  Elec       q    Type
REMARK                         _______ _______ _______ _____ _____    ______ ____
ROOT
ATOM      1  S   UNL     1       5.841 -18.547 -15.334  0.00  0.00    +0.000 S 
ATOM      2  S   UNL     1       7.583 -18.942 -14.300  0.00  0.00    +0.000 S 
ATOM      3  O   UNL     1       7.040 -16.271 -11.910  0.00  0.00    +0.000 OA
ATOM      4  O   UNL     1       7.175 -15.795 -17.144  0.00  0.00    +0.000 OA
ATOM      5  N   UNL     1       5.913 -16.209 -13.912  0.00  0.00    +0.000 N 
ATOM      6  N   UNL     1       8.307 -16.424 -15.180  0.00  0.00    +0.000 N 
ATOM      7  C   UNL     1       5.869 -16.722 -15.317  0.00  0.00    +0.000 C 
ATOM      8  C   UNL     1       4.752 -15.504 -13.591  0.00  0.00    +0.000 A 
ATOM      9  C   UNL     1       4.619 -16.137 -15.796  0.00  0.00    +0.000 C 
ATOM     10  C   UNL     1       8.159 -17.209 -13.910  0.00  0.00    +0.000 C 
ATOM     11  C   UNL     1       3.935 -15.364 -14.847  0.00  0.00    +0.000 A 
ATOM     12  C   UNL     1       7.011 -16.509 -13.116  0.00  0.00    +0.000 C 
ATOM     13  C   UNL     1       7.152 -16.235 -15.993  0.00  0.00    +0.000 C 
ATOM     14  C   UNL     1       4.124 -15.282 -12.267  0.00  0.00    +0.000 A 
ATOM     15  C   UNL     1       2.654 -15.292 -14.626  0.00  0.00    +0.000 A 
ATOM     16  C   UNL     1       2.698 -15.136 -12.379  0.00  0.00    +0.000 A 
ATOM     17  C   UNL     1       9.661 -16.052 -15.590  0.00  0.00    +0.000 C 
ATOM     18  C   UNL     1       1.913 -15.135 -13.289  0.00  0.00    +0.000 A 
ENDROOT
BRANCH  14  19
ATOM     19  O   UNL     1       4.693 -15.694 -11.097  0.00  0.00    +0.000 OA
ATOM     20  H   UNL     1       4.882 -16.654 -11.078  0.00  0.00    +0.000 HD
ENDBRANCH  14  19
BRANCH  10  21
ATOM     21  C   UNL     1       9.393 -17.295 -13.083  0.00  0.00    +0.000 C 
BRANCH  21  22
ATOM     22  O   UNL     1      10.492 -17.361 -12.328  0.00  0.00    +0.000 OA
ATOM     23  H   UNL     1      10.273 -17.581 -11.403  0.00  0.00    +0.000 HD
ENDBRANCH  21  22
ENDBRANCH  10  21
TORSDOF 3
ENDMDL
MODEL 9
REMARK VINA RESULT:      -5.0     17.695     18.383
REMARK  Name = 6223_Gliotoxin.pdbqt.pdb
REMARK  3 active torsions:
REMARK  status: ('A' for Active; 'I' for Inactive)
REMARK    1  A    between atoms: C_10  and  C_21
REMARK    2  A    between atoms: C_14  and  O_19
REMARK    3  A    between atoms: C_21  and  O_22
REMARK                            x       y       z     vdW  Elec       q    Type
REMARK                         _______ _______ _______ _____ _____    ______ ____
ROOT
ATOM      1  S   UNL     1      13.998  13.479 -15.758  0.00  0.00    +0.000 S 
ATOM      2  S   UNL     1      12.753  14.227 -17.225  0.00  0.00    +0.000 S 
ATOM      3  O   UNL     1       9.768  12.812 -15.732  0.00  0.00    +0.000 OA
ATOM      4  O   UNL     1      14.115  10.191 -17.102  0.00  0.00    +0.000 OA
ATOM      5  N   UNL     1      11.815  11.947 -15.144  0.00  0.00    +0.000 N 
ATOM      6  N   UNL     1      12.324  11.554 -17.784  0.00  0.00    +0.000 N 
ATOM      7  C   UNL     1      13.257  11.828 -15.524  0.00  0.00    +0.000 C 
ATOM      8  C   UNL     1      11.587  11.470 -13.853  0.00  0.00    +0.000 A 
ATOM      9  C   UNL     1      13.801  11.128 -14.364  0.00  0.00    +0.000 C 
ATOM     10  C   UNL     1      11.566  12.801 -17.436  0.00  0.00    +0.000 C 
ATOM     11  C   UNL     1      12.863  10.838 -13.363  0.00  0.00    +0.000 A 
ATOM     12  C   UNL     1      10.923  12.525 -16.039  0.00  0.00    +0.000 C 
ATOM     13  C   UNL     1      13.289  11.072 -16.854  0.00  0.00    +0.000 C 
ATOM     14  C   UNL     1      10.523  11.836 -12.889  0.00  0.00    +0.000 A 
ATOM     15  C   UNL     1      13.007  10.897 -12.071  0.00  0.00    +0.000 A 
ATOM     16  C   UNL     1      10.970  11.692 -11.530  0.00  0.00    +0.000 A 
ATOM     17  C   UNL     1      12.149  11.012 -19.131  0.00  0.00    +0.000 C 
ATOM     18  C   UNL     1      11.989  11.330 -11.005  0.00  0.00    +0.000 A 
ENDROOT
BRANCH  14  19
ATOM     19  O   UNL     1       9.500  12.685 -13.200  0.00  0.00    +0.000 OA
ATOM     20  H   UNL     1       8.959  12.376 -13.954  0.00  0.00    +0.000 HD
ENDBRANCH  14  19
BRANCH  10  21
ATOM     21  C   UNL     1      10.525  13.195 -18.424  0.00  0.00    +0.000 C 
BRANCH  21  22
ATOM     22  O   UNL     1       9.580  13.555 -19.296  0.00  0.00    +0.000 OA
ATOM     23  H   UNL     1       9.129  12.775 -19.670  0.00  0.00    +0.000 HD
ENDBRANCH  21  22
ENDBRANCH  10  21
TORSDOF 3
ENDMDL
