MODEL 1
REMARK VINA RESULT:      -5.8      0.000      0.000
REMARK  Name = 6256_Trifluridine.pdbqt.pdb
REMARK  5 active torsions:
REMARK  status: ('A' for Active; 'I' for Inactive)
REMARK    1  A    between atoms: N_3  and  C1*_11
REMARK    2  A    between atoms: C_7  and  C_23
REMARK    3  A    between atoms: C3*_12  and  O3*_15
REMARK    4  A    between atoms: C4*_14  and  C5*_17
REMARK    5  A    between atoms: C5*_17  and  O5*_18
REMARK                            x       y       z     vdW  Elec       q    Type
REMARK                         _______ _______ _______ _____ _____    ______ ____
ROOT
ATOM      1  O   UNL     1      -7.679  -2.187 -21.791  0.00  0.00    +0.000 OA
ATOM      2  O   UNL     1      -3.275  -2.554 -20.550  0.00  0.00    +0.000 OA
ATOM      3  N   UNL     1      -7.140  -1.905 -19.502  0.00  0.00    +0.000 N 
ATOM      4  N   UNL     1      -5.492  -2.352 -21.110  0.00  0.00    +0.000 N 
ATOM      5  C   UNL     1      -6.083  -1.910 -18.665  0.00  0.00    +0.000 A 
ATOM      6  C   UNL     1      -6.873  -2.145 -20.869  0.00  0.00    +0.000 A 
ATOM      7  C   UNL     1      -4.809  -2.090 -18.787  0.00  0.00    +0.000 A 
ATOM      8  C   UNL     1      -4.429  -2.351 -20.199  0.00  0.00    +0.000 A 
ATOM      9  H   UNL     1      -5.248  -2.530 -22.074  0.00  0.00    +0.000 HD
ENDROOT
BRANCH   3  11
ATOM     10  O4* UNL     1      -9.153  -0.571 -19.374  0.00  0.00    +0.000 OA
ATOM     11  C1* UNL     1      -8.387  -1.679 -18.996  0.00  0.00    +0.000 A 
ATOM     12  C3* UNL     1     -10.332  -1.812 -17.814  0.00  0.00    +0.000 A 
ATOM     13  C2* UNL     1      -9.092  -2.436 -18.038  0.00  0.00    +0.000 A 
ATOM     14  C4* UNL     1     -10.352  -0.640 -18.653  0.00  0.00    +0.000 A 
BRANCH  12  15
ATOM     15  O3* UNL     1     -10.997  -1.834 -16.621  0.00  0.00    +0.000 OA
ATOM     16  H3* UNL     1     -11.499  -2.661 -16.517  0.00  0.00    +0.000 HD
ENDBRANCH  12  15
BRANCH  14  17
ATOM     17  C5* UNL     1     -11.281   0.418 -18.628  0.00  0.00    +0.000 C 
BRANCH  17  18
ATOM     18  O5* UNL     1     -12.161   1.415 -18.607  0.00  0.00    +0.000 OA
ATOM     19  H5* UNL     1     -12.647   1.417 -17.764  0.00  0.00    +0.000 HD
ENDBRANCH  17  18
ENDBRANCH  14  17
ENDBRANCH   3  11
BRANCH   7  23
ATOM     20  F   UNL     1      -2.762  -1.207 -18.041  0.00  0.00    +0.000 F 
ATOM     21  F   UNL     1      -4.236  -1.748 -16.541  0.00  0.00    +0.000 F 
ATOM     22  F   UNL     1      -3.179  -3.312 -17.615  0.00  0.00    +0.000 F 
ATOM     23  C   UNL     1      -3.752  -2.092 -17.767  0.00  0.00    +0.000 C 
ENDBRANCH   7  23
TORSDOF 5
ENDMDL
MODEL 2
REMARK VINA RESULT:      -5.5     16.748     18.668
REMARK  Name = 6256_Trifluridine.pdbqt.pdb
REMARK  5 active torsions:
REMARK  status: ('A' for Active; 'I' for Inactive)
REMARK    1  A    between atoms: N_3  and  C1*_11
REMARK    2  A    between atoms: C_7  and  C_23
REMARK    3  A    between atoms: C3*_12  and  O3*_15
REMARK    4  A    between atoms: C4*_14  and  C5*_17
REMARK    5  A    between atoms: C5*_17  and  O5*_18
REMARK                            x       y       z     vdW  Elec       q    Type
REMARK                         _______ _______ _______ _____ _____    ______ ____
ROOT
ATOM      1  O   UNL     1      12.949   0.227 -20.579  0.00  0.00    +0.000 OA
ATOM      2  O   UNL     1       9.757   1.552 -23.599  0.00  0.00    +0.000 OA
ATOM      3  N   UNL     1      10.873   1.000 -19.739  0.00  0.00    +0.000 N 
ATOM      4  N   UNL     1      11.309   0.897 -22.041  0.00  0.00    +0.000 N 
ATOM      5  C   UNL     1       9.683   1.472 -20.158  0.00  0.00    +0.000 A 
ATOM      6  C   UNL     1      11.815   0.666 -20.738  0.00  0.00    +0.000 A 
ATOM      7  C   UNL     1       9.138   1.718 -21.305  0.00  0.00    +0.000 A 
ATOM      8  C   UNL     1      10.059   1.395 -22.424  0.00  0.00    +0.000 A 
ATOM      9  H   UNL     1      11.947   0.675 -22.792  0.00  0.00    +0.000 HD
ENDROOT
BRANCH   3  11
ATOM     10  O4* UNL     1      12.101   1.613 -17.747  0.00  0.00    +0.000 OA
ATOM     11  C1* UNL     1      11.105   0.878 -18.399  0.00  0.00    +0.000 A 
ATOM     12  C3* UNL     1      11.046   0.237 -16.213  0.00  0.00    +0.000 A 
ATOM     13  C2* UNL     1      10.464   0.029 -17.475  0.00  0.00    +0.000 A 
ATOM     14  C4* UNL     1      12.077   1.227 -16.401  0.00  0.00    +0.000 A 
BRANCH  12  15
ATOM     15  O3* UNL     1      11.167  -0.731 -15.255  0.00  0.00    +0.000 OA
ATOM     16  H3* UNL     1      11.781  -0.452 -14.553  0.00  0.00    +0.000 HD
ENDBRANCH  12  15
BRANCH  14  17
ATOM     17  C5* UNL     1      13.075   1.612 -15.485  0.00  0.00    +0.000 C 
BRANCH  17  18
ATOM     18  O5* UNL     1      14.020   1.978 -14.624  0.00  0.00    +0.000 OA
ATOM     19  H5* UNL     1      14.862   1.543 -14.844  0.00  0.00    +0.000 HD
ENDBRANCH  17  18
ENDBRANCH  14  17
ENDBRANCH   3  11
BRANCH   7  23
ATOM     20  F   UNL     1       7.880   3.354 -22.430  0.00  0.00    +0.000 F 
ATOM     21  F   UNL     1       7.040   1.357 -22.283  0.00  0.00    +0.000 F 
ATOM     22  F   UNL     1       7.115   2.618 -20.517  0.00  0.00    +0.000 F 
ATOM     23  C   UNL     1       7.813   2.265 -21.624  0.00  0.00    +0.000 C 
ENDBRANCH   7  23
TORSDOF 5
ENDMDL
MODEL 3
REMARK VINA RESULT:      -5.5     17.642     19.178
REMARK  Name = 6256_Trifluridine.pdbqt.pdb
REMARK  5 active torsions:
REMARK  status: ('A' for Active; 'I' for Inactive)
REMARK    1  A    between atoms: N_3  and  C1*_11
REMARK    2  A    between atoms: C_7  and  C_23
REMARK    3  A    between atoms: C3*_12  and  O3*_15
REMARK    4  A    between atoms: C4*_14  and  C5*_17
REMARK    5  A    between atoms: C5*_17  and  O5*_18
REMARK                            x       y       z     vdW  Elec       q    Type
REMARK                         _______ _______ _______ _____ _____    ______ ____
ROOT
ATOM      1  O   UNL     1      12.658  -0.826 -21.238  0.00  0.00    +0.000 OA
ATOM      2  O   UNL     1      12.031   3.112 -18.965  0.00  0.00    +0.000 OA
ATOM      3  N   UNL     1      11.851  -0.940 -19.014  0.00  0.00    +0.000 N 
ATOM      4  N   UNL     1      12.317   1.111 -20.051  0.00  0.00    +0.000 N 
ATOM      5  C   UNL     1      11.516  -0.146 -17.978  0.00  0.00    +0.000 A 
ATOM      6  C   UNL     1      12.303  -0.299 -20.189  0.00  0.00    +0.000 A 
ATOM      7  C   UNL     1      11.499   1.128 -17.758  0.00  0.00    +0.000 A 
ATOM      8  C   UNL     1      11.960   1.891 -18.945  0.00  0.00    +0.000 A 
ATOM      9  H   UNL     1      12.635   1.617 -20.866  0.00  0.00    +0.000 HD
ENDROOT
BRANCH   3  11
ATOM     10  O4* UNL     1      10.506  -2.932 -18.740  0.00  0.00    +0.000 OA
ATOM     11  C1* UNL     1      11.744  -2.294 -18.875  0.00  0.00    +0.000 A 
ATOM     12  C3* UNL     1      12.191  -4.517 -18.648  0.00  0.00    +0.000 A 
ATOM     13  C2* UNL     1      12.777  -3.250 -18.810  0.00  0.00    +0.000 A 
ATOM     14  C4* UNL     1      10.767  -4.301 -18.598  0.00  0.00    +0.000 A 
BRANCH  12  15
ATOM     15  O3* UNL     1      12.770  -5.548 -17.963  0.00  0.00    +0.000 OA
ATOM     16  H3* UNL     1      13.740  -5.470 -17.969  0.00  0.00    +0.000 HD
ENDBRANCH  12  15
BRANCH  14  17
ATOM     17  C5* UNL     1       9.770  -5.227 -18.237  0.00  0.00    +0.000 C 
BRANCH  17  18
ATOM     18  O5* UNL     1       8.825  -6.100 -17.898  0.00  0.00    +0.000 OA
ATOM     19  H5* UNL     1       8.165  -6.174 -18.609  0.00  0.00    +0.000 HD
ENDBRANCH  17  18
ENDBRANCH  14  17
ENDBRANCH   3  11
BRANCH   7  23
ATOM     20  F   UNL     1      10.394   2.983 -16.827  0.00  0.00    +0.000 F 
ATOM     21  F   UNL     1      10.363   1.121 -15.709  0.00  0.00    +0.000 F 
ATOM     22  F   UNL     1      12.204   2.266 -15.826  0.00  0.00    +0.000 F 
ATOM     23  C   UNL     1      11.125   1.874 -16.549  0.00  0.00    +0.000 C 
ENDBRANCH   7  23
TORSDOF 5
ENDMDL
MODEL 4
REMARK VINA RESULT:      -5.5      3.184      5.979
REMARK  Name = 6256_Trifluridine.pdbqt.pdb
REMARK  5 active torsions:
REMARK  status: ('A' for Active; 'I' for Inactive)
REMARK    1  A    between atoms: N_3  and  C1*_11
REMARK    2  A    between atoms: C_7  and  C_23
REMARK    3  A    between atoms: C3*_12  and  O3*_15
REMARK    4  A    between atoms: C4*_14  and  C5*_17
REMARK    5  A    between atoms: C5*_17  and  O5*_18
REMARK                            x       y       z     vdW  Elec       q    Type
REMARK                         _______ _______ _______ _____ _____    ______ ____
ROOT
ATOM      1  O   UNL     1      -6.168  -1.455 -22.084  0.00  0.00    +0.000 OA
ATOM      2  O   UNL     1     -10.536  -2.269 -20.936  0.00  0.00    +0.000 OA
ATOM      3  N   UNL     1      -6.697  -1.647 -19.784  0.00  0.00    +0.000 N 
ATOM      4  N   UNL     1      -8.335  -1.869 -21.447  0.00  0.00    +0.000 N 
ATOM      5  C   UNL     1      -7.744  -1.865 -18.963  0.00  0.00    +0.000 A 
ATOM      6  C   UNL     1      -6.965  -1.637 -21.171  0.00  0.00    +0.000 A 
ATOM      7  C   UNL     1      -9.009  -2.080 -19.117  0.00  0.00    +0.000 A 
ATOM      8  C   UNL     1      -9.389  -2.088 -20.552  0.00  0.00    +0.000 A 
ATOM      9  H   UNL     1      -8.579  -1.870 -22.427  0.00  0.00    +0.000 HD
ENDROOT
BRANCH   3  11
ATOM     10  O4* UNL     1      -4.886  -0.171 -19.156  0.00  0.00    +0.000 OA
ATOM     11  C1* UNL     1      -5.460  -1.444 -19.243  0.00  0.00    +0.000 A 
ATOM     12  C3* UNL     1      -3.405  -1.732 -18.299  0.00  0.00    +0.000 A 
ATOM     13  C2* UNL     1      -4.562  -2.403 -18.733  0.00  0.00    +0.000 A 
ATOM     14  C4* UNL     1      -3.620  -0.334 -18.578  0.00  0.00    +0.000 A 
BRANCH  12  15
ATOM     15  O3* UNL     1      -2.150  -2.270 -18.328  0.00  0.00    +0.000 OA
ATOM     16  H3* UNL     1      -1.481  -1.609 -18.077  0.00  0.00    +0.000 HD
ENDBRANCH  12  15
BRANCH  14  17
ATOM     17  C5* UNL     1      -2.675   0.708 -18.521  0.00  0.00    +0.000 C 
BRANCH  17  18
ATOM     18  O5* UNL     1      -1.780   1.690 -18.470  0.00  0.00    +0.000 OA
ATOM     19  H5* UNL     1      -1.796   2.114 -17.594  0.00  0.00    +0.000 HD
ENDBRANCH  17  18
ENDBRANCH  14  17
ENDBRANCH   3  11
BRANCH   7  23
ATOM     20  F   UNL     1     -11.136  -1.478 -18.317  0.00  0.00    +0.000 F 
ATOM     21  F   UNL     1     -10.538  -3.558 -18.135  0.00  0.00    +0.000 F 
ATOM     22  F   UNL     1      -9.625  -2.066 -16.849  0.00  0.00    +0.000 F 
ATOM     23  C   UNL     1     -10.062  -2.282 -18.114  0.00  0.00    +0.000 C 
ENDBRANCH   7  23
TORSDOF 5
ENDMDL
MODEL 5
REMARK VINA RESULT:      -5.4     12.111     14.665
REMARK  Name = 6256_Trifluridine.pdbqt.pdb
REMARK  5 active torsions:
REMARK  status: ('A' for Active; 'I' for Inactive)
REMARK    1  A    between atoms: N_3  and  C1*_11
REMARK    2  A    between atoms: C_7  and  C_23
REMARK    3  A    between atoms: C3*_12  and  O3*_15
REMARK    4  A    between atoms: C4*_14  and  C5*_17
REMARK    5  A    between atoms: C5*_17  and  O5*_18
REMARK                            x       y       z     vdW  Elec       q    Type
REMARK                         _______ _______ _______ _____ _____    ______ ____
ROOT
ATOM      1  O   UNL     1       6.582   2.145 -21.245  0.00  0.00    +0.000 OA
ATOM      2  O   UNL     1      10.815   2.763 -19.583  0.00  0.00    +0.000 OA
ATOM      3  N   UNL     1       7.008   1.487 -19.010  0.00  0.00    +0.000 N 
ATOM      4  N   UNL     1       8.679   2.435 -20.354  0.00  0.00    +0.000 N 
ATOM      5  C   UNL     1       8.000   1.450 -18.098  0.00  0.00    +0.000 A 
ATOM      6  C   UNL     1       7.326   2.021 -20.279  0.00  0.00    +0.000 A 
ATOM      7  C   UNL     1       9.246   1.794 -18.074  0.00  0.00    +0.000 A 
ATOM      8  C   UNL     1       9.676   2.372 -19.373  0.00  0.00    +0.000 A 
ATOM      9  H   UNL     1       8.958   2.824 -21.244  0.00  0.00    +0.000 HD
ENDROOT
BRANCH   3  11
ATOM     10  O4* UNL     1       5.494  -0.360 -18.628  0.00  0.00    +0.000 OA
ATOM     11  C1* UNL     1       5.775   1.010 -18.669  0.00  0.00    +0.000 A 
ATOM     12  C3* UNL     1       3.580   0.825 -18.082  0.00  0.00    +0.000 A 
ATOM     13  C2* UNL     1       4.614   1.741 -18.348  0.00  0.00    +0.000 A 
ATOM     14  C4* UNL     1       4.145  -0.488 -18.269  0.00  0.00    +0.000 A 
BRANCH  12  15
ATOM     15  O3* UNL     1       2.259   1.065 -18.335  0.00  0.00    +0.000 OA
ATOM     16  H3* UNL     1       2.103   1.190 -19.287  0.00  0.00    +0.000 HD
ENDBRANCH  12  15
BRANCH  14  17
ATOM     17  C5* UNL     1       3.461  -1.717 -18.325  0.00  0.00    +0.000 C 
BRANCH  17  18
ATOM     18  O5* UNL     1       2.818  -2.880 -18.379  0.00  0.00    +0.000 OA
ATOM     19  H5* UNL     1       3.398  -3.599 -18.074  0.00  0.00    +0.000 HD
ENDBRANCH  17  18
ENDBRANCH  14  17
ENDBRANCH   3  11
BRANCH   7  23
ATOM     20  F   UNL     1       9.739   1.070 -15.893  0.00  0.00    +0.000 F 
ATOM     21  F   UNL     1      11.310   0.926 -17.386  0.00  0.00    +0.000 F 
ATOM     22  F   UNL     1      10.741   2.875 -16.618  0.00  0.00    +0.000 F 
ATOM     23  C   UNL     1      10.240   1.674 -17.000  0.00  0.00    +0.000 C 
ENDBRANCH   7  23
TORSDOF 5
ENDMDL
MODEL 6
REMARK VINA RESULT:      -5.3      5.908      8.024
REMARK  Name = 6256_Trifluridine.pdbqt.pdb
REMARK  5 active torsions:
REMARK  status: ('A' for Active; 'I' for Inactive)
REMARK    1  A    between atoms: N_3  and  C1*_11
REMARK    2  A    between atoms: C_7  and  C_23
REMARK    3  A    between atoms: C3*_12  and  O3*_15
REMARK    4  A    between atoms: C4*_14  and  C5*_17
REMARK    5  A    between atoms: C5*_17  and  O5*_18
REMARK                            x       y       z     vdW  Elec       q    Type
REMARK                         _______ _______ _______ _____ _____    ______ ____
ROOT
ATOM      1  O   UNL     1      -0.118   1.040 -21.491  0.00  0.00    +0.000 OA
ATOM      2  O   UNL     1       4.289   0.981 -20.211  0.00  0.00    +0.000 OA
ATOM      3  N   UNL     1       0.414   0.130 -19.370  0.00  0.00    +0.000 N 
ATOM      4  N   UNL     1       2.069   0.989 -20.791  0.00  0.00    +0.000 N 
ATOM      5  C   UNL     1       1.469  -0.112 -18.567  0.00  0.00    +0.000 A 
ATOM      6  C   UNL     1       0.686   0.738 -20.616  0.00  0.00    +0.000 A 
ATOM      7  C   UNL     1       2.746   0.074 -18.639  0.00  0.00    +0.000 A 
ATOM      8  C   UNL     1       3.131   0.714 -19.922  0.00  0.00    +0.000 A 
ATOM      9  H   UNL     1       2.317   1.423 -21.669  0.00  0.00    +0.000 HD
ENDROOT
BRANCH   3  11
ATOM     10  O4* UNL     1      -1.194  -1.556 -18.719  0.00  0.00    +0.000 OA
ATOM     11  C1* UNL     1      -0.836  -0.223 -18.949  0.00  0.00    +0.000 A 
ATOM     12  C3* UNL     1      -3.023  -0.196 -18.308  0.00  0.00    +0.000 A 
ATOM     13  C2* UNL     1      -1.946   0.612 -18.711  0.00  0.00    +0.000 A 
ATOM     14  C4* UNL     1      -2.538  -1.554 -18.325  0.00  0.00    +0.000 A 
BRANCH  12  15
ATOM     15  O3* UNL     1      -4.334   0.085 -18.570  0.00  0.00    +0.000 OA
ATOM     16  H3* UNL     1      -4.518   0.033 -19.524  0.00  0.00    +0.000 HD
ENDBRANCH  12  15
BRANCH  14  17
ATOM     17  C5* UNL     1      -3.293  -2.737 -18.205  0.00  0.00    +0.000 C 
BRANCH  17  18
ATOM     18  O5* UNL     1      -4.008  -3.853 -18.095  0.00  0.00    +0.000 OA
ATOM     19  H5* UNL     1      -3.681  -4.525 -18.717  0.00  0.00    +0.000 HD
ENDBRANCH  17  18
ENDBRANCH  14  17
ENDBRANCH   3  11
BRANCH   7  23
ATOM     20  F   UNL     1       4.442   0.832 -17.197  0.00  0.00    +0.000 F 
ATOM     21  F   UNL     1       3.312  -0.923 -16.596  0.00  0.00    +0.000 F 
ATOM     22  F   UNL     1       4.749  -1.080 -18.216  0.00  0.00    +0.000 F 
ATOM     23  C   UNL     1       3.806  -0.265 -17.681  0.00  0.00    +0.000 C 
ENDBRANCH   7  23
TORSDOF 5
ENDMDL
MODEL 7
REMARK VINA RESULT:      -5.1     12.011     15.889
REMARK  Name = 6256_Trifluridine.pdbqt.pdb
REMARK  5 active torsions:
REMARK  status: ('A' for Active; 'I' for Inactive)
REMARK    1  A    between atoms: N_3  and  C1*_11
REMARK    2  A    between atoms: C_7  and  C_23
REMARK    3  A    between atoms: C3*_12  and  O3*_15
REMARK    4  A    between atoms: C4*_14  and  C5*_17
REMARK    5  A    between atoms: C5*_17  and  O5*_18
REMARK                            x       y       z     vdW  Elec       q    Type
REMARK                         _______ _______ _______ _____ _____    ______ ____
ROOT
ATOM      1  O   UNL     1       8.313   0.625 -21.191  0.00  0.00    +0.000 OA
ATOM      2  O   UNL     1       3.762   0.820 -20.633  0.00  0.00    +0.000 OA
ATOM      3  N   UNL     1       7.476   1.092 -19.025  0.00  0.00    +0.000 N 
ATOM      4  N   UNL     1       6.045   0.729 -20.847  0.00  0.00    +0.000 N 
ATOM      5  C   UNL     1       6.313   1.250 -18.362  0.00  0.00    +0.000 A 
ATOM      6  C   UNL     1       7.389   0.802 -20.406  0.00  0.00    +0.000 A 
ATOM      7  C   UNL     1       5.059   1.206 -18.672  0.00  0.00    +0.000 A 
ATOM      8  C   UNL     1       4.866   0.905 -20.114  0.00  0.00    +0.000 A 
ATOM      9  H   UNL     1       5.928   0.525 -21.830  0.00  0.00    +0.000 HD
ENDROOT
BRANCH   3  11
ATOM     10  O4* UNL     1       9.347   0.117 -17.843  0.00  0.00    +0.000 OA
ATOM     11  C1* UNL     1       8.652   1.222 -18.345  0.00  0.00    +0.000 A 
ATOM     12  C3* UNL     1      10.495   2.051 -17.290  0.00  0.00    +0.000 A 
ATOM     13  C2* UNL     1       9.338   2.406 -18.005  0.00  0.00    +0.000 A 
ATOM     14  C4* UNL     1      10.483   0.613 -17.191  0.00  0.00    +0.000 A 
BRANCH  12  15
ATOM     15  O3* UNL     1      11.058   2.819 -16.310  0.00  0.00    +0.000 OA
ATOM     16  H3* UNL     1      11.843   3.288 -16.643  0.00  0.00    +0.000 HD
ENDBRANCH  12  15
BRANCH  14  17
ATOM     17  C5* UNL     1      11.311  -0.200 -16.391  0.00  0.00    +0.000 C 
BRANCH  17  18
ATOM     18  O5* UNL     1      12.090  -0.969 -15.637  0.00  0.00    +0.000 OA
ATOM     19  H5* UNL     1      12.731  -0.423 -15.149  0.00  0.00    +0.000 HD
ENDBRANCH  17  18
ENDBRANCH  14  17
ENDBRANCH   3  11
BRANCH   7  23
ATOM     20  F   UNL     1       3.351   2.670 -17.989  0.00  0.00    +0.000 F 
ATOM     21  F   UNL     1       2.868   0.558 -18.153  0.00  0.00    +0.000 F 
ATOM     22  F   UNL     1       4.121   1.245 -16.518  0.00  0.00    +0.000 F 
ATOM     23  C   UNL     1       3.870   1.425 -17.838  0.00  0.00    +0.000 C 
ENDBRANCH   7  23
TORSDOF 5
ENDMDL
MODEL 8
REMARK VINA RESULT:      -5.1      1.882      2.375
REMARK  Name = 6256_Trifluridine.pdbqt.pdb
REMARK  5 active torsions:
REMARK  status: ('A' for Active; 'I' for Inactive)
REMARK    1  A    between atoms: N_3  and  C1*_11
REMARK    2  A    between atoms: C_7  and  C_23
REMARK    3  A    between atoms: C3*_12  and  O3*_15
REMARK    4  A    between atoms: C4*_14  and  C5*_17
REMARK    5  A    between atoms: C5*_17  and  O5*_18
REMARK                            x       y       z     vdW  Elec       q    Type
REMARK                         _______ _______ _______ _____ _____    ______ ____
ROOT
ATOM      1  O   UNL     1      -6.583  -2.324 -22.342  0.00  0.00    +0.000 OA
ATOM      2  O   UNL     1      -2.754  -1.719 -19.885  0.00  0.00    +0.000 OA
ATOM      3  N   UNL     1      -6.781  -2.193 -19.985  0.00  0.00    +0.000 N 
ATOM      4  N   UNL     1      -4.703  -2.014 -21.059  0.00  0.00    +0.000 N 
ATOM      5  C   UNL     1      -6.030  -2.033 -18.877  0.00  0.00    +0.000 A 
ATOM      6  C   UNL     1      -6.099  -2.192 -21.223  0.00  0.00    +0.000 A 
ATOM      7  C   UNL     1      -4.772  -1.871 -18.629  0.00  0.00    +0.000 A 
ATOM      8  C   UNL     1      -3.969  -1.855 -19.878  0.00  0.00    +0.000 A 
ATOM      9  H   UNL     1      -4.169  -2.008 -21.916  0.00  0.00    +0.000 HD
ENDROOT
BRANCH   3  11
ATOM     10  O4* UNL     1      -8.800  -3.467 -20.367  0.00  0.00    +0.000 OA
ATOM     11  C1* UNL     1      -8.131  -2.350 -19.857  0.00  0.00    +0.000 A 
ATOM     12  C3* UNL     1     -10.338  -2.046 -19.378  0.00  0.00    +0.000 A 
ATOM     13  C2* UNL     1      -9.059  -1.473 -19.261  0.00  0.00    +0.000 A 
ATOM     14  C4* UNL     1     -10.160  -3.292 -20.080  0.00  0.00    +0.000 A 
BRANCH  12  15
ATOM     15  O3* UNL     1     -11.493  -1.326 -19.504  0.00  0.00    +0.000 OA
ATOM     16  H3* UNL     1     -12.040  -1.669 -20.232  0.00  0.00    +0.000 HD
ENDBRANCH  12  15
BRANCH  14  17
ATOM     17  C5* UNL     1     -11.161  -4.123 -20.621  0.00  0.00    +0.000 C 
BRANCH  17  18
ATOM     18  O5* UNL     1     -12.104  -4.907 -21.136  0.00  0.00    +0.000 OA
ATOM     19  H5* UNL     1     -12.424  -4.539 -21.978  0.00  0.00    +0.000 HD
ENDBRANCH  17  18
ENDBRANCH  14  17
ENDBRANCH   3  11
BRANCH   7  23
ATOM     20  F   UNL     1      -3.276  -0.632 -17.304  0.00  0.00    +0.000 F 
ATOM     21  F   UNL     1      -4.944  -1.602 -16.308  0.00  0.00    +0.000 F 
ATOM     22  F   UNL     1      -3.299  -2.805 -17.054  0.00  0.00    +0.000 F 
ATOM     23  C   UNL     1      -4.072  -1.730 -17.346  0.00  0.00    +0.000 C 
ENDBRANCH   7  23
TORSDOF 5
ENDMDL
MODEL 9
REMARK VINA RESULT:      -5.0     23.155     24.787
REMARK  Name = 6256_Trifluridine.pdbqt.pdb
REMARK  5 active torsions:
REMARK  status: ('A' for Active; 'I' for Inactive)
REMARK    1  A    between atoms: N_3  and  C1*_11
REMARK    2  A    between atoms: C_7  and  C_23
REMARK    3  A    between atoms: C3*_12  and  O3*_15
REMARK    4  A    between atoms: C4*_14  and  C5*_17
REMARK    5  A    between atoms: C5*_17  and  O5*_18
REMARK                            x       y       z     vdW  Elec       q    Type
REMARK                         _______ _______ _______ _____ _____    ______ ____
ROOT
ATOM      1  O   UNL     1      11.704  12.835  -7.265  0.00  0.00    +0.000 OA
ATOM      2  O   UNL     1      11.103  13.249 -11.796  0.00  0.00    +0.000 OA
ATOM      3  N   UNL     1      11.299  10.867  -8.519  0.00  0.00    +0.000 N 
ATOM      4  N   UNL     1      11.402  12.977  -9.537  0.00  0.00    +0.000 N 
ATOM      5  C   UNL     1      11.072  10.457  -9.782  0.00  0.00    +0.000 A 
ATOM      6  C   UNL     1      11.488  12.253  -8.322  0.00  0.00    +0.000 A 
ATOM      7  C   UNL     1      10.973  11.031 -10.936  0.00  0.00    +0.000 A 
ATOM      8  C   UNL     1      11.159  12.500 -10.831  0.00  0.00    +0.000 A 
ATOM      9  H   UNL     1      11.529  13.975  -9.450  0.00  0.00    +0.000 HD
ENDROOT
BRANCH   3  11
ATOM     10  O4* UNL     1      12.465   9.737  -6.726  0.00  0.00    +0.000 OA
ATOM     11  C1* UNL     1      11.328   9.942  -7.515  0.00  0.00    +0.000 A 
ATOM     12  C3* UNL     1      10.800   8.276  -6.052  0.00  0.00    +0.000 A 
ATOM     13  C2* UNL     1      10.311   9.050  -7.119  0.00  0.00    +0.000 A 
ATOM     14  C4* UNL     1      12.154   8.713  -5.822  0.00  0.00    +0.000 A 
BRANCH  12  15
ATOM     15  O3* UNL     1      10.426   6.984  -5.808  0.00  0.00    +0.000 OA
ATOM     16  H3* UNL     1       9.472   6.864  -5.953  0.00  0.00    +0.000 HD
ENDBRANCH  12  15
BRANCH  14  17
ATOM     17  C5* UNL     1      13.126   8.103  -5.007  0.00  0.00    +0.000 C 
BRANCH  17  18
ATOM     18  O5* UNL     1      14.045   7.523  -4.239  0.00  0.00    +0.000 OA
ATOM     19  H5* UNL     1      14.585   6.910  -4.766  0.00  0.00    +0.000 HD
ENDBRANCH  17  18
ENDBRANCH  14  17
ENDBRANCH   3  11
BRANCH   7  23
ATOM     20  F   UNL     1       9.752  11.153 -12.942  0.00  0.00    +0.000 F 
ATOM     21  F   UNL     1      11.802  10.446 -13.048  0.00  0.00    +0.000 F 
ATOM     22  F   UNL     1      10.274   9.167 -12.187  0.00  0.00    +0.000 F 
ATOM     23  C   UNL     1      10.693  10.455 -12.258  0.00  0.00    +0.000 C 
ENDBRANCH   7  23
TORSDOF 5
ENDMDL
