MODEL 1
REMARK VINA RESULT:      -5.7      0.000      0.000
REMARK  Name = 6323266_Tipiracil.pdbqt.pdb
REMARK  2 active torsions:
REMARK  status: ('A' for Active; 'I' for Inactive)
REMARK    1  A    between atoms: C_6  and  C_12
REMARK    2  A    between atoms: C_12  and  N_13
REMARK                            x       y       z     vdW  Elec       q    Type
REMARK                         _______ _______ _______ _____ _____    ______ ____
ROOT
ATOM      1 CL   UNL     1      -2.865  -2.850 -18.135  0.00  0.00    +0.000 Cl
ATOM      2  O   UNL     1      -4.214  -0.292 -17.320  0.00  0.00    +0.000 OA
ATOM      3  O   UNL     1      -1.239   2.596 -19.143  0.00  0.00    +0.000 OA
ATOM      4  N   UNL     1      -0.866   0.368 -19.363  0.00  0.00    +0.000 N 
ATOM      5  N   UNL     1      -2.728   1.143 -18.242  0.00  0.00    +0.000 N 
ATOM      6  C   UNL     1      -1.228  -0.936 -19.142  0.00  0.00    +0.000 A 
ATOM      7  C   UNL     1      -2.342  -1.244 -18.464  0.00  0.00    +0.000 A 
ATOM      8  C   UNL     1      -3.180  -0.120 -17.957  0.00  0.00    +0.000 A 
ATOM      9  C   UNL     1      -1.589   1.441 -18.930  0.00  0.00    +0.000 A 
ATOM     10  H   UNL     1      -0.013   0.575 -19.878  0.00  0.00    +0.000 HD
ATOM     11  H   UNL     1      -3.281   1.919 -17.908  0.00  0.00    +0.000 HD
ENDROOT
BRANCH   6  12
ATOM     12  C   UNL     1      -0.346  -1.914 -19.675  0.00  0.00    +0.000 C 
BRANCH  12  13
ATOM     13  N   UNL     1       0.560  -2.963 -20.100  0.00  0.00    +0.000 N 
ATOM     14  N   UNL     1       2.014  -2.977 -18.104  0.00  0.00    +0.000 NA
ATOM     15  C   UNL     1      -0.024  -4.191 -20.638  0.00  0.00    +0.000 C 
ATOM     16  C   UNL     1       0.400  -5.590 -20.204  0.00  0.00    +0.000 C 
ATOM     17  C   UNL     1       1.349  -4.914 -19.213  0.00  0.00    +0.000 C 
ATOM     18  C   UNL     1       1.373  -3.472 -19.095  0.00  0.00    +0.000 C 
ATOM     19  H   UNL     1       2.476  -3.716 -17.562  0.00  0.00    +0.000 HD
ENDBRANCH  12  13
ENDBRANCH   6  12
TORSDOF 2
ENDMDL
MODEL 2
REMARK VINA RESULT:      -5.5     16.867     17.641
REMARK  Name = 6323266_Tipiracil.pdbqt.pdb
REMARK  2 active torsions:
REMARK  status: ('A' for Active; 'I' for Inactive)
REMARK    1  A    between atoms: C_6  and  C_12
REMARK    2  A    between atoms: C_12  and  N_13
REMARK                            x       y       z     vdW  Elec       q    Type
REMARK                         _______ _______ _______ _____ _____    ______ ____
ROOT
ATOM      1 CL   UNL     1      11.167  -7.687  -5.272  0.00  0.00    +0.000 Cl
ATOM      2  O   UNL     1       8.829  -6.259  -4.038  0.00  0.00    +0.000 OA
ATOM      3  O   UNL     1       9.040  -2.462  -6.498  0.00  0.00    +0.000 OA
ATOM      4  N   UNL     1      10.568  -4.095  -6.885  0.00  0.00    +0.000 N 
ATOM      5  N   UNL     1       8.936  -4.371  -5.278  0.00  0.00    +0.000 N 
ATOM      6  C   UNL     1      11.094  -5.333  -6.619  0.00  0.00    +0.000 A 
ATOM      7  C   UNL     1      10.566  -6.125  -5.676  0.00  0.00    +0.000 A 
ATOM      8  C   UNL     1       9.383  -5.617  -4.925  0.00  0.00    +0.000 A 
ATOM      9  C   UNL     1       9.486  -3.573  -6.238  0.00  0.00    +0.000 A 
ATOM     10  H   UNL     1      10.990  -3.511  -7.604  0.00  0.00    +0.000 HD
ATOM     11  H   UNL     1       8.135  -4.008  -4.782  0.00  0.00    +0.000 HD
ENDROOT
BRANCH   6  12
ATOM     12  C   UNL     1      12.221  -5.700  -7.402  0.00  0.00    +0.000 C 
BRANCH  12  13
ATOM     13  N   UNL     1      13.291  -6.082  -8.303  0.00  0.00    +0.000 N 
ATOM     14  N   UNL     1      11.918  -7.301  -9.954  0.00  0.00    +0.000 NA
ATOM     15  C   UNL     1      14.245  -5.048  -8.704  0.00  0.00    +0.000 C 
ATOM     16  C   UNL     1      14.674  -4.809 -10.147  0.00  0.00    +0.000 C 
ATOM     17  C   UNL     1      13.693  -5.913 -10.544  0.00  0.00    +0.000 C 
ATOM     18  C   UNL     1      12.870  -6.552  -9.540  0.00  0.00    +0.000 C 
ATOM     19  H   UNL     1      11.931  -7.375 -10.978  0.00  0.00    +0.000 HD
ENDBRANCH  12  13
ENDBRANCH   6  12
TORSDOF 2
ENDMDL
MODEL 3
REMARK VINA RESULT:      -5.1      9.925     10.738
REMARK  Name = 6323266_Tipiracil.pdbqt.pdb
REMARK  2 active torsions:
REMARK  status: ('A' for Active; 'I' for Inactive)
REMARK    1  A    between atoms: C_6  and  C_12
REMARK    2  A    between atoms: C_12  and  N_13
REMARK                            x       y       z     vdW  Elec       q    Type
REMARK                         _______ _______ _______ _____ _____    ______ ____
ROOT
ATOM      1 CL   UNL     1     -11.178  -0.069 -21.453  0.00  0.00    +0.000 Cl
ATOM      2  O   UNL     1     -11.007   1.359 -18.815  0.00  0.00    +0.000 OA
ATOM      3  O   UNL     1     -10.356  -2.265 -16.178  0.00  0.00    +0.000 OA
ATOM      4  N   UNL     1     -10.587  -2.575 -18.414  0.00  0.00    +0.000 N 
ATOM      5  N   UNL     1     -10.672  -0.456 -17.507  0.00  0.00    +0.000 N 
ATOM      6  C   UNL     1     -10.778  -2.083 -19.680  0.00  0.00    +0.000 A 
ATOM      7  C   UNL     1     -10.927  -0.770 -19.901  0.00  0.00    +0.000 A 
ATOM      8  C   UNL     1     -10.875   0.142 -18.724  0.00  0.00    +0.000 A 
ATOM      9  C   UNL     1     -10.527  -1.795 -17.297  0.00  0.00    +0.000 A 
ATOM     10  H   UNL     1     -10.480  -3.577 -18.273  0.00  0.00    +0.000 HD
ATOM     11  H   UNL     1     -10.634   0.145 -16.696  0.00  0.00    +0.000 HD
ENDROOT
BRANCH   6  12
ATOM     12  C   UNL     1     -10.808  -3.055 -20.716  0.00  0.00    +0.000 C 
BRANCH  12  13
ATOM     13  N   UNL     1     -10.720  -4.007 -21.806  0.00  0.00    +0.000 N 
ATOM     14  N   UNL     1     -13.138  -4.207 -22.269  0.00  0.00    +0.000 NA
ATOM     15  C   UNL     1      -9.750  -3.741 -22.867  0.00  0.00    +0.000 C 
ATOM     16  C   UNL     1     -10.080  -3.821 -24.353  0.00  0.00    +0.000 C 
ATOM     17  C   UNL     1     -11.518  -4.140 -23.942  0.00  0.00    +0.000 C 
ATOM     18  C   UNL     1     -11.888  -4.156 -22.543  0.00  0.00    +0.000 C 
ATOM     19  H   UNL     1     -13.696  -4.289 -23.127  0.00  0.00    +0.000 HD
ENDBRANCH  12  13
ENDBRANCH   6  12
TORSDOF 2
ENDMDL
MODEL 4
REMARK VINA RESULT:      -5.0     12.461     13.339
REMARK  Name = 6323266_Tipiracil.pdbqt.pdb
REMARK  2 active torsions:
REMARK  status: ('A' for Active; 'I' for Inactive)
REMARK    1  A    between atoms: C_6  and  C_12
REMARK    2  A    between atoms: C_12  and  N_13
REMARK                            x       y       z     vdW  Elec       q    Type
REMARK                         _______ _______ _______ _____ _____    ______ ____
ROOT
ATOM      1 CL   UNL     1      10.851   2.982 -17.883  0.00  0.00    +0.000 Cl
ATOM      2  O   UNL     1      10.783   1.377 -15.344  0.00  0.00    +0.000 OA
ATOM      3  O   UNL     1      11.151  -2.742 -17.192  0.00  0.00    +0.000 OA
ATOM      4  N   UNL     1      11.131  -0.933 -18.562  0.00  0.00    +0.000 N 
ATOM      5  N   UNL     1      10.978  -0.675 -16.275  0.00  0.00    +0.000 N 
ATOM      6  C   UNL     1      11.065   0.423 -18.758  0.00  0.00    +0.000 A 
ATOM      7  C   UNL     1      10.948   1.270 -17.727  0.00  0.00    +0.000 A 
ATOM      8  C   UNL     1      10.896   0.691 -16.355  0.00  0.00    +0.000 A 
ATOM      9  C   UNL     1      11.091  -1.526 -17.334  0.00  0.00    +0.000 A 
ATOM     10  H   UNL     1      11.215  -1.555 -19.363  0.00  0.00    +0.000 HD
ATOM     11  H   UNL     1      10.944  -1.088 -15.354  0.00  0.00    +0.000 HD
ENDROOT
BRANCH   6  12
ATOM     12  C   UNL     1      11.125   0.849 -20.113  0.00  0.00    +0.000 C 
BRANCH  12  13
ATOM     13  N   UNL     1      11.303   1.331 -21.468  0.00  0.00    +0.000 N 
ATOM     14  N   UNL     1      12.745   3.266 -20.947  0.00  0.00    +0.000 NA
ATOM     15  C   UNL     1      11.662   0.354 -22.497  0.00  0.00    +0.000 C 
ATOM     16  C   UNL     1      12.788   0.563 -23.504  0.00  0.00    +0.000 C 
ATOM     17  C   UNL     1      13.076   1.888 -22.795  0.00  0.00    +0.000 C 
ATOM     18  C   UNL     1      12.317   2.268 -21.624  0.00  0.00    +0.000 C 
ATOM     19  H   UNL     1      13.563   3.689 -21.400  0.00  0.00    +0.000 HD
ENDBRANCH  12  13
ENDBRANCH   6  12
TORSDOF 2
ENDMDL
MODEL 5
REMARK VINA RESULT:      -4.9     15.352     18.410
REMARK  Name = 6323266_Tipiracil.pdbqt.pdb
REMARK  2 active torsions:
REMARK  status: ('A' for Active; 'I' for Inactive)
REMARK    1  A    between atoms: C_6  and  C_12
REMARK    2  A    between atoms: C_12  and  N_13
REMARK                            x       y       z     vdW  Elec       q    Type
REMARK                         _______ _______ _______ _____ _____    ______ ____
ROOT
ATOM      1 CL   UNL     1     -14.198   8.269 -10.542  0.00  0.00    +0.000 Cl
ATOM      2  O   UNL     1     -12.890   6.659 -12.716  0.00  0.00    +0.000 OA
ATOM      3  O   UNL     1      -9.997   4.332 -10.122  0.00  0.00    +0.000 OA
ATOM      4  N   UNL     1     -11.389   5.825  -9.129  0.00  0.00    +0.000 N 
ATOM      5  N   UNL     1     -11.456   5.494 -11.411  0.00  0.00    +0.000 N 
ATOM      6  C   UNL     1     -12.387   6.762  -9.196  0.00  0.00    +0.000 A 
ATOM      7  C   UNL     1     -12.947   7.099 -10.366  0.00  0.00    +0.000 A 
ATOM      8  C   UNL     1     -12.451   6.419 -11.596  0.00  0.00    +0.000 A 
ATOM      9  C   UNL     1     -10.892   5.164 -10.214  0.00  0.00    +0.000 A 
ATOM     10  H   UNL     1     -10.978   5.589  -8.228  0.00  0.00    +0.000 HD
ATOM     11  H   UNL     1     -11.105   5.022 -12.231  0.00  0.00    +0.000 HD
ENDROOT
BRANCH   6  12
ATOM     12  C   UNL     1     -12.771   7.338  -7.955  0.00  0.00    +0.000 C 
BRANCH  12  13
ATOM     13  N   UNL     1     -13.046   7.893  -6.644  0.00  0.00    +0.000 N 
ATOM     14  N   UNL     1     -11.094   6.946  -5.465  0.00  0.00    +0.000 NA
ATOM     15  C   UNL     1     -13.383   9.315  -6.564  0.00  0.00    +0.000 C 
ATOM     16  C   UNL     1     -12.748  10.278  -5.567  0.00  0.00    +0.000 C 
ATOM     17  C   UNL     1     -11.886   9.106  -5.096  0.00  0.00    +0.000 C 
ATOM     18  C   UNL     1     -11.988   7.818  -5.747  0.00  0.00    +0.000 C 
ATOM     19  H   UNL     1     -10.454   7.301  -4.746  0.00  0.00    +0.000 HD
ENDBRANCH  12  13
ENDBRANCH   6  12
TORSDOF 2
ENDMDL
MODEL 6
REMARK VINA RESULT:      -4.8     20.723     21.687
REMARK  Name = 6323266_Tipiracil.pdbqt.pdb
REMARK  2 active torsions:
REMARK  status: ('A' for Active; 'I' for Inactive)
REMARK    1  A    between atoms: C_6  and  C_12
REMARK    2  A    between atoms: C_12  and  N_13
REMARK                            x       y       z     vdW  Elec       q    Type
REMARK                         _______ _______ _______ _____ _____    ______ ____
ROOT
ATOM      1 CL   UNL     1      15.093   9.793  -5.138  0.00  0.00    +0.000 Cl
ATOM      2  O   UNL     1      12.354  11.027  -5.093  0.00  0.00    +0.000 OA
ATOM      3  O   UNL     1       9.981   7.331  -6.201  0.00  0.00    +0.000 OA
ATOM      4  N   UNL     1      12.238   7.164  -6.033  0.00  0.00    +0.000 N 
ATOM      5  N   UNL     1      11.177   9.174  -5.637  0.00  0.00    +0.000 N 
ATOM      6  C   UNL     1      13.467   7.720  -5.783  0.00  0.00    +0.000 A 
ATOM      7  C   UNL     1      13.592   9.014  -5.459  0.00  0.00    +0.000 A 
ATOM      8  C   UNL     1      12.350   9.833  -5.375  0.00  0.00    +0.000 A 
ATOM      9  C   UNL     1      11.065   7.856  -5.970  0.00  0.00    +0.000 A 
ATOM     10  H   UNL     1      12.171   6.180  -6.281  0.00  0.00    +0.000 HD
ATOM     11  H   UNL     1      10.323   9.710  -5.586  0.00  0.00    +0.000 HD
ENDROOT
BRANCH   6  12
ATOM     12  C   UNL     1      14.573   6.835  -5.896  0.00  0.00    +0.000 C 
BRANCH  12  13
ATOM     13  N   UNL     1      15.726   5.986  -6.127  0.00  0.00    +0.000 N 
ATOM     14  N   UNL     1      15.039   4.097  -4.692  0.00  0.00    +0.000 NA
ATOM     15  C   UNL     1      16.161   5.788  -7.509  0.00  0.00    +0.000 C 
ATOM     16  C   UNL     1      16.482   4.423  -8.106  0.00  0.00    +0.000 C 
ATOM     17  C   UNL     1      16.072   3.820  -6.762  0.00  0.00    +0.000 C 
ATOM     18  C   UNL     1      15.573   4.672  -5.704  0.00  0.00    +0.000 C 
ATOM     19  H   UNL     1      15.107   3.076  -4.776  0.00  0.00    +0.000 HD
ENDBRANCH  12  13
ENDBRANCH   6  12
TORSDOF 2
ENDMDL
MODEL 7
REMARK VINA RESULT:      -4.7     18.111     18.777
REMARK  Name = 6323266_Tipiracil.pdbqt.pdb
REMARK  2 active torsions:
REMARK  status: ('A' for Active; 'I' for Inactive)
REMARK    1  A    between atoms: C_6  and  C_12
REMARK    2  A    between atoms: C_12  and  N_13
REMARK                            x       y       z     vdW  Elec       q    Type
REMARK                         _______ _______ _______ _____ _____    ______ ____
ROOT
ATOM      1 CL   UNL     1      13.299  -6.486  -9.480  0.00  0.00    +0.000 Cl
ATOM      2  O   UNL     1      15.429  -4.448 -10.059  0.00  0.00    +0.000 OA
ATOM      3  O   UNL     1      14.392  -1.504  -6.776  0.00  0.00    +0.000 OA
ATOM      4  N   UNL     1      13.150  -3.394  -6.974  0.00  0.00    +0.000 N 
ATOM      5  N   UNL     1      14.910  -2.989  -8.410  0.00  0.00    +0.000 N 
ATOM      6  C   UNL     1      12.868  -4.584  -7.594  0.00  0.00    +0.000 A 
ATOM      7  C   UNL     1      13.588  -5.012  -8.639  0.00  0.00    +0.000 A 
ATOM      8  C   UNL     1      14.712  -4.152  -9.107  0.00  0.00    +0.000 A 
ATOM      9  C   UNL     1      14.165  -2.563  -7.350  0.00  0.00    +0.000 A 
ATOM     10  H   UNL     1      12.586  -3.089  -6.184  0.00  0.00    +0.000 HD
ATOM     11  H   UNL     1      15.666  -2.391  -8.711  0.00  0.00    +0.000 HD
ENDROOT
BRANCH   6  12
ATOM     12  C   UNL     1      11.772  -5.310  -7.054  0.00  0.00    +0.000 C 
BRANCH  12  13
ATOM     13  N   UNL     1      10.586  -5.943  -6.513  0.00  0.00    +0.000 N 
ATOM     14  N   UNL     1      11.565  -8.167  -6.074  0.00  0.00    +0.000 NA
ATOM     15  C   UNL     1       9.831  -5.216  -5.492  0.00  0.00    +0.000 C 
ATOM     16  C   UNL     1       9.356  -5.842  -4.186  0.00  0.00    +0.000 C 
ATOM     17  C   UNL     1      10.066  -7.123  -4.628  0.00  0.00    +0.000 C 
ATOM     18  C   UNL     1      10.814  -7.151  -5.866  0.00  0.00    +0.000 C 
ATOM     19  H   UNL     1      11.463  -8.855  -5.318  0.00  0.00    +0.000 HD
ENDBRANCH  12  13
ENDBRANCH   6  12
TORSDOF 2
ENDMDL
MODEL 8
REMARK VINA RESULT:      -4.6     17.583     18.630
REMARK  Name = 6323266_Tipiracil.pdbqt.pdb
REMARK  2 active torsions:
REMARK  status: ('A' for Active; 'I' for Inactive)
REMARK    1  A    between atoms: C_6  and  C_12
REMARK    2  A    between atoms: C_12  and  N_13
REMARK                            x       y       z     vdW  Elec       q    Type
REMARK                         _______ _______ _______ _____ _____    ______ ____
ROOT
ATOM      1 CL   UNL     1      11.198  13.891 -15.663  0.00  0.00    +0.000 Cl
ATOM      2  O   UNL     1      10.177  14.052 -12.842  0.00  0.00    +0.000 OA
ATOM      3  O   UNL     1      10.398   9.640 -11.840  0.00  0.00    +0.000 OA
ATOM      4  N   UNL     1      11.043  10.319 -13.907  0.00  0.00    +0.000 N 
ATOM      5  N   UNL     1      10.300  11.848 -12.347  0.00  0.00    +0.000 N 
ATOM      6  C   UNL     1      11.246  11.307 -14.836  0.00  0.00    +0.000 A 
ATOM      7  C   UNL     1      10.980  12.590 -14.556  0.00  0.00    +0.000 A 
ATOM      8  C   UNL     1      10.458  12.911 -13.198  0.00  0.00    +0.000 A 
ATOM      9  C   UNL     1      10.571  10.546 -12.648  0.00  0.00    +0.000 A 
ATOM     10  H   UNL     1      11.249   9.352 -14.146  0.00  0.00    +0.000 HD
ATOM     11  H   UNL     1       9.947  12.043 -11.422  0.00  0.00    +0.000 HD
ENDROOT
BRANCH   6  12
ATOM     12  C   UNL     1      11.747  10.873 -16.093  0.00  0.00    +0.000 C 
BRANCH  12  13
ATOM     13  N   UNL     1      12.310  10.329 -17.313  0.00  0.00    +0.000 N 
ATOM     14  N   UNL     1      10.262  10.410 -18.690  0.00  0.00    +0.000 NA
ATOM     15  C   UNL     1      13.580  10.882 -17.783  0.00  0.00    +0.000 C 
ATOM     16  C   UNL     1      13.832  11.312 -19.224  0.00  0.00    +0.000 C 
ATOM     17  C   UNL     1      12.375  10.945 -19.511  0.00  0.00    +0.000 C 
ATOM     18  C   UNL     1      11.515  10.487 -18.442  0.00  0.00    +0.000 C 
ATOM     19  H   UNL     1      10.071  10.642 -19.672  0.00  0.00    +0.000 HD
ENDBRANCH  12  13
ENDBRANCH   6  12
TORSDOF 2
ENDMDL
MODEL 9
REMARK VINA RESULT:      -4.5     18.324     19.204
REMARK  Name = 6323266_Tipiracil.pdbqt.pdb
REMARK  2 active torsions:
REMARK  status: ('A' for Active; 'I' for Inactive)
REMARK    1  A    between atoms: C_6  and  C_12
REMARK    2  A    between atoms: C_12  and  N_13
REMARK                            x       y       z     vdW  Elec       q    Type
REMARK                         _______ _______ _______ _____ _____    ______ ____
ROOT
ATOM      1 CL   UNL     1      11.655  13.913 -13.053  0.00  0.00    +0.000 Cl
ATOM      2  O   UNL     1      11.273  13.763 -10.076  0.00  0.00    +0.000 OA
ATOM      3  O   UNL     1      10.374   9.334  -9.779  0.00  0.00    +0.000 OA
ATOM      4  N   UNL     1      10.790  10.224 -11.825  0.00  0.00    +0.000 N 
ATOM      5  N   UNL     1      10.835  11.548  -9.936  0.00  0.00    +0.000 N 
ATOM      6  C   UNL     1      11.096  11.292 -12.628  0.00  0.00    +0.000 A 
ATOM      7  C   UNL     1      11.276  12.517 -12.118  0.00  0.00    +0.000 A 
ATOM      8  C   UNL     1      11.135  12.684 -10.643  0.00  0.00    +0.000 A 
ATOM      9  C   UNL     1      10.650  10.308 -10.470  0.00  0.00    +0.000 A 
ATOM     10  H   UNL     1      10.654   9.304 -12.238  0.00  0.00    +0.000 HD
ATOM     11  H   UNL     1      10.735  11.639  -8.936  0.00  0.00    +0.000 HD
ENDROOT
BRANCH   6  12
ATOM     12  C   UNL     1      11.202  11.003 -14.016  0.00  0.00    +0.000 C 
BRANCH  12  13
ATOM     13  N   UNL     1      11.260  10.593 -15.405  0.00  0.00    +0.000 N 
ATOM     14  N   UNL     1      10.091  12.540 -16.376  0.00  0.00    +0.000 NA
ATOM     15  C   UNL     1      12.545  10.125 -15.924  0.00  0.00    +0.000 C 
ATOM     16  C   UNL     1      13.149  10.604 -17.240  0.00  0.00    +0.000 C 
ATOM     17  C   UNL     1      11.942  11.535 -17.370  0.00  0.00    +0.000 C 
ATOM     18  C   UNL     1      10.949  11.592 -16.320  0.00  0.00    +0.000 C 
ATOM     19  H   UNL     1      10.219  13.096 -17.229  0.00  0.00    +0.000 HD
ENDBRANCH  12  13
ENDBRANCH   6  12
TORSDOF 2
ENDMDL
