MODEL 1
REMARK VINA RESULT:      -6.7      0.000      0.000
REMARK  Name = 6325056_Deoxyelephantopin.pdbqt.pdb
REMARK  3 active torsions:
REMARK  status: ('A' for Active; 'I' for Inactive)
REMARK    1  A    between atoms: C_6  and  O_20
REMARK    2  A    between atoms: O_20  and  C_22
REMARK    3  A    between atoms: C_22  and  C_23
REMARK                            x       y       z     vdW  Elec       q    Type
REMARK                         _______ _______ _______ _____ _____    ______ ____
ROOT
ATOM      1  O   UNL     1      -1.072  -3.171 -19.125  0.00  0.00    +0.000 OA
ATOM      2  O   UNL     1      -0.680   3.333 -19.390  0.00  0.00    +0.000 OA
ATOM      3  O   UNL     1      -0.227  -5.235 -19.673  0.00  0.00    +0.000 OA
ATOM      4  O   UNL     1       1.639   3.321 -19.493  0.00  0.00    +0.000 OA
ATOM      5  C   UNL     1       0.634  -1.799 -20.007  0.00  0.00    +0.000 C 
ATOM      6  C   UNL     1       1.453  -0.630 -20.332  0.00  0.00    +0.000 C 
ATOM      7  C   UNL     1      -0.640  -1.852 -19.313  0.00  0.00    +0.000 C 
ATOM      8  C   UNL     1       0.909   0.621 -20.726  0.00  0.00    +0.000 C 
ATOM      9  C   UNL     1       0.960  -3.189 -20.248  0.00  0.00    +0.000 C 
ATOM     10  C   UNL     1       0.318   1.904 -20.952  0.00  0.00    +0.000 C 
ATOM     11  C   UNL     1      -1.487  -0.796 -18.902  0.00  0.00    +0.000 C 
ATOM     12  C   UNL     1      -1.625   2.508 -20.037  0.00  0.00    +0.000 C 
ATOM     13  C   UNL     1      -2.225   1.526 -19.193  0.00  0.00    +0.000 C 
ATOM     14  C   UNL     1      -2.374   0.268 -18.565  0.00  0.00    +0.000 C 
ATOM     15  C   UNL     1      -1.055   2.003 -21.223  0.00  0.00    +0.000 C 
ATOM     16  C   UNL     1      -0.132  -4.020 -19.673  0.00  0.00    +0.000 C 
ATOM     17  C   UNL     1       0.553   2.949 -19.899  0.00  0.00    +0.000 C 
ATOM     18  C   UNL     1       2.008  -3.659 -20.934  0.00  0.00    +0.000 C 
ATOM     19  C   UNL     1      -3.603  -0.021 -17.765  0.00  0.00    +0.000 C 
ENDROOT
BRANCH   6  20
ATOM     20  O   UNL     1       2.838  -0.776 -20.518  0.00  0.00    +0.000 OA
BRANCH  20  22
ATOM     21  O   UNL     1       4.096   1.056 -19.918  0.00  0.00    +0.000 OA
ATOM     22  C   UNL     1       3.627  -0.049 -19.654  0.00  0.00    +0.000 C 
BRANCH  22  23
ATOM     23  C   UNL     1       3.809  -0.805 -18.362  0.00  0.00    +0.000 C 
ATOM     24  C   UNL     1       4.424  -2.193 -18.292  0.00  0.00    +0.000 C 
ATOM     25  C   UNL     1       3.494  -0.266 -17.177  0.00  0.00    +0.000 C 
ENDBRANCH  22  23
ENDBRANCH  20  22
ENDBRANCH   6  20
TORSDOF 3
ENDMDL
MODEL 2
REMARK VINA RESULT:      -6.5      1.738      4.742
REMARK  Name = 6325056_Deoxyelephantopin.pdbqt.pdb
REMARK  3 active torsions:
REMARK  status: ('A' for Active; 'I' for Inactive)
REMARK    1  A    between atoms: C_6  and  O_20
REMARK    2  A    between atoms: O_20  and  C_22
REMARK    3  A    between atoms: C_22  and  C_23
REMARK                            x       y       z     vdW  Elec       q    Type
REMARK                         _______ _______ _______ _____ _____    ______ ____
ROOT
ATOM      1  O   UNL     1       2.200   2.136 -19.344  0.00  0.00    +0.000 OA
ATOM      2  O   UNL     1      -3.816  -0.113 -20.476  0.00  0.00    +0.000 OA
ATOM      3  O   UNL     1       4.296   1.839 -18.453  0.00  0.00    +0.000 OA
ATOM      4  O   UNL     1      -3.113  -2.324 -20.573  0.00  0.00    +0.000 OA
ATOM      5  C   UNL     1       1.284   0.002 -18.919  0.00  0.00    +0.000 C 
ATOM      6  C   UNL     1       0.383  -1.151 -18.916  0.00  0.00    +0.000 C 
ATOM      7  C   UNL     1       1.064   1.326 -19.474  0.00  0.00    +0.000 C 
ATOM      8  C   UNL     1      -1.022  -1.046 -18.746  0.00  0.00    +0.000 C 
ATOM      9  C   UNL     1       2.642   0.052 -18.422  0.00  0.00    +0.000 C 
ATOM     10  C   UNL     1      -2.443  -0.881 -18.743  0.00  0.00    +0.000 C 
ATOM     11  C   UNL     1      -0.112   1.889 -20.021  0.00  0.00    +0.000 C 
ATOM     12  C   UNL     1      -3.444   0.923 -19.593  0.00  0.00    +0.000 C 
ATOM     13  C   UNL     1      -2.562   1.891 -20.159  0.00  0.00    +0.000 C 
ATOM     14  C   UNL     1      -1.321   2.478 -20.495  0.00  0.00    +0.000 C 
ATOM     15  C   UNL     1      -3.003   0.354 -18.381  0.00  0.00    +0.000 C 
ATOM     16  C   UNL     1       3.187   1.405 -18.715  0.00  0.00    +0.000 C 
ATOM     17  C   UNL     1      -3.168  -1.247 -20.006  0.00  0.00    +0.000 C 
ATOM     18  C   UNL     1       3.285  -0.908 -17.746  0.00  0.00    +0.000 C 
ATOM     19  C   UNL     1      -1.287   3.841 -21.108  0.00  0.00    +0.000 C 
ENDROOT
BRANCH   6  20
ATOM     20  O   UNL     1       0.911  -2.451 -18.824  0.00  0.00    +0.000 OA
BRANCH  20  22
ATOM     21  O   UNL     1       0.990  -2.649 -21.116  0.00  0.00    +0.000 OA
ATOM     22  C   UNL     1       0.925  -3.164 -20.002  0.00  0.00    +0.000 C 
BRANCH  22  23
ATOM     23  C   UNL     1       0.860  -4.642 -19.710  0.00  0.00    +0.000 C 
ATOM     24  C   UNL     1       2.019  -5.591 -19.965  0.00  0.00    +0.000 C 
ATOM     25  C   UNL     1      -0.215  -5.204 -19.143  0.00  0.00    +0.000 C 
ENDBRANCH  22  23
ENDBRANCH  20  22
ENDBRANCH   6  20
TORSDOF 3
ENDMDL
MODEL 3
REMARK VINA RESULT:      -6.0     16.510     18.623
REMARK  Name = 6325056_Deoxyelephantopin.pdbqt.pdb
REMARK  3 active torsions:
REMARK  status: ('A' for Active; 'I' for Inactive)
REMARK    1  A    between atoms: C_6  and  O_20
REMARK    2  A    between atoms: O_20  and  C_22
REMARK    3  A    between atoms: C_22  and  C_23
REMARK                            x       y       z     vdW  Elec       q    Type
REMARK                         _______ _______ _______ _____ _____    ______ ____
ROOT
ATOM      1  O   UNL     1      -5.160  15.296 -20.392  0.00  0.00    +0.000 OA
ATOM      2  O   UNL     1      -2.881  16.366 -14.376  0.00  0.00    +0.000 OA
ATOM      3  O   UNL     1      -6.923  14.870 -21.801  0.00  0.00    +0.000 OA
ATOM      4  O   UNL     1      -4.849  17.375 -13.669  0.00  0.00    +0.000 OA
ATOM      5  C   UNL     1      -6.334  15.579 -18.364  0.00  0.00    +0.000 C 
ATOM      6  C   UNL     1      -6.649  15.885 -16.968  0.00  0.00    +0.000 C 
ATOM      7  C   UNL     1      -5.041  15.564 -19.023  0.00  0.00    +0.000 C 
ATOM      8  C   UNL     1      -5.825  15.502 -15.878  0.00  0.00    +0.000 C 
ATOM      9  C   UNL     1      -7.272  15.286 -19.428  0.00  0.00    +0.000 C 
ATOM     10  C   UNL     1      -4.886  15.246 -14.830  0.00  0.00    +0.000 C 
ATOM     11  C   UNL     1      -3.746  15.698 -18.468  0.00  0.00    +0.000 C 
ATOM     12  C   UNL     1      -2.682  15.219 -15.174  0.00  0.00    +0.000 C 
ATOM     13  C   UNL     1      -2.277  15.496 -16.513  0.00  0.00    +0.000 C 
ATOM     14  C   UNL     1      -2.442  15.751 -17.894  0.00  0.00    +0.000 C 
ATOM     15  C   UNL     1      -3.806  14.378 -15.054  0.00  0.00    +0.000 C 
ATOM     16  C   UNL     1      -6.497  15.123 -20.688  0.00  0.00    +0.000 C 
ATOM     17  C   UNL     1      -4.253  16.446 -14.183  0.00  0.00    +0.000 C 
ATOM     18  C   UNL     1      -8.592  15.110 -19.307  0.00  0.00    +0.000 C 
ATOM     19  C   UNL     1      -1.245  15.810 -18.786  0.00  0.00    +0.000 C 
ENDROOT
BRANCH   6  20
ATOM     20  O   UNL     1      -7.928  16.357 -16.627  0.00  0.00    +0.000 OA
BRANCH  20  22
ATOM     21  O   UNL     1      -8.313  17.435 -14.630  0.00  0.00    +0.000 OA
ATOM     22  C   UNL     1      -7.948  17.461 -15.803  0.00  0.00    +0.000 C 
BRANCH  22  23
ATOM     23  C   UNL     1      -7.452  18.672 -16.552  0.00  0.00    +0.000 C 
ATOM     24  C   UNL     1      -8.076  19.158 -17.850  0.00  0.00    +0.000 C 
ATOM     25  C   UNL     1      -6.461  19.439 -16.080  0.00  0.00    +0.000 C 
ENDBRANCH  22  23
ENDBRANCH  20  22
ENDBRANCH   6  20
TORSDOF 3
ENDMDL
MODEL 4
REMARK VINA RESULT:      -6.0      8.794     11.979
REMARK  Name = 6325056_Deoxyelephantopin.pdbqt.pdb
REMARK  3 active torsions:
REMARK  status: ('A' for Active; 'I' for Inactive)
REMARK    1  A    between atoms: C_6  and  O_20
REMARK    2  A    between atoms: O_20  and  C_22
REMARK    3  A    between atoms: C_22  and  C_23
REMARK                            x       y       z     vdW  Elec       q    Type
REMARK                         _______ _______ _______ _____ _____    ______ ____
ROOT
ATOM      1  O   UNL     1     -11.460   0.092 -19.746  0.00  0.00    +0.000 OA
ATOM      2  O   UNL     1     -10.857  -3.757 -24.976  0.00  0.00    +0.000 OA
ATOM      3  O   UNL     1     -11.211   0.428 -17.488  0.00  0.00    +0.000 OA
ATOM      4  O   UNL     1      -9.009  -4.864 -24.111  0.00  0.00    +0.000 OA
ATOM      5  C   UNL     1     -10.464  -2.038 -19.942  0.00  0.00    +0.000 C 
ATOM      6  C   UNL     1      -9.898  -3.264 -20.506  0.00  0.00    +0.000 C 
ATOM      7  C   UNL     1     -11.123  -0.942 -20.628  0.00  0.00    +0.000 C 
ATOM      8  C   UNL     1     -10.485  -3.972 -21.587  0.00  0.00    +0.000 C 
ATOM      9  C   UNL     1     -10.425  -1.613 -18.559  0.00  0.00    +0.000 C 
ATOM     10  C   UNL     1     -11.014  -4.556 -22.782  0.00  0.00    +0.000 C 
ATOM     11  C   UNL     1     -11.518  -0.834 -21.983  0.00  0.00    +0.000 C 
ATOM     12  C   UNL     1     -12.054  -3.353 -24.346  0.00  0.00    +0.000 C 
ATOM     13  C   UNL     1     -12.135  -1.954 -24.076  0.00  0.00    +0.000 C 
ATOM     14  C   UNL     1     -11.987  -0.765 -23.327  0.00  0.00    +0.000 C 
ATOM     15  C   UNL     1     -12.290  -4.187 -23.234  0.00  0.00    +0.000 C 
ATOM     16  C   UNL     1     -11.053  -0.266 -18.478  0.00  0.00    +0.000 C 
ATOM     17  C   UNL     1     -10.157  -4.468 -24.012  0.00  0.00    +0.000 C 
ATOM     18  C   UNL     1      -9.982  -2.321 -17.514  0.00  0.00    +0.000 C 
ATOM     19  C   UNL     1     -12.564   0.514 -23.842  0.00  0.00    +0.000 C 
ENDROOT
BRANCH   6  20
ATOM     20  O   UNL     1      -8.873  -3.941 -19.822  0.00  0.00    +0.000 OA
BRANCH  20  22
ATOM     21  O   UNL     1      -7.148  -4.558 -21.215  0.00  0.00    +0.000 OA
ATOM     22  C   UNL     1      -7.614  -3.804 -20.364  0.00  0.00    +0.000 C 
BRANCH  22  23
ATOM     23  C   UNL     1      -6.923  -2.605 -19.766  0.00  0.00    +0.000 C 
ATOM     24  C   UNL     1      -6.786  -1.277 -20.493  0.00  0.00    +0.000 C 
ATOM     25  C   UNL     1      -6.437  -2.618 -18.519  0.00  0.00    +0.000 C 
ENDBRANCH  22  23
ENDBRANCH  20  22
ENDBRANCH   6  20
TORSDOF 3
ENDMDL
MODEL 5
REMARK VINA RESULT:      -5.9      9.378     12.780
REMARK  Name = 6325056_Deoxyelephantopin.pdbqt.pdb
REMARK  3 active torsions:
REMARK  status: ('A' for Active; 'I' for Inactive)
REMARK    1  A    between atoms: C_6  and  O_20
REMARK    2  A    between atoms: O_20  and  C_22
REMARK    3  A    between atoms: C_22  and  C_23
REMARK                            x       y       z     vdW  Elec       q    Type
REMARK                         _______ _______ _______ _____ _____    ______ ____
ROOT
ATOM      1  O   UNL     1     -12.170   1.487 -21.729  0.00  0.00    +0.000 OA
ATOM      2  O   UNL     1     -11.269  -4.554 -24.014  0.00  0.00    +0.000 OA
ATOM      3  O   UNL     1     -12.139   2.974 -19.978  0.00  0.00    +0.000 OA
ATOM      4  O   UNL     1      -9.595  -5.027 -22.476  0.00  0.00    +0.000 OA
ATOM      5  C   UNL     1     -11.297  -0.419 -20.645  0.00  0.00    +0.000 C 
ATOM      6  C   UNL     1     -10.754  -1.756 -20.401  0.00  0.00    +0.000 C 
ATOM      7  C   UNL     1     -11.810   0.143 -21.882  0.00  0.00    +0.000 C 
ATOM      8  C   UNL     1     -11.268  -2.932 -21.008  0.00  0.00    +0.000 C 
ATOM      9  C   UNL     1     -11.376   0.678 -19.703  0.00  0.00    +0.000 C 
ATOM     10  C   UNL     1     -11.705  -4.063 -21.768  0.00  0.00    +0.000 C 
ATOM     11  C   UNL     1     -12.052  -0.488 -23.125  0.00  0.00    +0.000 C 
ATOM     12  C   UNL     1     -12.497  -3.879 -23.845  0.00  0.00    +0.000 C 
ATOM     13  C   UNL     1     -12.517  -2.552 -24.368  0.00  0.00    +0.000 C 
ATOM     14  C   UNL     1     -12.372  -1.146 -24.349  0.00  0.00    +0.000 C 
ATOM     15  C   UNL     1     -12.900  -3.994 -22.499  0.00  0.00    +0.000 C 
ATOM     16  C   UNL     1     -11.922   1.860 -20.424  0.00  0.00    +0.000 C 
ATOM     17  C   UNL     1     -10.720  -4.642 -22.742  0.00  0.00    +0.000 C 
ATOM     18  C   UNL     1     -11.091   0.635 -18.397  0.00  0.00    +0.000 C 
ATOM     19  C   UNL     1     -12.810  -0.338 -25.528  0.00  0.00    +0.000 C 
ENDROOT
BRANCH   6  20
ATOM     20  O   UNL     1      -9.851  -1.962 -19.344  0.00  0.00    +0.000 OA
BRANCH  20  22
ATOM     21  O   UNL     1      -7.935  -0.884 -20.022  0.00  0.00    +0.000 OA
ATOM     22  C   UNL     1      -8.519  -1.912 -19.689  0.00  0.00    +0.000 C 
BRANCH  22  23
ATOM     23  C   UNL     1      -7.908  -3.286 -19.586  0.00  0.00    +0.000 C 
ATOM     24  C   UNL     1      -8.615  -4.462 -18.932  0.00  0.00    +0.000 C 
ATOM     25  C   UNL     1      -6.717  -3.573 -20.126  0.00  0.00    +0.000 C 
ENDBRANCH  22  23
ENDBRANCH  20  22
ENDBRANCH   6  20
TORSDOF 3
ENDMDL
MODEL 6
REMARK VINA RESULT:      -5.8     10.833     12.147
REMARK  Name = 6325056_Deoxyelephantopin.pdbqt.pdb
REMARK  3 active torsions:
REMARK  status: ('A' for Active; 'I' for Inactive)
REMARK    1  A    between atoms: C_6  and  O_20
REMARK    2  A    between atoms: O_20  and  C_22
REMARK    3  A    between atoms: C_22  and  C_23
REMARK                            x       y       z     vdW  Elec       q    Type
REMARK                         _______ _______ _______ _____ _____    ______ ____
ROOT
ATOM      1  O   UNL     1      10.797  -2.777 -17.526  0.00  0.00    +0.000 OA
ATOM      2  O   UNL     1      12.943   2.952 -19.783  0.00  0.00    +0.000 OA
ATOM      3  O   UNL     1      10.299  -4.991 -17.881  0.00  0.00    +0.000 OA
ATOM      4  O   UNL     1      14.357   1.960 -21.335  0.00  0.00    +0.000 OA
ATOM      5  C   UNL     1      11.718  -2.237 -19.631  0.00  0.00    +0.000 C 
ATOM      6  C   UNL     1      12.390  -1.517 -20.713  0.00  0.00    +0.000 C 
ATOM      7  C   UNL     1      11.366  -1.762 -18.305  0.00  0.00    +0.000 C 
ATOM      8  C   UNL     1      12.166  -0.145 -20.997  0.00  0.00    +0.000 C 
ATOM      9  C   UNL     1      11.314  -3.627 -19.623  0.00  0.00    +0.000 C 
ATOM     10  C   UNL     1      12.039   1.273 -21.140  0.00  0.00    +0.000 C 
ATOM     11  C   UNL     1      11.445  -0.457 -17.764  0.00  0.00    +0.000 C 
ATOM     12  C   UNL     1      11.623   2.621 -19.412  0.00  0.00    +0.000 C 
ATOM     13  C   UNL     1      11.512   1.965 -18.150  0.00  0.00    +0.000 C 
ATOM     14  C   UNL     1      11.451   0.874 -17.253  0.00  0.00    +0.000 C 
ATOM     15  C   UNL     1      11.000   1.952 -20.485  0.00  0.00    +0.000 C 
ATOM     16  C   UNL     1      10.748  -3.931 -18.281  0.00  0.00    +0.000 C 
ATOM     17  C   UNL     1      13.258   2.094 -20.828  0.00  0.00    +0.000 C 
ATOM     18  C   UNL     1      11.359  -4.480 -20.653  0.00  0.00    +0.000 C 
ATOM     19  C   UNL     1      11.126   1.113 -15.814  0.00  0.00    +0.000 C 
ENDROOT
BRANCH   6  20
ATOM     20  O   UNL     1      13.104  -2.232 -21.690  0.00  0.00    +0.000 OA
BRANCH  20  22
ATOM     21  O   UNL     1      15.026  -2.936 -20.638  0.00  0.00    +0.000 OA
ATOM     22  C   UNL     1      14.469  -2.273 -21.510  0.00  0.00    +0.000 C 
BRANCH  22  23
ATOM     23  C   UNL     1      15.151  -1.401 -22.534  0.00  0.00    +0.000 C 
ATOM     24  C   UNL     1      16.503  -0.749 -22.300  0.00  0.00    +0.000 C 
ATOM     25  C   UNL     1      14.628  -1.197 -23.750  0.00  0.00    +0.000 C 
ENDBRANCH  22  23
ENDBRANCH  20  22
ENDBRANCH   6  20
TORSDOF 3
ENDMDL
MODEL 7
REMARK VINA RESULT:      -5.7      6.259      8.981
REMARK  Name = 6325056_Deoxyelephantopin.pdbqt.pdb
REMARK  3 active torsions:
REMARK  status: ('A' for Active; 'I' for Inactive)
REMARK    1  A    between atoms: C_6  and  O_20
REMARK    2  A    between atoms: O_20  and  C_22
REMARK    3  A    between atoms: C_22  and  C_23
REMARK                            x       y       z     vdW  Elec       q    Type
REMARK                         _______ _______ _______ _____ _____    ______ ____
ROOT
ATOM      1  O   UNL     1       8.037  -3.035 -20.124  0.00  0.00    +0.000 OA
ATOM      2  O   UNL     1       7.853   3.348 -18.803  0.00  0.00    +0.000 OA
ATOM      3  O   UNL     1       9.246  -4.952 -20.496  0.00  0.00    +0.000 OA
ATOM      4  O   UNL     1       9.818   3.283 -17.568  0.00  0.00    +0.000 OA
ATOM      5  C   UNL     1       9.795  -1.558 -19.580  0.00  0.00    +0.000 C 
ATOM      6  C   UNL     1      10.533  -0.373 -19.139  0.00  0.00    +0.000 C 
ATOM      7  C   UNL     1       8.365  -1.722 -19.762  0.00  0.00    +0.000 C 
ATOM      8  C   UNL     1      10.181   0.951 -19.510  0.00  0.00    +0.000 C 
ATOM      9  C   UNL     1      10.338  -2.869 -19.868  0.00  0.00    +0.000 C 
ATOM     10  C   UNL     1       9.692   2.271 -19.768  0.00  0.00    +0.000 C 
ATOM     11  C   UNL     1       7.332  -0.757 -19.704  0.00  0.00    +0.000 C 
ATOM     12  C   UNL     1       7.522   2.719 -20.022  0.00  0.00    +0.000 C 
ATOM     13  C   UNL     1       6.654   1.594 -19.887  0.00  0.00    +0.000 C 
ATOM     14  C   UNL     1       6.307   0.233 -19.725  0.00  0.00    +0.000 C 
ATOM     15  C   UNL     1       8.706   2.472 -20.745  0.00  0.00    +0.000 C 
ATOM     16  C   UNL     1       9.202  -3.771 -20.197  0.00  0.00    +0.000 C 
ATOM     17  C   UNL     1       9.190   3.047 -18.585  0.00  0.00    +0.000 C 
ATOM     18  C   UNL     1      11.631  -3.209 -19.913  0.00  0.00    +0.000 C 
ATOM     19  C   UNL     1       4.877  -0.187 -19.845  0.00  0.00    +0.000 C 
ENDROOT
BRANCH   6  20
ATOM     20  O   UNL     1      11.790  -0.519 -18.528  0.00  0.00    +0.000 OA
BRANCH  20  22
ATOM     21  O   UNL     1      11.914  -2.019 -16.787  0.00  0.00    +0.000 OA
ATOM     22  C   UNL     1      11.760  -0.871 -17.197  0.00  0.00    +0.000 C 
BRANCH  22  23
ATOM     23  C   UNL     1      11.523   0.351 -16.346  0.00  0.00    +0.000 C 
ATOM     24  C   UNL     1      12.573   1.428 -16.130  0.00  0.00    +0.000 C 
ATOM     25  C   UNL     1      10.338   0.594 -15.773  0.00  0.00    +0.000 C 
ENDBRANCH  22  23
ENDBRANCH  20  22
ENDBRANCH   6  20
TORSDOF 3
ENDMDL
MODEL 8
REMARK VINA RESULT:      -5.7      8.974     11.697
REMARK  Name = 6325056_Deoxyelephantopin.pdbqt.pdb
REMARK  3 active torsions:
REMARK  status: ('A' for Active; 'I' for Inactive)
REMARK    1  A    between atoms: C_6  and  O_20
REMARK    2  A    between atoms: O_20  and  C_22
REMARK    3  A    between atoms: C_22  and  C_23
REMARK                            x       y       z     vdW  Elec       q    Type
REMARK                         _______ _______ _______ _____ _____    ______ ____
ROOT
ATOM      1  O   UNL     1     -10.773  -1.000 -18.106  0.00  0.00    +0.000 OA
ATOM      2  O   UNL     1     -11.398  -0.633 -24.587  0.00  0.00    +0.000 OA
ATOM      3  O   UNL     1     -10.367  -2.242 -16.217  0.00  0.00    +0.000 OA
ATOM      4  O   UNL     1      -9.884  -2.353 -24.962  0.00  0.00    +0.000 OA
ATOM      5  C   UNL     1     -10.390  -2.647 -19.753  0.00  0.00    +0.000 C 
ATOM      6  C   UNL     1     -10.191  -3.305 -21.045  0.00  0.00    +0.000 C 
ATOM      7  C   UNL     1     -10.755  -1.268 -19.481  0.00  0.00    +0.000 C 
ATOM      8  C   UNL     1     -10.982  -3.032 -22.191  0.00  0.00    +0.000 C 
ATOM      9  C   UNL     1     -10.192  -3.222 -18.439  0.00  0.00    +0.000 C 
ATOM     10  C   UNL     1     -11.688  -2.605 -23.360  0.00  0.00    +0.000 C 
ATOM     11  C   UNL     1     -11.152  -0.248 -20.377  0.00  0.00    +0.000 C 
ATOM     12  C   UNL     1     -12.421  -0.514 -23.623  0.00  0.00    +0.000 C 
ATOM     13  C   UNL     1     -12.116   0.371 -22.546  0.00  0.00    +0.000 C 
ATOM     14  C   UNL     1     -11.630   0.751 -21.274  0.00  0.00    +0.000 C 
ATOM     15  C   UNL     1     -12.833  -1.804 -23.232  0.00  0.00    +0.000 C 
ATOM     16  C   UNL     1     -10.433  -2.155 -17.432  0.00  0.00    +0.000 C 
ATOM     17  C   UNL     1     -10.881  -1.910 -24.419  0.00  0.00    +0.000 C 
ATOM     18  C   UNL     1      -9.919  -4.501 -18.157  0.00  0.00    +0.000 C 
ATOM     19  C   UNL     1     -11.862   2.141 -20.776  0.00  0.00    +0.000 C 
ENDROOT
BRANCH   6  20
ATOM     20  O   UNL     1      -9.361  -4.436 -21.134  0.00  0.00    +0.000 OA
BRANCH  20  22
ATOM     21  O   UNL     1      -8.013  -4.594 -22.992  0.00  0.00    +0.000 OA
ATOM     22  C   UNL     1      -8.185  -4.250 -21.826  0.00  0.00    +0.000 C 
BRANCH  22  23
ATOM     23  C   UNL     1      -7.172  -3.564 -20.944  0.00  0.00    +0.000 C 
ATOM     24  C   UNL     1      -6.617  -2.180 -21.239  0.00  0.00    +0.000 C 
ATOM     25  C   UNL     1      -6.742  -4.113 -19.801  0.00  0.00    +0.000 C 
ENDBRANCH  22  23
ENDBRANCH  20  22
ENDBRANCH   6  20
TORSDOF 3
ENDMDL
MODEL 9
REMARK VINA RESULT:      -5.7      8.122     11.294
REMARK  Name = 6325056_Deoxyelephantopin.pdbqt.pdb
REMARK  3 active torsions:
REMARK  status: ('A' for Active; 'I' for Inactive)
REMARK    1  A    between atoms: C_6  and  O_20
REMARK    2  A    between atoms: O_20  and  C_22
REMARK    3  A    between atoms: C_22  and  C_23
REMARK                            x       y       z     vdW  Elec       q    Type
REMARK                         _______ _______ _______ _____ _____    ______ ____
ROOT
ATOM      1  O   UNL     1       9.142   2.539 -22.054  0.00  0.00    +0.000 OA
ATOM      2  O   UNL     1      10.288   0.299 -16.038  0.00  0.00    +0.000 OA
ATOM      3  O   UNL     1       9.896   3.032 -24.167  0.00  0.00    +0.000 OA
ATOM      4  O   UNL     1      11.942  -1.164 -16.755  0.00  0.00    +0.000 OA
ATOM      5  C   UNL     1      11.088   1.546 -21.161  0.00  0.00    +0.000 C 
ATOM      6  C   UNL     1      12.005   0.835 -20.270  0.00  0.00    +0.000 C 
ATOM      7  C   UNL     1       9.712   1.941 -20.923  0.00  0.00    +0.000 C 
ATOM      8  C   UNL     1      12.051   1.044 -18.867  0.00  0.00    +0.000 C 
ATOM      9  C   UNL     1      11.338   1.954 -22.528  0.00  0.00    +0.000 C 
ATOM     10  C   UNL     1      11.948   1.162 -17.444  0.00  0.00    +0.000 C 
ATOM     11  C   UNL     1       8.949   1.876 -19.733  0.00  0.00    +0.000 C 
ATOM     12  C   UNL     1      10.025   1.633 -16.417  0.00  0.00    +0.000 C 
ATOM     13  C   UNL     1       8.901   1.789 -17.282  0.00  0.00    +0.000 C 
ATOM     14  C   UNL     1       8.212   1.883 -18.513  0.00  0.00    +0.000 C 
ATOM     15  C   UNL     1      11.218   2.220 -16.882  0.00  0.00    +0.000 C 
ATOM     16  C   UNL     1      10.089   2.566 -23.057  0.00  0.00    +0.000 C 
ATOM     17  C   UNL     1      11.456  -0.048 -16.702  0.00  0.00    +0.000 C 
ATOM     18  C   UNL     1      12.499   1.876 -23.188  0.00  0.00    +0.000 C 
ATOM     19  C   UNL     1       6.765   2.256 -18.527  0.00  0.00    +0.000 C 
ENDROOT
BRANCH   6  20
ATOM     20  O   UNL     1      13.068   0.090 -20.809  0.00  0.00    +0.000 OA
BRANCH  20  22
ATOM     21  O   UNL     1      13.051  -2.012 -19.871  0.00  0.00    +0.000 OA
ATOM     22  C   UNL     1      12.877  -1.274 -20.837  0.00  0.00    +0.000 C 
BRANCH  22  23
ATOM     23  C   UNL     1      12.421  -1.701 -22.209  0.00  0.00    +0.000 C 
ATOM     24  C   UNL     1      10.969  -2.003 -22.545  0.00  0.00    +0.000 C 
ATOM     25  C   UNL     1      13.268  -1.782 -23.243  0.00  0.00    +0.000 C 
ENDBRANCH  22  23
ENDBRANCH  20  22
ENDBRANCH   6  20
TORSDOF 3
ENDMDL
