MODEL 1
REMARK VINA RESULT:      -6.1      0.000      0.000
REMARK  Name = 641785_Cardamonin.pdbqt.pdb
REMARK  6 active torsions:
REMARK  status: ('A' for Active; 'I' for Inactive)
REMARK    1  A    between atoms: C_1  and  C_14
REMARK    2  A    between atoms: C_2  and  O_7
REMARK    3  A    between atoms: C_3  and  O_9
REMARK    4  A    between atoms: C_6  and  O_11
REMARK    5  A    between atoms: C_14  and  C_15
REMARK    6  A    between atoms: C_16  and  C_17
REMARK                            x       y       z     vdW  Elec       q    Type
REMARK                         _______ _______ _______ _____ _____    ______ ____
ROOT
ATOM      1  C   UNL     1       5.173   0.031 -19.006  0.00  0.00    +0.000 A 
ATOM      2  C   UNL     1       5.385  -1.360 -18.999  0.00  0.00    +0.000 A 
ATOM      3  C   UNL     1       3.940   0.533 -18.541  0.00  0.00    +0.000 A 
ATOM      4  C   UNL     1       4.360  -2.209 -18.557  0.00  0.00    +0.000 A 
ATOM      5  C   UNL     1       2.927  -0.325 -18.114  0.00  0.00    +0.000 A 
ATOM      6  C   UNL     1       3.142  -1.693 -18.131  0.00  0.00    +0.000 A 
ENDROOT
BRANCH   2   7
ATOM      7  O   UNL     1       6.621  -1.849 -19.354  0.00  0.00    +0.000 OA
ATOM      8  C   UNL     1       6.693  -2.498 -20.593  0.00  0.00    +0.000 C 
ENDBRANCH   2   7
BRANCH   3   9
ATOM      9  O   UNL     1       3.641   1.870 -18.475  0.00  0.00    +0.000 OA
ATOM     10  H   UNL     1       4.364   2.392 -18.890  0.00  0.00    +0.000 HD
ENDBRANCH   3   9
BRANCH   6  11
ATOM     11  O   UNL     1       2.144  -2.519 -17.712  0.00  0.00    +0.000 OA
ATOM     12  H   UNL     1       1.848  -2.233 -16.830  0.00  0.00    +0.000 HD
ENDBRANCH   6  11
BRANCH   1  14
ATOM     13  O   UNL     1       5.962   1.706 -20.462  0.00  0.00    +0.000 OA
ATOM     14  C   UNL     1       6.185   1.012 -19.476  0.00  0.00    +0.000 C 
BRANCH  14  15
ATOM     15  C   UNL     1       7.469   1.110 -18.826  0.00  0.00    +0.000 C 
ATOM     16  C   UNL     1       8.546   1.200 -18.300  0.00  0.00    +0.000 C 
BRANCH  16  17
ATOM     17  C   UNL     1       9.821   1.302 -17.671  0.00  0.00    +0.000 A 
ATOM     18  C   UNL     1       9.929   1.150 -16.290  0.00  0.00    +0.000 A 
ATOM     19  C   UNL     1      10.957   1.556 -18.437  0.00  0.00    +0.000 A 
ATOM     20  C   UNL     1      11.174   1.252 -15.674  0.00  0.00    +0.000 A 
ATOM     21  C   UNL     1      12.202   1.657 -17.821  0.00  0.00    +0.000 A 
ATOM     22  C   UNL     1      12.309   1.505 -16.440  0.00  0.00    +0.000 A 
ENDBRANCH  16  17
ENDBRANCH  14  15
ENDBRANCH   1  14
TORSDOF 6
ENDMDL
MODEL 2
REMARK VINA RESULT:      -5.8     18.473     20.717
REMARK  Name = 641785_Cardamonin.pdbqt.pdb
REMARK  6 active torsions:
REMARK  status: ('A' for Active; 'I' for Inactive)
REMARK    1  A    between atoms: C_1  and  C_14
REMARK    2  A    between atoms: C_2  and  O_7
REMARK    3  A    between atoms: C_3  and  O_9
REMARK    4  A    between atoms: C_6  and  O_11
REMARK    5  A    between atoms: C_14  and  C_15
REMARK    6  A    between atoms: C_16  and  C_17
REMARK                            x       y       z     vdW  Elec       q    Type
REMARK                         _______ _______ _______ _____ _____    ______ ____
ROOT
ATOM      1  C   UNL     1       7.357   3.222   1.493  0.00  0.00    +0.000 A 
ATOM      2  C   UNL     1       7.852   3.412   0.189  0.00  0.00    +0.000 A 
ATOM      3  C   UNL     1       8.029   2.329   2.352  0.00  0.00    +0.000 A 
ATOM      4  C   UNL     1       8.981   2.691  -0.228  0.00  0.00    +0.000 A 
ATOM      5  C   UNL     1       9.144   1.612   1.918  0.00  0.00    +0.000 A 
ATOM      6  C   UNL     1       9.609   1.794   0.626  0.00  0.00    +0.000 A 
ENDROOT
BRANCH   2   7
ATOM      7  O   UNL     1       7.263   4.358  -0.618  0.00  0.00    +0.000 OA
ATOM      8  C   UNL     1       8.092   5.400  -1.049  0.00  0.00    +0.000 C 
ENDBRANCH   2   7
BRANCH   3   9
ATOM      9  O   UNL     1       7.651   2.094   3.650  0.00  0.00    +0.000 OA
ATOM     10  H   UNL     1       7.104   1.279   3.692  0.00  0.00    +0.000 HD
ENDBRANCH   3   9
BRANCH   6  11
ATOM     11  O   UNL     1      10.698   1.087   0.215  0.00  0.00    +0.000 OA
ATOM     12  H   UNL     1      11.296   0.962   0.973  0.00  0.00    +0.000 HD
ENDBRANCH   6  11
BRANCH   1  14
ATOM     13  O   UNL     1       6.273   4.781   2.887  0.00  0.00    +0.000 OA
ATOM     14  C   UNL     1       6.157   3.919   2.023  0.00  0.00    +0.000 C 
BRANCH  14  15
ATOM     15  C   UNL     1       4.836   3.539   1.586  0.00  0.00    +0.000 C 
ATOM     16  C   UNL     1       3.741   3.206   1.218  0.00  0.00    +0.000 C 
BRANCH  16  17
ATOM     17  C   UNL     1       2.441   2.817   0.781  0.00  0.00    +0.000 A 
ATOM     18  C   UNL     1       1.612   3.746   0.155  0.00  0.00    +0.000 A 
ATOM     19  C   UNL     1       2.001   1.511   0.982  0.00  0.00    +0.000 A 
ATOM     20  C   UNL     1       0.341   3.367  -0.270  0.00  0.00    +0.000 A 
ATOM     21  C   UNL     1       0.729   1.133   0.556  0.00  0.00    +0.000 A 
ATOM     22  C   UNL     1      -0.100   2.061  -0.069  0.00  0.00    +0.000 A 
ENDBRANCH  16  17
ENDBRANCH  14  15
ENDBRANCH   1  14
TORSDOF 6
ENDMDL
MODEL 3
REMARK VINA RESULT:      -5.8     11.925     15.442
REMARK  Name = 641785_Cardamonin.pdbqt.pdb
REMARK  6 active torsions:
REMARK  status: ('A' for Active; 'I' for Inactive)
REMARK    1  A    between atoms: C_1  and  C_14
REMARK    2  A    between atoms: C_2  and  O_7
REMARK    3  A    between atoms: C_3  and  O_9
REMARK    4  A    between atoms: C_6  and  O_11
REMARK    5  A    between atoms: C_14  and  C_15
REMARK    6  A    between atoms: C_16  and  C_17
REMARK                            x       y       z     vdW  Elec       q    Type
REMARK                         _______ _______ _______ _____ _____    ______ ____
ROOT
ATOM      1  C   UNL     1      -9.193  -3.832 -20.182  0.00  0.00    +0.000 A 
ATOM      2  C   UNL     1     -10.311  -3.101 -19.736  0.00  0.00    +0.000 A 
ATOM      3  C   UNL     1      -9.169  -4.291 -21.515  0.00  0.00    +0.000 A 
ATOM      4  C   UNL     1     -11.377  -2.872 -20.619  0.00  0.00    +0.000 A 
ATOM      5  C   UNL     1     -10.242  -4.063 -22.375  0.00  0.00    +0.000 A 
ATOM      6  C   UNL     1     -11.343  -3.360 -21.919  0.00  0.00    +0.000 A 
ENDROOT
BRANCH   2   7
ATOM      7  O   UNL     1     -10.296  -2.563 -18.470  0.00  0.00    +0.000 OA
ATOM      8  C   UNL     1     -10.317  -1.165 -18.396  0.00  0.00    +0.000 C 
ENDBRANCH   2   7
BRANCH   3   9
ATOM      9  O   UNL     1      -8.117  -4.983 -22.059  0.00  0.00    +0.000 OA
ATOM     10  H   UNL     1      -7.508  -4.358 -22.511  0.00  0.00    +0.000 HD
ENDBRANCH   3   9
BRANCH   6  11
ATOM     11  O   UNL     1     -12.385  -3.146 -22.770  0.00  0.00    +0.000 OA
ATOM     12  H   UNL     1     -12.360  -2.220 -23.072  0.00  0.00    +0.000 HD
ENDBRANCH   6  11
BRANCH   1  14
ATOM     13  O   UNL     1      -7.935  -5.242 -18.775  0.00  0.00    +0.000 OA
ATOM     14  C   UNL     1      -8.024  -4.147 -19.321  0.00  0.00    +0.000 C 
BRANCH  14  15
ATOM     15  C   UNL     1      -7.019  -3.149 -19.055  0.00  0.00    +0.000 C 
ATOM     16  C   UNL     1      -6.193  -2.304 -18.826  0.00  0.00    +0.000 C 
BRANCH  16  17
ATOM     17  C   UNL     1      -5.210  -1.307 -18.559  0.00  0.00    +0.000 A 
ATOM     18  C   UNL     1      -4.967  -0.304 -19.496  0.00  0.00    +0.000 A 
ATOM     19  C   UNL     1      -4.494  -1.337 -17.365  0.00  0.00    +0.000 A 
ATOM     20  C   UNL     1      -4.005   0.670 -19.237  0.00  0.00    +0.000 A 
ATOM     21  C   UNL     1      -3.533  -0.363 -17.106  0.00  0.00    +0.000 A 
ATOM     22  C   UNL     1      -3.289   0.639 -18.042  0.00  0.00    +0.000 A 
ENDBRANCH  16  17
ENDBRANCH  14  15
ENDBRANCH   1  14
TORSDOF 6
ENDMDL
MODEL 4
REMARK VINA RESULT:      -5.7     18.663     20.892
REMARK  Name = 641785_Cardamonin.pdbqt.pdb
REMARK  6 active torsions:
REMARK  status: ('A' for Active; 'I' for Inactive)
REMARK    1  A    between atoms: C_1  and  C_14
REMARK    2  A    between atoms: C_2  and  O_7
REMARK    3  A    between atoms: C_3  and  O_9
REMARK    4  A    between atoms: C_6  and  O_11
REMARK    5  A    between atoms: C_14  and  C_15
REMARK    6  A    between atoms: C_16  and  C_17
REMARK                            x       y       z     vdW  Elec       q    Type
REMARK                         _______ _______ _______ _____ _____    ______ ____
ROOT
ATOM      1  C   UNL     1       7.722   3.126   1.449  0.00  0.00    +0.000 A 
ATOM      2  C   UNL     1       8.361   2.398   2.469  0.00  0.00    +0.000 A 
ATOM      3  C   UNL     1       8.200   3.008   0.127  0.00  0.00    +0.000 A 
ATOM      4  C   UNL     1       9.468   1.597   2.150  0.00  0.00    +0.000 A 
ATOM      5  C   UNL     1       9.307   2.216  -0.171  0.00  0.00    +0.000 A 
ATOM      6  C   UNL     1       9.939   1.519   0.846  0.00  0.00    +0.000 A 
ENDROOT
BRANCH   2   7
ATOM      7  O   UNL     1       7.837   2.428   3.741  0.00  0.00    +0.000 OA
ATOM      8  C   UNL     1       7.142   1.282   4.147  0.00  0.00    +0.000 C 
ENDBRANCH   2   7
BRANCH   3   9
ATOM      9  O   UNL     1       7.631   3.649  -0.945  0.00  0.00    +0.000 OA
ATOM     10  H   UNL     1       6.673   3.437  -0.987  0.00  0.00    +0.000 HD
ENDBRANCH   3   9
BRANCH   6  11
ATOM     11  O   UNL     1      11.021   0.750   0.540  0.00  0.00    +0.000 OA
ATOM     12  H   UNL     1      11.672   0.822   1.261  0.00  0.00    +0.000 HD
ENDBRANCH   6  11
BRANCH   1  14
ATOM     13  O   UNL     1       6.718   5.120   2.200  0.00  0.00    +0.000 OA
ATOM     14  C   UNL     1       6.558   4.019   1.685  0.00  0.00    +0.000 C 
BRANCH  14  15
ATOM     15  C   UNL     1       5.220   3.575   1.384  0.00  0.00    +0.000 C 
ATOM     16  C   UNL     1       4.100   3.222   1.126  0.00  0.00    +0.000 C 
BRANCH  16  17
ATOM     17  C   UNL     1       2.772   2.798   0.824  0.00  0.00    +0.000 A 
ATOM     18  C   UNL     1       1.840   3.718   0.348  0.00  0.00    +0.000 A 
ATOM     19  C   UNL     1       2.409   1.466   1.007  0.00  0.00    +0.000 A 
ATOM     20  C   UNL     1       0.543   3.305   0.055  0.00  0.00    +0.000 A 
ATOM     21  C   UNL     1       1.111   1.053   0.713  0.00  0.00    +0.000 A 
ATOM     22  C   UNL     1       0.180   1.973   0.238  0.00  0.00    +0.000 A 
ENDBRANCH  16  17
ENDBRANCH  14  15
ENDBRANCH   1  14
TORSDOF 6
ENDMDL
MODEL 5
REMARK VINA RESULT:      -5.6     18.303     20.593
REMARK  Name = 641785_Cardamonin.pdbqt.pdb
REMARK  6 active torsions:
REMARK  status: ('A' for Active; 'I' for Inactive)
REMARK    1  A    between atoms: C_1  and  C_14
REMARK    2  A    between atoms: C_2  and  O_7
REMARK    3  A    between atoms: C_3  and  O_9
REMARK    4  A    between atoms: C_6  and  O_11
REMARK    5  A    between atoms: C_14  and  C_15
REMARK    6  A    between atoms: C_16  and  C_17
REMARK                            x       y       z     vdW  Elec       q    Type
REMARK                         _______ _______ _______ _____ _____    ______ ____
ROOT
ATOM      1  C   UNL     1       7.328   4.683   0.682  0.00  0.00    +0.000 A 
ATOM      2  C   UNL     1       7.354   5.540  -0.435  0.00  0.00    +0.000 A 
ATOM      3  C   UNL     1       7.797   5.167   1.920  0.00  0.00    +0.000 A 
ATOM      4  C   UNL     1       7.868   6.837  -0.293  0.00  0.00    +0.000 A 
ATOM      5  C   UNL     1       8.315   6.456   2.041  0.00  0.00    +0.000 A 
ATOM      6  C   UNL     1       8.352   7.282   0.930  0.00  0.00    +0.000 A 
ENDROOT
BRANCH   2   7
ATOM      7  O   UNL     1       6.803   5.109  -1.620  0.00  0.00    +0.000 OA
ATOM      8  C   UNL     1       7.674   5.044  -2.715  0.00  0.00    +0.000 C 
ENDBRANCH   2   7
BRANCH   3   9
ATOM      9  O   UNL     1       7.787   4.428   3.076  0.00  0.00    +0.000 OA
ATOM     10  H   UNL     1       8.245   3.572   2.926  0.00  0.00    +0.000 HD
ENDBRANCH   3   9
BRANCH   6  11
ATOM     11  O   UNL     1       8.861   8.538   1.063  0.00  0.00    +0.000 OA
ATOM     12  H   UNL     1       9.206   8.643   1.968  0.00  0.00    +0.000 HD
ENDBRANCH   6  11
BRANCH   1  14
ATOM     13  O   UNL     1       7.611   2.350   0.530  0.00  0.00    +0.000 OA
ATOM     14  C   UNL     1       6.826   3.286   0.632  0.00  0.00    +0.000 C 
BRANCH  14  15
ATOM     15  C   UNL     1       5.409   3.016   0.626  0.00  0.00    +0.000 C 
ATOM     16  C   UNL     1       4.225   2.806   0.631  0.00  0.00    +0.000 C 
BRANCH  16  17
ATOM     17  C   UNL     1       2.822   2.551   0.635  0.00  0.00    +0.000 A 
ATOM     18  C   UNL     1       2.354   1.249   0.805  0.00  0.00    +0.000 A 
ATOM     19  C   UNL     1       1.923   3.601   0.468  0.00  0.00    +0.000 A 
ATOM     20  C   UNL     1       0.984   0.999   0.807  0.00  0.00    +0.000 A 
ATOM     21  C   UNL     1       0.553   3.350   0.470  0.00  0.00    +0.000 A 
ATOM     22  C   UNL     1       0.085   2.049   0.640  0.00  0.00    +0.000 A 
ENDBRANCH  16  17
ENDBRANCH  14  15
ENDBRANCH   1  14
TORSDOF 6
ENDMDL
MODEL 6
REMARK VINA RESULT:      -5.6     20.203     22.378
REMARK  Name = 641785_Cardamonin.pdbqt.pdb
REMARK  6 active torsions:
REMARK  status: ('A' for Active; 'I' for Inactive)
REMARK    1  A    between atoms: C_1  and  C_14
REMARK    2  A    between atoms: C_2  and  O_7
REMARK    3  A    between atoms: C_3  and  O_9
REMARK    4  A    between atoms: C_6  and  O_11
REMARK    5  A    between atoms: C_14  and  C_15
REMARK    6  A    between atoms: C_16  and  C_17
REMARK                            x       y       z     vdW  Elec       q    Type
REMARK                         _______ _______ _______ _____ _____    ______ ____
ROOT
ATOM      1  C   UNL     1       1.674   2.351   2.363  0.00  0.00    +0.000 A 
ATOM      2  C   UNL     1       2.018   3.108   1.226  0.00  0.00    +0.000 A 
ATOM      3  C   UNL     1       2.623   1.456   2.896  0.00  0.00    +0.000 A 
ATOM      4  C   UNL     1       3.281   2.933   0.643  0.00  0.00    +0.000 A 
ATOM      5  C   UNL     1       3.871   1.287   2.297  0.00  0.00    +0.000 A 
ATOM      6  C   UNL     1       4.190   2.024   1.168  0.00  0.00    +0.000 A 
ENDROOT
BRANCH   2   7
ATOM      7  O   UNL     1       1.136   4.057   0.763  0.00  0.00    +0.000 OA
ATOM      8  C   UNL     1       0.542   3.791  -0.477  0.00  0.00    +0.000 C 
ENDBRANCH   2   7
BRANCH   3   9
ATOM      9  O   UNL     1       2.403   0.695   4.016  0.00  0.00    +0.000 OA
ATOM     10  H   UNL     1       3.024   0.966   4.728  0.00  0.00    +0.000 HD
ENDBRANCH   3   9
BRANCH   6  11
ATOM     11  O   UNL     1       5.412   1.847   0.593  0.00  0.00    +0.000 OA
ATOM     12  H   UNL     1       5.930   1.230   1.139  0.00  0.00    +0.000 HD
ENDBRANCH   6  11
BRANCH   1  14
ATOM     13  O   UNL     1       0.245   3.063   4.094  0.00  0.00    +0.000 OA
ATOM     14  C   UNL     1       0.356   2.445   3.041  0.00  0.00    +0.000 C 
BRANCH  14  15
ATOM     15  C   UNL     1      -0.792   1.751   2.512  0.00  0.00    +0.000 C 
ATOM     16  C   UNL     1      -1.760   1.188   2.075  0.00  0.00    +0.000 C 
BRANCH  16  17
ATOM     17  C   UNL     1      -2.905   0.513   1.556  0.00  0.00    +0.000 A 
ATOM     18  C   UNL     1      -2.778  -0.778   1.047  0.00  0.00    +0.000 A 
ATOM     19  C   UNL     1      -4.145   1.146   1.558  0.00  0.00    +0.000 A 
ATOM     20  C   UNL     1      -3.895  -1.437   0.538  0.00  0.00    +0.000 A 
ATOM     21  C   UNL     1      -5.262   0.486   1.049  0.00  0.00    +0.000 A 
ATOM     22  C   UNL     1      -5.136  -0.804   0.540  0.00  0.00    +0.000 A 
ENDBRANCH  16  17
ENDBRANCH  14  15
ENDBRANCH   1  14
TORSDOF 6
ENDMDL
MODEL 7
REMARK VINA RESULT:      -5.3      3.072      7.276
REMARK  Name = 641785_Cardamonin.pdbqt.pdb
REMARK  6 active torsions:
REMARK  status: ('A' for Active; 'I' for Inactive)
REMARK    1  A    between atoms: C_1  and  C_14
REMARK    2  A    between atoms: C_2  and  O_7
REMARK    3  A    between atoms: C_3  and  O_9
REMARK    4  A    between atoms: C_6  and  O_11
REMARK    5  A    between atoms: C_14  and  C_15
REMARK    6  A    between atoms: C_16  and  C_17
REMARK                            x       y       z     vdW  Elec       q    Type
REMARK                         _______ _______ _______ _____ _____    ______ ____
ROOT
ATOM      1  C   UNL     1      10.635  -0.015 -18.155  0.00  0.00    +0.000 A 
ATOM      2  C   UNL     1      10.816   1.376 -18.028  0.00  0.00    +0.000 A 
ATOM      3  C   UNL     1      11.160  -0.862 -17.158  0.00  0.00    +0.000 A 
ATOM      4  C   UNL     1      11.532   1.877 -16.931  0.00  0.00    +0.000 A 
ATOM      5  C   UNL     1      11.878  -0.347 -16.079  0.00  0.00    +0.000 A 
ATOM      6  C   UNL     1      12.065   1.021 -15.976  0.00  0.00    +0.000 A 
ENDROOT
BRANCH   2   7
ATOM      7  O   UNL     1      10.219   2.213 -18.942  0.00  0.00    +0.000 OA
ATOM      8  C   UNL     1       9.138   2.968 -18.470  0.00  0.00    +0.000 C 
ENDBRANCH   2   7
BRANCH   3   9
ATOM      9  O   UNL     1      11.014  -2.226 -17.167  0.00  0.00    +0.000 OA
ATOM     10  H   UNL     1      10.067  -2.457 -17.291  0.00  0.00    +0.000 HD
ENDBRANCH   3   9
BRANCH   6  11
ATOM     11  O   UNL     1      12.770   1.509 -14.918  0.00  0.00    +0.000 OA
ATOM     12  H   UNL     1      12.169   2.026 -14.352  0.00  0.00    +0.000 HD
ENDBRANCH   6  11
BRANCH   1  14
ATOM     13  O   UNL     1      10.537  -1.116 -20.235  0.00  0.00    +0.000 OA
ATOM     14  C   UNL     1       9.913  -0.647 -19.289  0.00  0.00    +0.000 C 
BRANCH  14  15
ATOM     15  C   UNL     1       8.472  -0.652 -19.329  0.00  0.00    +0.000 C 
ATOM     16  C   UNL     1       7.271  -0.664 -19.380  0.00  0.00    +0.000 C 
BRANCH  16  17
ATOM     17  C   UNL     1       5.846  -0.674 -19.435  0.00  0.00    +0.000 A 
ATOM     18  C   UNL     1       5.141  -1.782 -18.968  0.00  0.00    +0.000 A 
ATOM     19  C   UNL     1       5.162   0.421 -19.956  0.00  0.00    +0.000 A 
ATOM     20  C   UNL     1       3.749  -1.794 -19.023  0.00  0.00    +0.000 A 
ATOM     21  C   UNL     1       3.769   0.409 -20.010  0.00  0.00    +0.000 A 
ATOM     22  C   UNL     1       3.065  -0.698 -19.544  0.00  0.00    +0.000 A 
ENDBRANCH  16  17
ENDBRANCH  14  15
ENDBRANCH   1  14
TORSDOF 6
ENDMDL
MODEL 8
REMARK VINA RESULT:      -5.3      4.584      7.172
REMARK  Name = 641785_Cardamonin.pdbqt.pdb
REMARK  6 active torsions:
REMARK  status: ('A' for Active; 'I' for Inactive)
REMARK    1  A    between atoms: C_1  and  C_14
REMARK    2  A    between atoms: C_2  and  O_7
REMARK    3  A    between atoms: C_3  and  O_9
REMARK    4  A    between atoms: C_6  and  O_11
REMARK    5  A    between atoms: C_14  and  C_15
REMARK    6  A    between atoms: C_16  and  C_17
REMARK                            x       y       z     vdW  Elec       q    Type
REMARK                         _______ _______ _______ _____ _____    ______ ____
ROOT
ATOM      1  C   UNL     1      10.789   0.524 -17.602  0.00  0.00    +0.000 A 
ATOM      2  C   UNL     1      10.578   1.856 -18.006  0.00  0.00    +0.000 A 
ATOM      3  C   UNL     1      11.039   0.260 -16.239  0.00  0.00    +0.000 A 
ATOM      4  C   UNL     1      10.647   2.882 -17.052  0.00  0.00    +0.000 A 
ATOM      5  C   UNL     1      11.115   1.293 -15.306  0.00  0.00    +0.000 A 
ATOM      6  C   UNL     1      10.924   2.600 -15.721  0.00  0.00    +0.000 A 
ENDROOT
BRANCH   2   7
ATOM      7  O   UNL     1      10.233   2.111 -19.313  0.00  0.00    +0.000 OA
ATOM      8  C   UNL     1       8.993   2.731 -19.512  0.00  0.00    +0.000 C 
ENDBRANCH   2   7
BRANCH   3   9
ATOM      9  O   UNL     1      11.227  -1.002 -15.734  0.00  0.00    +0.000 OA
ATOM     10  H   UNL     1      11.752  -1.538 -16.369  0.00  0.00    +0.000 HD
ENDBRANCH   3   9
BRANCH   6  11
ATOM     11  O   UNL     1      11.002   3.599 -14.798  0.00  0.00    +0.000 OA
ATOM     12  H   UNL     1      10.100   3.874 -14.555  0.00  0.00    +0.000 HD
ENDBRANCH   6  11
BRANCH   1  14
ATOM     13  O   UNL     1       9.849  -1.448 -18.480  0.00  0.00    +0.000 OA
ATOM     14  C   UNL     1      10.760  -0.630 -18.536  0.00  0.00    +0.000 C 
BRANCH  14  15
ATOM     15  C   UNL     1      11.838  -0.846 -19.469  0.00  0.00    +0.000 C 
ATOM     16  C   UNL     1      12.732  -1.011 -20.257  0.00  0.00    +0.000 C 
BRANCH  16  17
ATOM     17  C   UNL     1      13.792  -1.212 -21.188  0.00  0.00    +0.000 A 
ATOM     18  C   UNL     1      14.401  -0.115 -21.795  0.00  0.00    +0.000 A 
ATOM     19  C   UNL     1      14.216  -2.504 -21.491  0.00  0.00    +0.000 A 
ATOM     20  C   UNL     1      15.436  -0.312 -22.707  0.00  0.00    +0.000 A 
ATOM     21  C   UNL     1      15.251  -2.699 -22.403  0.00  0.00    +0.000 A 
ATOM     22  C   UNL     1      15.860  -1.603 -23.010  0.00  0.00    +0.000 A 
ENDBRANCH  16  17
ENDBRANCH  14  15
ENDBRANCH   1  14
TORSDOF 6
ENDMDL
MODEL 9
REMARK VINA RESULT:      -5.1     21.948     23.465
REMARK  Name = 641785_Cardamonin.pdbqt.pdb
REMARK  6 active torsions:
REMARK  status: ('A' for Active; 'I' for Inactive)
REMARK    1  A    between atoms: C_1  and  C_14
REMARK    2  A    between atoms: C_2  and  O_7
REMARK    3  A    between atoms: C_3  and  O_9
REMARK    4  A    between atoms: C_6  and  O_11
REMARK    5  A    between atoms: C_14  and  C_15
REMARK    6  A    between atoms: C_16  and  C_17
REMARK                            x       y       z     vdW  Elec       q    Type
REMARK                         _______ _______ _______ _____ _____    ______ ____
ROOT
ATOM      1  C   UNL     1     -13.449   4.873 -10.496  0.00  0.00    +0.000 A 
ATOM      2  C   UNL     1     -13.437   5.385 -11.807  0.00  0.00    +0.000 A 
ATOM      3  C   UNL     1     -14.429   3.922 -10.146  0.00  0.00    +0.000 A 
ATOM      4  C   UNL     1     -14.413   4.957 -12.719  0.00  0.00    +0.000 A 
ATOM      5  C   UNL     1     -15.398   3.515 -11.062  0.00  0.00    +0.000 A 
ATOM      6  C   UNL     1     -15.387   4.041 -12.343  0.00  0.00    +0.000 A 
ENDROOT
BRANCH   2   7
ATOM      7  O   UNL     1     -12.422   6.234 -12.184  0.00  0.00    +0.000 OA
ATOM      8  C   UNL     1     -12.819   7.449 -12.757  0.00  0.00    +0.000 C 
ENDBRANCH   2   7
BRANCH   3   9
ATOM      9  O   UNL     1     -14.511   3.336  -8.908  0.00  0.00    +0.000 OA
ATOM     10  H   UNL     1     -15.360   3.584  -8.480  0.00  0.00    +0.000 HD
ENDBRANCH   3   9
BRANCH   6  11
ATOM     11  O   UNL     1     -16.341   3.636 -13.227  0.00  0.00    +0.000 OA
ATOM     12  H   UNL     1     -16.036   3.832 -14.131  0.00  0.00    +0.000 HD
ENDBRANCH   6  11
BRANCH   1  14
ATOM     13  O   UNL     1     -11.576   4.515  -9.112  0.00  0.00    +0.000 OA
ATOM     14  C   UNL     1     -12.475   5.278  -9.449  0.00  0.00    +0.000 C 
BRANCH  14  15
ATOM     15  C   UNL     1     -12.617   6.539  -8.764  0.00  0.00    +0.000 C 
ATOM     16  C   UNL     1     -12.717   7.590  -8.190  0.00  0.00    +0.000 C 
BRANCH  16  17
ATOM     17  C   UNL     1     -12.842   8.836  -7.508  0.00  0.00    +0.000 A 
ATOM     18  C   UNL     1     -13.454   9.916  -8.143  0.00  0.00    +0.000 A 
ATOM     19  C   UNL     1     -12.351   8.973  -6.212  0.00  0.00    +0.000 A 
ATOM     20  C   UNL     1     -13.575  11.134  -7.478  0.00  0.00    +0.000 A 
ATOM     21  C   UNL     1     -12.473  10.192  -5.548  0.00  0.00    +0.000 A 
ATOM     22  C   UNL     1     -13.084  11.271  -6.182  0.00  0.00    +0.000 A 
ENDBRANCH  16  17
ENDBRANCH  14  15
ENDBRANCH   1  14
TORSDOF 6
ENDMDL
