MODEL 1
REMARK VINA RESULT:      -5.7      0.000      0.000
REMARK  Name = 6440856_Goniothalamin.pdbqt.pdb
REMARK  2 active torsions:
REMARK  status: ('A' for Active; 'I' for Inactive)
REMARK    1  A    between atoms: C_1  and  C_5
REMARK    2  A    between atoms: C_2  and  C_10
REMARK                            x       y       z     vdW  Elec       q    Type
REMARK                         _______ _______ _______ _____ _____    ______ ____
ROOT
ATOM      1  C   UNL     1       5.942   4.100  -0.069  0.00  0.00    +0.000 C 
ATOM      2  C   UNL     1       4.951   3.502   0.251  0.00  0.00    +0.000 C 
ENDROOT
BRANCH   1   5
ATOM      3  O   UNL     1       7.266   5.181  -1.830  0.00  0.00    +0.000 OA
ATOM      4  O   UNL     1       8.674   6.252  -3.329  0.00  0.00    +0.000 OA
ATOM      5  C   UNL     1       7.106   4.807  -0.449  0.00  0.00    +0.000 A 
ATOM      6  C   UNL     1       8.165   5.199   0.414  0.00  0.00    +0.000 A 
ATOM      7  C   UNL     1       9.435   5.952   0.092  0.00  0.00    +0.000 A 
ATOM      8  C   UNL     1       9.324   6.136  -1.087  0.00  0.00    +0.000 A 
ATOM      9  C   UNL     1       8.423   5.880  -2.193  0.00  0.00    +0.000 A 
ENDBRANCH   1   5
BRANCH   2  10
ATOM     10  C   UNL     1       3.774   2.792   0.632  0.00  0.00    +0.000 A 
ATOM     11  C   UNL     1       2.536   3.429   0.599  0.00  0.00    +0.000 A 
ATOM     12  C   UNL     1       3.865   1.462   1.038  0.00  0.00    +0.000 A 
ATOM     13  C   UNL     1       1.387   2.736   0.972  0.00  0.00    +0.000 A 
ATOM     14  C   UNL     1       2.716   0.769   1.410  0.00  0.00    +0.000 A 
ATOM     15  C   UNL     1       1.477   1.406   1.377  0.00  0.00    +0.000 A 
ENDBRANCH   2  10
TORSDOF 2
ENDMDL
MODEL 2
REMARK VINA RESULT:      -5.7      1.205      2.062
REMARK  Name = 6440856_Goniothalamin.pdbqt.pdb
REMARK  2 active torsions:
REMARK  status: ('A' for Active; 'I' for Inactive)
REMARK    1  A    between atoms: C_1  and  C_5
REMARK    2  A    between atoms: C_2  and  C_10
REMARK                            x       y       z     vdW  Elec       q    Type
REMARK                         _______ _______ _______ _____ _____    ______ ____
ROOT
ATOM      1  C   UNL     1       5.584   4.115  -0.342  0.00  0.00    +0.000 C 
ATOM      2  C   UNL     1       4.647   3.529   0.129  0.00  0.00    +0.000 C 
ENDROOT
BRANCH   1   5
ATOM      3  O   UNL     1       7.507   5.607  -0.032  0.00  0.00    +0.000 OA
ATOM      4  O   UNL     1       9.363   6.995   0.033  0.00  0.00    +0.000 OA
ATOM      5  C   UNL     1       6.684   4.805  -0.900  0.00  0.00    +0.000 A 
ATOM      6  C   UNL     1       7.076   4.791  -2.267  0.00  0.00    +0.000 A 
ATOM      7  C   UNL     1       8.231   5.495  -2.940  0.00  0.00    +0.000 A 
ATOM      8  C   UNL     1       8.738   6.075  -2.023  0.00  0.00    +0.000 A 
ATOM      9  C   UNL     1       8.593   6.285  -0.596  0.00  0.00    +0.000 A 
ENDBRANCH   1   5
BRANCH   2  10
ATOM     10  C   UNL     1       3.535   2.834   0.688  0.00  0.00    +0.000 A 
ATOM     11  C   UNL     1       3.707   1.556   1.215  0.00  0.00    +0.000 A 
ATOM     12  C   UNL     1       2.278   3.434   0.707  0.00  0.00    +0.000 A 
ATOM     13  C   UNL     1       2.619   0.877   1.761  0.00  0.00    +0.000 A 
ATOM     14  C   UNL     1       1.191   2.755   1.253  0.00  0.00    +0.000 A 
ATOM     15  C   UNL     1       1.363   1.477   1.780  0.00  0.00    +0.000 A 
ENDBRANCH   2  10
TORSDOF 2
ENDMDL
MODEL 3
REMARK VINA RESULT:      -5.6     11.976     16.200
REMARK  Name = 6440856_Goniothalamin.pdbqt.pdb
REMARK  2 active torsions:
REMARK  status: ('A' for Active; 'I' for Inactive)
REMARK    1  A    between atoms: C_1  and  C_5
REMARK    2  A    between atoms: C_2  and  C_10
REMARK                            x       y       z     vdW  Elec       q    Type
REMARK                         _______ _______ _______ _____ _____    ______ ____
ROOT
ATOM      1  C   UNL     1      -8.197  -1.984  -0.622  0.00  0.00    +0.000 C 
ATOM      2  C   UNL     1      -7.268  -1.325  -0.244  0.00  0.00    +0.000 C 
ENDROOT
BRANCH   1   5
ATOM      3  O   UNL     1      -9.187  -3.442  -2.330  0.00  0.00    +0.000 OA
ATOM      4  O   UNL     1     -10.312  -4.829  -3.809  0.00  0.00    +0.000 OA
ATOM      5  C   UNL     1      -9.294  -2.758  -1.067  0.00  0.00    +0.000 A 
ATOM      6  C   UNL     1     -10.525  -2.937  -0.380  0.00  0.00    +0.000 A 
ATOM      7  C   UNL     1     -11.739  -3.742  -0.783  0.00  0.00    +0.000 A 
ATOM      8  C   UNL     1     -11.400  -4.195  -1.839  0.00  0.00    +0.000 A 
ATOM      9  C   UNL     1     -10.280  -4.204  -2.760  0.00  0.00    +0.000 A 
ENDBRANCH   1   5
BRANCH   2  10
ATOM     10  C   UNL     1      -6.165  -0.541   0.205  0.00  0.00    +0.000 A 
ATOM     11  C   UNL     1      -4.970  -1.162   0.563  0.00  0.00    +0.000 A 
ATOM     12  C   UNL     1      -6.283   0.845   0.286  0.00  0.00    +0.000 A 
ATOM     13  C   UNL     1      -3.893  -0.396   1.002  0.00  0.00    +0.000 A 
ATOM     14  C   UNL     1      -5.205   1.611   0.725  0.00  0.00    +0.000 A 
ATOM     15  C   UNL     1      -4.010   0.990   1.082  0.00  0.00    +0.000 A 
ENDBRANCH   2  10
TORSDOF 2
ENDMDL
MODEL 4
REMARK VINA RESULT:      -5.4      2.177      2.502
REMARK  Name = 6440856_Goniothalamin.pdbqt.pdb
REMARK  2 active torsions:
REMARK  status: ('A' for Active; 'I' for Inactive)
REMARK    1  A    between atoms: C_1  and  C_5
REMARK    2  A    between atoms: C_2  and  C_10
REMARK                            x       y       z     vdW  Elec       q    Type
REMARK                         _______ _______ _______ _____ _____    ______ ____
ROOT
ATOM      1  C   UNL     1       5.757   2.989   0.603  0.00  0.00    +0.000 C 
ATOM      2  C   UNL     1       4.574   2.789   0.647  0.00  0.00    +0.000 C 
ENDROOT
BRANCH   1   5
ATOM      3  O   UNL     1       8.029   2.115   0.294  0.00  0.00    +0.000 OA
ATOM      4  O   UNL     1      10.251   1.507   0.038  0.00  0.00    +0.000 OA
ATOM      5  C   UNL     1       7.150   3.226   0.555  0.00  0.00    +0.000 A 
ATOM      6  C   UNL     1       7.793   4.480   0.742  0.00  0.00    +0.000 A 
ATOM      7  C   UNL     1       9.265   4.816   0.707  0.00  0.00    +0.000 A 
ATOM      8  C   UNL     1       9.760   3.749   0.480  0.00  0.00    +0.000 A 
ATOM      9  C   UNL     1       9.406   2.362   0.250  0.00  0.00    +0.000 A 
ENDBRANCH   1   5
BRANCH   2  10
ATOM     10  C   UNL     1       3.169   2.550   0.699  0.00  0.00    +0.000 A 
ATOM     11  C   UNL     1       2.278   3.619   0.631  0.00  0.00    +0.000 A 
ATOM     12  C   UNL     1       2.689   1.247   0.818  0.00  0.00    +0.000 A 
ATOM     13  C   UNL     1       0.906   3.385   0.683  0.00  0.00    +0.000 A 
ATOM     14  C   UNL     1       1.316   1.014   0.869  0.00  0.00    +0.000 A 
ATOM     15  C   UNL     1       0.426   2.083   0.801  0.00  0.00    +0.000 A 
ENDBRANCH   2  10
TORSDOF 2
ENDMDL
MODEL 5
REMARK VINA RESULT:      -5.4     11.053     14.420
REMARK  Name = 6440856_Goniothalamin.pdbqt.pdb
REMARK  2 active torsions:
REMARK  status: ('A' for Active; 'I' for Inactive)
REMARK    1  A    between atoms: C_1  and  C_5
REMARK    2  A    between atoms: C_2  and  C_10
REMARK                            x       y       z     vdW  Elec       q    Type
REMARK                         _______ _______ _______ _____ _____    ______ ____
ROOT
ATOM      1  C   UNL     1      -7.132  -1.423  -0.366  0.00  0.00    +0.000 C 
ATOM      2  C   UNL     1      -7.967  -2.115  -0.881  0.00  0.00    +0.000 C 
ENDROOT
BRANCH   1   5
ATOM      3  O   UNL     1      -4.921  -1.214   0.679  0.00  0.00    +0.000 OA
ATOM      4  O   UNL     1      -2.878  -0.790   1.690  0.00  0.00    +0.000 OA
ATOM      5  C   UNL     1      -6.149  -0.605   0.237  0.00  0.00    +0.000 A 
ATOM      6  C   UNL     1      -6.248   0.796   0.459  0.00  0.00    +0.000 A 
ATOM      7  C   UNL     1      -5.250   1.738   1.093  0.00  0.00    +0.000 A 
ATOM      8  C   UNL     1      -4.346   1.000   1.364  0.00  0.00    +0.000 A 
ATOM      9  C   UNL     1      -3.957  -0.394   1.275  0.00  0.00    +0.000 A 
ENDBRANCH   1   5
BRANCH   2  10
ATOM     10  C   UNL     1      -8.959  -2.937  -1.493  0.00  0.00    +0.000 A 
ATOM     11  C   UNL     1      -9.942  -3.539  -0.710  0.00  0.00    +0.000 A 
ATOM     12  C   UNL     1      -8.944  -3.136  -2.871  0.00  0.00    +0.000 A 
ATOM     13  C   UNL     1     -10.911  -4.342  -1.308  0.00  0.00    +0.000 A 
ATOM     14  C   UNL     1      -9.913  -3.939  -3.468  0.00  0.00    +0.000 A 
ATOM     15  C   UNL     1     -10.896  -4.541  -2.686  0.00  0.00    +0.000 A 
ENDBRANCH   2  10
TORSDOF 2
ENDMDL
MODEL 6
REMARK VINA RESULT:      -5.3     21.510     22.371
REMARK  Name = 6440856_Goniothalamin.pdbqt.pdb
REMARK  2 active torsions:
REMARK  status: ('A' for Active; 'I' for Inactive)
REMARK    1  A    between atoms: C_1  and  C_5
REMARK    2  A    between atoms: C_2  and  C_10
REMARK                            x       y       z     vdW  Elec       q    Type
REMARK                         _______ _______ _______ _____ _____    ______ ____
ROOT
ATOM      1  C   UNL     1      -5.052  -1.755 -18.717  0.00  0.00    +0.000 C 
ATOM      2  C   UNL     1      -6.166  -2.200 -18.672  0.00  0.00    +0.000 C 
ENDROOT
BRANCH   1   5
ATOM      3  O   UNL     1      -3.569   0.199 -18.658  0.00  0.00    +0.000 OA
ATOM      4  O   UNL     1      -1.990   1.897 -18.630  0.00  0.00    +0.000 OA
ATOM      5  C   UNL     1      -3.742  -1.226 -18.773  0.00  0.00    +0.000 A 
ATOM      6  C   UNL     1      -2.544  -1.974 -18.933  0.00  0.00    +0.000 A 
ATOM      7  C   UNL     1      -1.115  -1.489 -19.001  0.00  0.00    +0.000 A 
ATOM      8  C   UNL     1      -1.246  -0.304 -18.886  0.00  0.00    +0.000 A 
ATOM      9  C   UNL     1      -2.267   0.710 -18.715  0.00  0.00    +0.000 A 
ENDBRANCH   1   5
BRANCH   2  10
ATOM     10  C   UNL     1      -7.489  -2.730 -18.617  0.00  0.00    +0.000 A 
ATOM     11  C   UNL     1      -8.545  -1.924 -18.197  0.00  0.00    +0.000 A 
ATOM     12  C   UNL     1      -7.724  -4.053 -18.984  0.00  0.00    +0.000 A 
ATOM     13  C   UNL     1      -9.837  -2.442 -18.143  0.00  0.00    +0.000 A 
ATOM     14  C   UNL     1      -9.017  -4.571 -18.931  0.00  0.00    +0.000 A 
ATOM     15  C   UNL     1     -10.072  -3.764 -18.510  0.00  0.00    +0.000 A 
ENDBRANCH   2  10
TORSDOF 2
ENDMDL
MODEL 7
REMARK VINA RESULT:      -5.1     24.482     26.051
REMARK  Name = 6440856_Goniothalamin.pdbqt.pdb
REMARK  2 active torsions:
REMARK  status: ('A' for Active; 'I' for Inactive)
REMARK    1  A    between atoms: C_1  and  C_5
REMARK    2  A    between atoms: C_2  and  C_10
REMARK                            x       y       z     vdW  Elec       q    Type
REMARK                         _______ _______ _______ _____ _____    ______ ____
ROOT
ATOM      1  C   UNL     1       1.914 -15.485 -16.549  0.00  0.00    +0.000 C 
ATOM      2  C   UNL     1       2.504 -15.411 -15.507  0.00  0.00    +0.000 C 
ENDROOT
BRANCH   1   5
ATOM      3  O   UNL     1       1.850 -15.075 -18.968  0.00  0.00    +0.000 OA
ATOM      4  O   UNL     1       1.577 -14.782 -21.252  0.00  0.00    +0.000 OA
ATOM      5  C   UNL     1       1.216 -15.576 -17.776  0.00  0.00    +0.000 A 
ATOM      6  C   UNL     1      -0.081 -16.126 -17.962  0.00  0.00    +0.000 A 
ATOM      7  C   UNL     1      -0.892 -16.261 -19.230  0.00  0.00    +0.000 A 
ATOM      8  C   UNL     1      -0.160 -15.782 -20.047  0.00  0.00    +0.000 A 
ATOM      9  C   UNL     1       1.149 -15.170 -20.176  0.00  0.00    +0.000 A 
ENDBRANCH   1   5
BRANCH   2  10
ATOM     10  C   UNL     1       3.206 -15.323 -14.268  0.00  0.00    +0.000 A 
ATOM     11  C   UNL     1       2.653 -14.614 -13.204  0.00  0.00    +0.000 A 
ATOM     12  C   UNL     1       4.443 -15.947 -14.124  0.00  0.00    +0.000 A 
ATOM     13  C   UNL     1       3.339 -14.527 -11.995  0.00  0.00    +0.000 A 
ATOM     14  C   UNL     1       5.128 -15.861 -12.914  0.00  0.00    +0.000 A 
ATOM     15  C   UNL     1       4.575 -15.152 -11.850  0.00  0.00    +0.000 A 
ENDBRANCH   2  10
TORSDOF 2
ENDMDL
MODEL 8
REMARK VINA RESULT:      -5.1     21.835     23.304
REMARK  Name = 6440856_Goniothalamin.pdbqt.pdb
REMARK  2 active torsions:
REMARK  status: ('A' for Active; 'I' for Inactive)
REMARK    1  A    between atoms: C_1  and  C_5
REMARK    2  A    between atoms: C_2  and  C_10
REMARK                            x       y       z     vdW  Elec       q    Type
REMARK                         _______ _______ _______ _____ _____    ______ ____
ROOT
ATOM      1  C   UNL     1      -1.616  13.975 -19.632  0.00  0.00    +0.000 C 
ATOM      2  C   UNL     1      -2.256  14.197 -18.641  0.00  0.00    +0.000 C 
ENDROOT
BRANCH   1   5
ATOM      3  O   UNL     1      -0.530  14.822 -21.663  0.00  0.00    +0.000 OA
ATOM      4  O   UNL     1       0.560  15.403 -23.626  0.00  0.00    +0.000 OA
ATOM      5  C   UNL     1      -0.861  13.718 -20.800  0.00  0.00    +0.000 A 
ATOM      6  C   UNL     1      -0.380  12.449 -21.223  0.00  0.00    +0.000 A 
ATOM      7  C   UNL     1       0.428  12.091 -22.449  0.00  0.00    +0.000 A 
ATOM      8  C   UNL     1       0.562  13.156 -22.980  0.00  0.00    +0.000 A 
ATOM      9  C   UNL     1       0.217  14.555 -22.816  0.00  0.00    +0.000 A 
ENDBRANCH   1   5
BRANCH   2  10
ATOM     10  C   UNL     1      -3.017  14.460 -17.464  0.00  0.00    +0.000 A 
ATOM     11  C   UNL     1      -2.532  14.062 -16.219  0.00  0.00    +0.000 A 
ATOM     12  C   UNL     1      -4.243  15.115 -17.560  0.00  0.00    +0.000 A 
ATOM     13  C   UNL     1      -3.276  14.319 -15.070  0.00  0.00    +0.000 A 
ATOM     14  C   UNL     1      -4.985  15.371 -16.409  0.00  0.00    +0.000 A 
ATOM     15  C   UNL     1      -4.501  14.974 -15.165  0.00  0.00    +0.000 A 
ENDBRANCH   2  10
TORSDOF 2
ENDMDL
MODEL 9
REMARK VINA RESULT:      -5.0      6.143     10.365
REMARK  Name = 6440856_Goniothalamin.pdbqt.pdb
REMARK  2 active torsions:
REMARK  status: ('A' for Active; 'I' for Inactive)
REMARK    1  A    between atoms: C_1  and  C_5
REMARK    2  A    between atoms: C_2  and  C_10
REMARK                            x       y       z     vdW  Elec       q    Type
REMARK                         _______ _______ _______ _____ _____    ______ ____
ROOT
ATOM      1  C   UNL     1      -1.662   0.934   1.146  0.00  0.00    +0.000 C 
ATOM      2  C   UNL     1      -0.538   1.347   1.048  0.00  0.00    +0.000 C 
ENDROOT
BRANCH   1   5
ATOM      3  O   UNL     1      -4.019   1.088   0.484  0.00  0.00    +0.000 OA
ATOM      4  O   UNL     1      -6.287   1.054   0.002  0.00  0.00    +0.000 OA
ATOM      5  C   UNL     1      -2.986   0.452   1.259  0.00  0.00    +0.000 A 
ATOM      6  C   UNL     1      -3.416  -0.627   2.079  0.00  0.00    +0.000 A 
ATOM      7  C   UNL     1      -4.802  -1.202   2.255  0.00  0.00    +0.000 A 
ATOM      8  C   UNL     1      -5.454  -0.513   1.524  0.00  0.00    +0.000 A 
ATOM      9  C   UNL     1      -5.326   0.601   0.604  0.00  0.00    +0.000 A 
ENDBRANCH   1   5
BRANCH   2  10
ATOM     10  C   UNL     1       0.796   1.836   0.931  0.00  0.00    +0.000 A 
ATOM     11  C   UNL     1       1.873   0.963   1.077  0.00  0.00    +0.000 A 
ATOM     12  C   UNL     1       1.022   3.186   0.672  0.00  0.00    +0.000 A 
ATOM     13  C   UNL     1       3.176   1.442   0.963  0.00  0.00    +0.000 A 
ATOM     14  C   UNL     1       2.325   3.664   0.558  0.00  0.00    +0.000 A 
ATOM     15  C   UNL     1       3.401   2.791   0.703  0.00  0.00    +0.000 A 
ENDBRANCH   2  10
TORSDOF 2
ENDMDL
