MODEL 1
REMARK VINA RESULT:      -3.6      0.000      0.000
REMARK  Name = 649_Dihydrouracil.pdb
REMARK  0 active torsions:
REMARK  status: ('A' for Active; 'I' for Inactive)
REMARK                            x       y       z     vdW  Elec       q    Type
REMARK                         _______ _______ _______ _____ _____    ______ ____
ROOT
ATOM      1  O   UNL     1     -14.209  -3.074  -9.181  0.00  0.00    +0.000 OA
ATOM      2  O   UNL     1     -17.013  -4.198  -5.693  0.00  0.00    +0.000 OA
ATOM      3  N   UNL     1     -17.523  -5.017  -7.773  0.00  0.00    +0.000 N 
ATOM      4  N   UNL     1     -15.630  -3.650  -7.444  0.00  0.00    +0.000 N 
ATOM      5  C   UNL     1     -17.237  -5.117  -9.078  0.00  0.00    +0.000 A 
ATOM      6  C   UNL     1     -16.039  -4.429  -9.646  0.00  0.00    +0.000 A 
ATOM      7  C   UNL     1     -15.200  -3.658  -8.771  0.00  0.00    +0.000 A 
ATOM      8  C   UNL     1     -16.744  -4.284  -6.885  0.00  0.00    +0.000 A 
ATOM      9  H   UNL     1     -18.337  -5.488  -7.398  0.00  0.00    +0.000 HD
ATOM     10  H   UNL     1     -15.062  -3.117  -6.803  0.00  0.00    +0.000 HD
ENDROOT
TORSDOF 0
ENDMDL
MODEL 2
REMARK VINA RESULT:      -3.5     16.695     17.489
REMARK  Name = 649_Dihydrouracil.pdb
REMARK  0 active torsions:
REMARK  status: ('A' for Active; 'I' for Inactive)
REMARK                            x       y       z     vdW  Elec       q    Type
REMARK                         _______ _______ _______ _____ _____    ______ ____
ROOT
ATOM      1  O   UNL     1      -5.745  -0.112 -19.744  0.00  0.00    +0.000 OA
ATOM      2  O   UNL     1      -1.732   1.942 -18.759  0.00  0.00    +0.000 OA
ATOM      3  N   UNL     1      -2.002  -0.236 -18.096  0.00  0.00    +0.000 N 
ATOM      4  N   UNL     1      -3.723   0.900 -19.240  0.00  0.00    +0.000 N 
ATOM      5  C   UNL     1      -2.761  -1.338 -18.027  0.00  0.00    +0.000 A 
ATOM      6  C   UNL     1      -4.135  -1.349 -18.613  0.00  0.00    +0.000 A 
ATOM      7  C   UNL     1      -4.629  -0.160 -19.250  0.00  0.00    +0.000 A 
ATOM      8  C   UNL     1      -2.433   0.939 -18.701  0.00  0.00    +0.000 A 
ATOM      9  H   UNL     1      -1.072  -0.239 -17.697  0.00  0.00    +0.000 HD
ATOM     10  H   UNL     1      -4.039   1.751 -19.680  0.00  0.00    +0.000 HD
ENDROOT
TORSDOF 0
ENDMDL
MODEL 3
REMARK VINA RESULT:      -3.4      9.767     10.877
REMARK  Name = 649_Dihydrouracil.pdb
REMARK  0 active torsions:
REMARK  status: ('A' for Active; 'I' for Inactive)
REMARK                            x       y       z     vdW  Elec       q    Type
REMARK                         _______ _______ _______ _____ _____    ______ ____
ROOT
ATOM      1  O   UNL     1     -14.514   4.597  -9.053  0.00  0.00    +0.000 OA
ATOM      2  O   UNL     1     -10.109   5.052 -10.353  0.00  0.00    +0.000 OA
ATOM      3  N   UNL     1     -11.720   5.934 -11.727  0.00  0.00    +0.000 N 
ATOM      4  N   UNL     1     -12.309   4.837  -9.724  0.00  0.00    +0.000 N 
ATOM      5  C   UNL     1     -13.012   6.167 -11.992  0.00  0.00    +0.000 A 
ATOM      6  C   UNL     1     -14.074   5.702 -11.050  0.00  0.00    +0.000 A 
ATOM      7  C   UNL     1     -13.688   5.001  -9.858  0.00  0.00    +0.000 A 
ATOM      8  C   UNL     1     -11.294   5.261 -10.588  0.00  0.00    +0.000 A 
ATOM      9  H   UNL     1     -11.008   6.254 -12.372  0.00  0.00    +0.000 HD
ATOM     10  H   UNL     1     -12.005   4.348  -8.897  0.00  0.00    +0.000 HD
ENDROOT
TORSDOF 0
ENDMDL
MODEL 4
REMARK VINA RESULT:      -3.4     28.804     29.529
REMARK  Name = 649_Dihydrouracil.pdb
REMARK  0 active torsions:
REMARK  status: ('A' for Active; 'I' for Inactive)
REMARK                            x       y       z     vdW  Elec       q    Type
REMARK                         _______ _______ _______ _____ _____    ______ ____
ROOT
ATOM      1  O   UNL     1      12.167   1.370 -19.326  0.00  0.00    +0.000 OA
ATOM      2  O   UNL     1      10.976   2.953 -15.158  0.00  0.00    +0.000 OA
ATOM      3  N   UNL     1      10.934   0.684 -15.485  0.00  0.00    +0.000 N 
ATOM      4  N   UNL     1      11.566   2.143 -17.226  0.00  0.00    +0.000 N 
ATOM      5  C   UNL     1      11.115  -0.372 -16.290  0.00  0.00    +0.000 A 
ATOM      6  C   UNL     1      11.566  -0.180 -17.702  0.00  0.00    +0.000 A 
ATOM      7  C   UNL     1      11.799   1.153 -18.181  0.00  0.00    +0.000 A 
ATOM      8  C   UNL     1      11.145   1.993 -15.900  0.00  0.00    +0.000 A 
ATOM      9  H   UNL     1      10.629   0.542 -14.531  0.00  0.00    +0.000 HD
ATOM     10  H   UNL     1      11.720   3.091 -17.532  0.00  0.00    +0.000 HD
ENDROOT
TORSDOF 0
ENDMDL
MODEL 5
REMARK VINA RESULT:      -3.2      1.938      3.070
REMARK  Name = 649_Dihydrouracil.pdb
REMARK  0 active torsions:
REMARK  status: ('A' for Active; 'I' for Inactive)
REMARK                            x       y       z     vdW  Elec       q    Type
REMARK                         _______ _______ _______ _____ _____    ______ ____
ROOT
ATOM      1  O   UNL     1     -18.493  -4.162  -7.480  0.00  0.00    +0.000 OA
ATOM      2  O   UNL     1     -14.195  -5.841  -7.449  0.00  0.00    +0.000 OA
ATOM      3  N   UNL     1     -14.486  -3.676  -8.145  0.00  0.00    +0.000 N 
ATOM      4  N   UNL     1     -16.328  -4.985  -7.472  0.00  0.00    +0.000 N 
ATOM      5  C   UNL     1     -15.299  -2.640  -8.394  0.00  0.00    +0.000 A 
ATOM      6  C   UNL     1     -16.771  -2.762  -8.168  0.00  0.00    +0.000 A 
ATOM      7  C   UNL     1     -17.299  -4.006  -7.681  0.00  0.00    +0.000 A 
ATOM      8  C   UNL     1     -14.946  -4.899  -7.674  0.00  0.00    +0.000 A 
ATOM      9  H   UNL     1     -13.490  -3.582  -8.301  0.00  0.00    +0.000 HD
ATOM     10  H   UNL     1     -16.666  -5.871  -7.130  0.00  0.00    +0.000 HD
ENDROOT
TORSDOF 0
ENDMDL
MODEL 6
REMARK VINA RESULT:      -3.2     32.468     33.835
REMARK  Name = 649_Dihydrouracil.pdb
REMARK  0 active torsions:
REMARK  status: ('A' for Active; 'I' for Inactive)
REMARK                            x       y       z     vdW  Elec       q    Type
REMARK                         _______ _______ _______ _____ _____    ______ ____
ROOT
ATOM      1  O   UNL     1      13.726   4.822  -8.236  0.00  0.00    +0.000 OA
ATOM      2  O   UNL     1      18.127   6.119  -8.731  0.00  0.00    +0.000 OA
ATOM      3  N   UNL     1      17.392   5.638  -6.613  0.00  0.00    +0.000 N 
ATOM      4  N   UNL     1      15.939   5.471  -8.462  0.00  0.00    +0.000 N 
ATOM      5  C   UNL     1      16.407   5.256  -5.790  0.00  0.00    +0.000 A 
ATOM      6  C   UNL     1      15.048   4.945  -6.328  0.00  0.00    +0.000 A 
ATOM      7  C   UNL     1      14.817   5.063  -7.741  0.00  0.00    +0.000 A 
ATOM      8  C   UNL     1      17.220   5.768  -7.985  0.00  0.00    +0.000 A 
ATOM      9  H   UNL     1      18.309   5.846  -6.237  0.00  0.00    +0.000 HD
ATOM     10  H   UNL     1      15.809   5.564  -9.458  0.00  0.00    +0.000 HD
ENDROOT
TORSDOF 0
ENDMDL
MODEL 7
REMARK VINA RESULT:      -3.2     10.699     11.661
REMARK  Name = 649_Dihydrouracil.pdb
REMARK  0 active torsions:
REMARK  status: ('A' for Active; 'I' for Inactive)
REMARK                            x       y       z     vdW  Elec       q    Type
REMARK                         _______ _______ _______ _____ _____    ______ ____
ROOT
ATOM      1  O   UNL     1     -12.178   8.958  -9.707  0.00  0.00    +0.000 OA
ATOM      2  O   UNL     1     -12.815   4.425  -9.119  0.00  0.00    +0.000 OA
ATOM      3  N   UNL     1     -13.169   5.286 -11.214  0.00  0.00    +0.000 N 
ATOM      4  N   UNL     1     -12.503   6.680  -9.433  0.00  0.00    +0.000 N 
ATOM      5  C   UNL     1     -13.188   6.337 -12.045  0.00  0.00    +0.000 A 
ATOM      6  C   UNL     1     -12.834   7.701 -11.548  0.00  0.00    +0.000 A 
ATOM      7  C   UNL     1     -12.475   7.866 -10.167  0.00  0.00    +0.000 A 
ATOM      8  C   UNL     1     -12.829   5.392  -9.871  0.00  0.00    +0.000 A 
ATOM      9  H   UNL     1     -13.410   4.366 -11.562  0.00  0.00    +0.000 HD
ATOM     10  H   UNL     1     -12.256   6.762  -8.459  0.00  0.00    +0.000 HD
ENDROOT
TORSDOF 0
ENDMDL
MODEL 8
REMARK VINA RESULT:      -3.2     11.487     12.269
REMARK  Name = 649_Dihydrouracil.pdb
REMARK  0 active torsions:
REMARK  status: ('A' for Active; 'I' for Inactive)
REMARK                            x       y       z     vdW  Elec       q    Type
REMARK                         _______ _______ _______ _____ _____    ______ ____
ROOT
ATOM      1  O   UNL     1     -11.753   5.246 -11.723  0.00  0.00    +0.000 OA
ATOM      2  O   UNL     1     -12.423   9.241  -9.513  0.00  0.00    +0.000 OA
ATOM      3  N   UNL     1     -11.585   7.484  -8.302  0.00  0.00    +0.000 N 
ATOM      4  N   UNL     1     -12.082   7.242 -10.595  0.00  0.00    +0.000 N 
ATOM      5  C   UNL     1     -11.181   6.208  -8.244  0.00  0.00    +0.000 A 
ATOM      6  C   UNL     1     -11.220   5.345  -9.463  0.00  0.00    +0.000 A 
ATOM      7  C   UNL     1     -11.698   5.905 -10.696  0.00  0.00    +0.000 A 
ATOM      8  C   UNL     1     -12.055   8.073  -9.469  0.00  0.00    +0.000 A 
ATOM      9  H   UNL     1     -11.554   8.060  -7.470  0.00  0.00    +0.000 HD
ATOM     10  H   UNL     1     -12.422   7.666 -11.444  0.00  0.00    +0.000 HD
ENDROOT
TORSDOF 0
ENDMDL
MODEL 9
REMARK VINA RESULT:      -3.2      9.060     10.013
REMARK  Name = 649_Dihydrouracil.pdb
REMARK  0 active torsions:
REMARK  status: ('A' for Active; 'I' for Inactive)
REMARK                            x       y       z     vdW  Elec       q    Type
REMARK                         _______ _______ _______ _____ _____    ______ ____
ROOT
ATOM      1  O   UNL     1      -9.866  -3.735   0.954  0.00  0.00    +0.000 OA
ATOM      2  O   UNL     1     -10.368  -4.684  -3.534  0.00  0.00    +0.000 OA
ATOM      3  N   UNL     1      -8.696  -3.234  -2.935  0.00  0.00    +0.000 N 
ATOM      4  N   UNL     1     -10.101  -4.198  -1.304  0.00  0.00    +0.000 N 
ATOM      5  C   UNL     1      -8.029  -2.569  -1.982  0.00  0.00    +0.000 A 
ATOM      6  C   UNL     1      -8.412  -2.715  -0.546  0.00  0.00    +0.000 A 
ATOM      7  C   UNL     1      -9.508  -3.578  -0.203  0.00  0.00    +0.000 A 
ATOM      8  C   UNL     1      -9.763  -4.080  -2.656  0.00  0.00    +0.000 A 
ATOM      9  H   UNL     1      -8.428  -3.128  -3.905  0.00  0.00    +0.000 HD
ATOM     10  H   UNL     1     -10.874  -4.811  -1.097  0.00  0.00    +0.000 HD
ENDROOT
TORSDOF 0
ENDMDL
