MODEL 1
REMARK VINA RESULT:      -8.0      0.000      0.000
REMARK  Name = 6509753_ManzamineA.pdbqt.pdb
REMARK  2 active torsions:
REMARK  status: ('A' for Active; 'I' for Inactive)
REMARK    1  A    between atoms: C_7  and  O_42
REMARK    2  A    between atoms: C_11  and  C_30
REMARK                            x       y       z     vdW  Elec       q    Type
REMARK                         _______ _______ _______ _____ _____    ______ ____
ROOT
ATOM      1  N   UNL     1     -11.145 -13.133 -17.259  0.00  0.00    +0.000 N 
ATOM      2  N   UNL     1     -15.618 -12.188 -15.273  0.00  0.00    +0.000 N 
ATOM      3  C   UNL     1     -12.782 -11.984 -15.706  0.00  0.00    +0.000 C 
ATOM      4  C   UNL     1     -11.719 -13.116 -15.889  0.00  0.00    +0.000 C 
ATOM      5  C   UNL     1     -12.637 -10.981 -14.488  0.00  0.00    +0.000 C 
ATOM      6  C   UNL     1     -12.519 -11.306 -16.972  0.00  0.00    +0.000 C 
ATOM      7  C   UNL     1     -10.788 -13.455 -14.722  0.00  0.00    +0.000 C 
ATOM      8  C   UNL     1     -14.205 -12.474 -15.686  0.00  0.00    +0.000 C 
ATOM      9  C   UNL     1     -11.786 -11.996 -17.956  0.00  0.00    +0.000 C 
ATOM     10  C   UNL     1     -13.903 -10.496 -14.000  0.00  0.00    +0.000 C 
ATOM     11  C   UNL     1     -11.556 -11.228 -13.544  0.00  0.00    +0.000 C 
ATOM     12  C   UNL     1     -10.932 -12.330 -13.820  0.00  0.00    +0.000 C 
ATOM     13  C   UNL     1     -15.266 -11.101 -14.348  0.00  0.00    +0.000 C 
ATOM     14  C   UNL     1     -11.364 -14.416 -17.932  0.00  0.00    +0.000 C 
ATOM     15  C   UNL     1     -11.145 -14.745 -14.141  0.00  0.00    +0.000 C 
ATOM     16  C   UNL     1     -12.113 -12.059 -19.343  0.00  0.00    +0.000 C 
ATOM     17  C   UNL     1     -16.090 -13.319 -14.492  0.00  0.00    +0.000 C 
ATOM     18  C   UNL     1     -11.699 -15.394 -19.073  0.00  0.00    +0.000 C 
ATOM     19  C   UNL     1     -11.684 -16.024 -13.496  0.00  0.00    +0.000 C 
ATOM     20  C   UNL     1     -12.361 -12.569 -20.402  0.00  0.00    +0.000 C 
ATOM     21  C   UNL     1     -12.173 -15.247 -20.518  0.00  0.00    +0.000 C 
ATOM     22  C   UNL     1     -16.422 -14.592 -13.708  0.00  0.00    +0.000 C 
ATOM     23  C   UNL     1     -12.475 -13.896 -21.156  0.00  0.00    +0.000 C 
ATOM     24  C   UNL     1     -12.656 -17.033 -12.890  0.00  0.00    +0.000 C 
ATOM     25  C   UNL     1     -16.225 -15.932 -13.005  0.00  0.00    +0.000 C 
ATOM     26  C   UNL     1     -15.259 -17.019 -12.564  0.00  0.00    +0.000 C 
ATOM     27  C   UNL     1     -13.775 -17.340 -12.595  0.00  0.00    +0.000 C 
ENDROOT
BRANCH  11  30
ATOM     28  N   UNL     1     -10.430  -9.436 -12.359  0.00  0.00    +0.000 NA
ATOM     29  N   UNL     1     -12.792 -11.826 -10.811  0.00  0.00    +0.000 N 
ATOM     30  C   UNL     1     -11.287 -10.481 -12.324  0.00  0.00    +0.000 A 
ATOM     31  C   UNL     1     -11.889 -10.834 -11.118  0.00  0.00    +0.000 A 
ATOM     32  C   UNL     1     -11.630 -10.138  -9.937  0.00  0.00    +0.000 A 
ATOM     33  C   UNL     1     -10.184  -8.766 -11.211  0.00  0.00    +0.000 A 
ATOM     34  C   UNL     1     -10.738  -9.055  -9.972  0.00  0.00    +0.000 A 
ATOM     35  C   UNL     1     -12.401 -10.748  -8.900  0.00  0.00    +0.000 A 
ATOM     36  C   UNL     1     -13.115 -11.797  -9.475  0.00  0.00    +0.000 A 
ATOM     37  C   UNL     1     -12.556 -10.498  -7.524  0.00  0.00    +0.000 A 
ATOM     38  C   UNL     1     -13.983 -12.617  -8.747  0.00  0.00    +0.000 A 
ATOM     39  C   UNL     1     -13.418 -11.307  -6.779  0.00  0.00    +0.000 A 
ATOM     40  C   UNL     1     -14.117 -12.345  -7.384  0.00  0.00    +0.000 A 
ATOM     41  H   UNL     1     -13.177 -12.483 -11.476  0.00  0.00    +0.000 HD
ENDBRANCH  11  30
BRANCH   7  42
ATOM     42  O   UNL     1      -9.435 -13.497 -15.150  0.00  0.00    +0.000 OA
ATOM     43  H   UNL     1      -9.160 -12.572 -15.266  0.00  0.00    +0.000 HD
ENDBRANCH   7  42
TORSDOF 2
ENDMDL
MODEL 2
REMARK VINA RESULT:      -7.5     20.406     23.255
REMARK  Name = 6509753_ManzamineA.pdbqt.pdb
REMARK  2 active torsions:
REMARK  status: ('A' for Active; 'I' for Inactive)
REMARK    1  A    between atoms: C_7  and  O_42
REMARK    2  A    between atoms: C_11  and  C_30
REMARK                            x       y       z     vdW  Elec       q    Type
REMARK                         _______ _______ _______ _____ _____    ______ ____
ROOT
ATOM      1  N   UNL     1       5.171  -3.839 -21.052  0.00  0.00    +0.000 N 
ATOM      2  N   UNL     1       3.981   0.154 -23.789  0.00  0.00    +0.000 N 
ATOM      3  C   UNL     1       5.419  -1.464 -21.895  0.00  0.00    +0.000 C 
ATOM      4  C   UNL     1       4.872  -2.410 -20.777  0.00  0.00    +0.000 C 
ATOM      5  C   UNL     1       6.327  -0.232 -21.485  0.00  0.00    +0.000 C 
ATOM      6  C   UNL     1       6.203  -2.476 -22.598  0.00  0.00    +0.000 C 
ATOM      7  C   UNL     1       4.919  -1.941 -19.320  0.00  0.00    +0.000 C 
ATOM      8  C   UNL     1       4.358  -0.922 -22.815  0.00  0.00    +0.000 C 
ATOM      9  C   UNL     1       5.948  -3.830 -22.312  0.00  0.00    +0.000 C 
ATOM     10  C   UNL     1       6.190   0.894 -22.374  0.00  0.00    +0.000 C 
ATOM     11  C   UNL     1       6.532   0.004 -20.062  0.00  0.00    +0.000 C 
ATOM     12  C   UNL     1       5.826  -0.811 -19.343  0.00  0.00    +0.000 C 
ATOM     13  C   UNL     1       5.068   1.066 -23.403  0.00  0.00    +0.000 C 
ATOM     14  C   UNL     1       3.954  -4.650 -21.133  0.00  0.00    +0.000 C 
ATOM     15  C   UNL     1       3.576  -1.629 -18.841  0.00  0.00    +0.000 C 
ATOM     16  C   UNL     1       5.813  -4.871 -23.279  0.00  0.00    +0.000 C 
ATOM     17  C   UNL     1       2.722   0.731 -23.347  0.00  0.00    +0.000 C 
ATOM     18  C   UNL     1       2.982  -5.723 -21.658  0.00  0.00    +0.000 C 
ATOM     19  C   UNL     1       2.162  -1.176 -18.472  0.00  0.00    +0.000 C 
ATOM     20  C   UNL     1       5.295  -5.789 -23.855  0.00  0.00    +0.000 C 
ATOM     21  C   UNL     1       2.975  -6.688 -22.842  0.00  0.00    +0.000 C 
ATOM     22  C   UNL     1       1.397   1.208 -22.747  0.00  0.00    +0.000 C 
ATOM     23  C   UNL     1       4.089  -6.729 -23.882  0.00  0.00    +0.000 C 
ATOM     24  C   UNL     1       0.803  -0.485 -18.552  0.00  0.00    +0.000 C 
ATOM     25  C   UNL     1       0.245   1.355 -21.757  0.00  0.00    +0.000 C 
ATOM     26  C   UNL     1      -0.333   0.993 -20.399  0.00  0.00    +0.000 C 
ATOM     27  C   UNL     1       0.026   0.198 -19.156  0.00  0.00    +0.000 C 
ENDROOT
BRANCH  11  30
ATOM     28  N   UNL     1       6.831   2.378 -19.667  0.00  0.00    +0.000 NA
ATOM     29  N   UNL     1       9.048  -0.273 -18.344  0.00  0.00    +0.000 N 
ATOM     30  C   UNL     1       7.264   1.113 -19.467  0.00  0.00    +0.000 A 
ATOM     31  C   UNL     1       8.410   0.891 -18.707  0.00  0.00    +0.000 A 
ATOM     32  C   UNL     1       9.131   1.945 -18.142  0.00  0.00    +0.000 A 
ATOM     33  C   UNL     1       7.534   3.393 -19.117  0.00  0.00    +0.000 A 
ATOM     34  C   UNL     1       8.684   3.259 -18.352  0.00  0.00    +0.000 A 
ATOM     35  C   UNL     1      10.234   1.379 -17.433  0.00  0.00    +0.000 A 
ATOM     36  C   UNL     1      10.156  -0.005 -17.576  0.00  0.00    +0.000 A 
ATOM     37  C   UNL     1      11.290   1.922 -16.678  0.00  0.00    +0.000 A 
ATOM     38  C   UNL     1      11.080  -0.883 -17.003  0.00  0.00    +0.000 A 
ATOM     39  C   UNL     1      12.225   1.060 -16.098  0.00  0.00    +0.000 A 
ATOM     40  C   UNL     1      12.117  -0.316 -16.259  0.00  0.00    +0.000 A 
ATOM     41  H   UNL     1       8.741  -1.202 -18.597  0.00  0.00    +0.000 HD
ENDBRANCH  11  30
BRANCH   7  42
ATOM     42  O   UNL     1       5.490  -2.938 -18.485  0.00  0.00    +0.000 OA
ATOM     43  H   UNL     1       5.000  -2.899 -17.647  0.00  0.00    +0.000 HD
ENDBRANCH   7  42
TORSDOF 2
ENDMDL
MODEL 3
REMARK VINA RESULT:      -7.3     16.863     20.589
REMARK  Name = 6509753_ManzamineA.pdbqt.pdb
REMARK  2 active torsions:
REMARK  status: ('A' for Active; 'I' for Inactive)
REMARK    1  A    between atoms: C_7  and  O_42
REMARK    2  A    between atoms: C_11  and  C_30
REMARK                            x       y       z     vdW  Elec       q    Type
REMARK                         _______ _______ _______ _____ _____    ______ ____
ROOT
ATOM      1  N   UNL     1     -12.965   7.644 -10.044  0.00  0.00    +0.000 N 
ATOM      2  N   UNL     1     -15.415   3.396  -9.153  0.00  0.00    +0.000 N 
ATOM      3  C   UNL     1     -14.118   5.475 -10.658  0.00  0.00    +0.000 C 
ATOM      4  C   UNL     1     -14.233   7.028 -10.513  0.00  0.00    +0.000 C 
ATOM      5  C   UNL     1     -14.547   4.797 -12.024  0.00  0.00    +0.000 C 
ATOM      6  C   UNL     1     -12.673   5.399 -10.470  0.00  0.00    +0.000 C 
ATOM      7  C   UNL     1     -15.070   7.808 -11.530  0.00  0.00    +0.000 C 
ATOM      8  C   UNL     1     -14.808   4.704  -9.566  0.00  0.00    +0.000 C 
ATOM      9  C   UNL     1     -12.013   6.517  -9.927  0.00  0.00    +0.000 C 
ATOM     10  C   UNL     1     -15.069   3.464 -11.856  0.00  0.00    +0.000 C 
ATOM     11  C   UNL     1     -15.113   5.660 -13.052  0.00  0.00    +0.000 C 
ATOM     12  C   UNL     1     -15.267   6.871 -12.617  0.00  0.00    +0.000 C 
ATOM     13  C   UNL     1     -15.503   2.856 -10.518  0.00  0.00    +0.000 C 
ATOM     14  C   UNL     1     -13.142   8.378  -8.789  0.00  0.00    +0.000 C 
ATOM     15  C   UNL     1     -16.303   8.288 -10.914  0.00  0.00    +0.000 C 
ATOM     16  C   UNL     1     -11.023   6.479  -8.901  0.00  0.00    +0.000 C 
ATOM     17  C   UNL     1     -16.763   3.662  -8.680  0.00  0.00    +0.000 C 
ATOM     18  C   UNL     1     -12.820   8.888  -7.371  0.00  0.00    +0.000 C 
ATOM     19  C   UNL     1     -17.637   8.614 -10.238  0.00  0.00    +0.000 C 
ATOM     20  C   UNL     1     -10.503   6.746  -7.851  0.00  0.00    +0.000 C 
ATOM     21  C   UNL     1     -11.720   8.611  -6.348  0.00  0.00    +0.000 C 
ATOM     22  C   UNL     1     -18.144   4.124  -8.206  0.00  0.00    +0.000 C 
ATOM     23  C   UNL     1     -10.605   7.599  -6.585  0.00  0.00    +0.000 C 
ATOM     24  C   UNL     1     -18.930   8.444  -9.445  0.00  0.00    +0.000 C 
ATOM     25  C   UNL     1     -19.336   5.042  -7.953  0.00  0.00    +0.000 C 
ATOM     26  C   UNL     1     -19.960   6.416  -8.138  0.00  0.00    +0.000 C 
ATOM     27  C   UNL     1     -19.657   7.753  -8.792  0.00  0.00    +0.000 C 
ENDROOT
BRANCH  11  30
ATOM     28  N   UNL     1     -14.780   4.824 -15.305  0.00  0.00    +0.000 NA
ATOM     29  N   UNL     1     -18.074   5.622 -13.818  0.00  0.00    +0.000 N 
ATOM     30  C   UNL     1     -15.636   5.237 -14.343  0.00  0.00    +0.000 A 
ATOM     31  C   UNL     1     -17.004   5.265 -14.607  0.00  0.00    +0.000 A 
ATOM     32  C   UNL     1     -17.520   4.878 -15.845  0.00  0.00    +0.000 A 
ATOM     33  C   UNL     1     -15.287   4.450 -16.500  0.00  0.00    +0.000 A 
ATOM     34  C   UNL     1     -16.632   4.452 -16.845  0.00  0.00    +0.000 A 
ATOM     35  C   UNL     1     -18.940   5.022 -15.782  0.00  0.00    +0.000 A 
ATOM     36  C   UNL     1     -19.255   5.487 -14.507  0.00  0.00    +0.000 A 
ATOM     37  C   UNL     1     -19.985   4.794 -16.697  0.00  0.00    +0.000 A 
ATOM     38  C   UNL     1     -20.566   5.739 -14.092  0.00  0.00    +0.000 A 
ATOM     39  C   UNL     1     -21.302   5.041 -16.301  0.00  0.00    +0.000 A 
ATOM     40  C   UNL     1     -21.582   5.504 -15.020  0.00  0.00    +0.000 A 
ATOM     41  H   UNL     1     -18.005   5.933 -12.859  0.00  0.00    +0.000 HD
ENDBRANCH  11  30
BRANCH   7  42
ATOM     42  O   UNL     1     -14.344   8.917 -12.039  0.00  0.00    +0.000 OA
ATOM     43  H   UNL     1     -13.404   8.705 -11.909  0.00  0.00    +0.000 HD
ENDBRANCH   7  42
TORSDOF 2
ENDMDL
MODEL 4
REMARK VINA RESULT:      -7.3     16.815     20.423
REMARK  Name = 6509753_ManzamineA.pdbqt.pdb
REMARK  2 active torsions:
REMARK  status: ('A' for Active; 'I' for Inactive)
REMARK    1  A    between atoms: C_7  and  O_42
REMARK    2  A    between atoms: C_11  and  C_30
REMARK                            x       y       z     vdW  Elec       q    Type
REMARK                         _______ _______ _______ _____ _____    ______ ____
ROOT
ATOM      1  N   UNL     1     -13.579   7.125 -11.330  0.00  0.00    +0.000 N 
ATOM      2  N   UNL     1     -16.522   3.398  -9.815  0.00  0.00    +0.000 N 
ATOM      3  C   UNL     1     -15.237   5.234 -11.619  0.00  0.00    +0.000 C 
ATOM      4  C   UNL     1     -15.015   6.775 -11.479  0.00  0.00    +0.000 C 
ATOM      5  C   UNL     1     -16.094   4.688 -12.835  0.00  0.00    +0.000 C 
ATOM      6  C   UNL     1     -13.830   4.878 -11.774  0.00  0.00    +0.000 C 
ATOM      7  C   UNL     1     -15.900   7.729 -12.284  0.00  0.00    +0.000 C 
ATOM      8  C   UNL     1     -15.788   4.577 -10.382  0.00  0.00    +0.000 C 
ATOM      9  C   UNL     1     -12.860   5.834 -11.420  0.00  0.00    +0.000 C 
ATOM     10  C   UNL     1     -16.809   3.475 -12.525  0.00  0.00    +0.000 C 
ATOM     11  C   UNL     1     -16.708   5.671 -13.716  0.00  0.00    +0.000 C 
ATOM     12  C   UNL     1     -16.521   6.877 -13.279  0.00  0.00    +0.000 C 
ATOM     13  C   UNL     1     -17.027   2.924 -11.112  0.00  0.00    +0.000 C 
ATOM     14  C   UNL     1     -13.313   7.844 -10.082  0.00  0.00    +0.000 C 
ATOM     15  C   UNL     1     -16.840   8.418 -11.406  0.00  0.00    +0.000 C 
ATOM     16  C   UNL     1     -11.684   5.579 -10.653  0.00  0.00    +0.000 C 
ATOM     17  C   UNL     1     -17.645   3.903  -9.044  0.00  0.00    +0.000 C 
ATOM     18  C   UNL     1     -12.578   8.243  -8.788  0.00  0.00    +0.000 C 
ATOM     19  C   UNL     1     -17.891   8.973 -10.442  0.00  0.00    +0.000 C 
ATOM     20  C   UNL     1     -10.892   5.713  -9.760  0.00  0.00    +0.000 C 
ATOM     21  C   UNL     1     -11.344   7.733  -8.046  0.00  0.00    +0.000 C 
ATOM     22  C   UNL     1     -18.763   4.607  -8.269  0.00  0.00    +0.000 C 
ATOM     23  C   UNL     1     -10.531   6.534  -8.520  0.00  0.00    +0.000 C 
ATOM     24  C   UNL     1     -18.972   9.030  -9.365  0.00  0.00    +0.000 C 
ATOM     25  C   UNL     1     -19.664   5.727  -7.759  0.00  0.00    +0.000 C 
ATOM     26  C   UNL     1     -20.038   7.199  -7.817  0.00  0.00    +0.000 C 
ATOM     27  C   UNL     1     -19.645   8.472  -8.548  0.00  0.00    +0.000 C 
ENDROOT
BRANCH  11  30
ATOM     28  N   UNL     1     -18.921   5.582 -14.705  0.00  0.00    +0.000 NA
ATOM     29  N   UNL     1     -15.793   4.659 -16.454  0.00  0.00    +0.000 N 
ATOM     30  C   UNL     1     -17.589   5.393 -14.841  0.00  0.00    +0.000 A 
ATOM     31  C   UNL     1     -17.083   4.922 -16.050  0.00  0.00    +0.000 A 
ATOM     32  C   UNL     1     -17.916   4.636 -17.133  0.00  0.00    +0.000 A 
ATOM     33  C   UNL     1     -19.721   5.303 -15.757  0.00  0.00    +0.000 A 
ATOM     34  C   UNL     1     -19.299   4.828 -16.991  0.00  0.00    +0.000 A 
ATOM     35  C   UNL     1     -17.088   4.181 -18.204  0.00  0.00    +0.000 A 
ATOM     36  C   UNL     1     -15.770   4.207 -17.752  0.00  0.00    +0.000 A 
ATOM     37  C   UNL     1     -17.342   3.753 -19.520  0.00  0.00    +0.000 A 
ATOM     38  C   UNL     1     -14.684   3.827 -18.547  0.00  0.00    +0.000 A 
ATOM     39  C   UNL     1     -16.271   3.368 -20.330  0.00  0.00    +0.000 A 
ATOM     40  C   UNL     1     -14.967   3.407 -19.848  0.00  0.00    +0.000 A 
ATOM     41  H   UNL     1     -14.971   4.790 -15.881  0.00  0.00    +0.000 HD
ENDBRANCH  11  30
BRANCH   7  42
ATOM     42  O   UNL     1     -15.114   8.693 -12.969  0.00  0.00    +0.000 OA
ATOM     43  H   UNL     1     -15.602   9.531 -12.908  0.00  0.00    +0.000 HD
ENDBRANCH   7  42
TORSDOF 2
ENDMDL
MODEL 5
REMARK VINA RESULT:      -7.3     17.837     20.643
REMARK  Name = 6509753_ManzamineA.pdbqt.pdb
REMARK  2 active torsions:
REMARK  status: ('A' for Active; 'I' for Inactive)
REMARK    1  A    between atoms: C_7  and  O_42
REMARK    2  A    between atoms: C_11  and  C_30
REMARK                            x       y       z     vdW  Elec       q    Type
REMARK                         _______ _______ _______ _____ _____    ______ ____
ROOT
ATOM      1  N   UNL     1       5.858  -1.751 -19.785  0.00  0.00    +0.000 N 
ATOM      2  N   UNL     1       3.391  -1.742 -24.117  0.00  0.00    +0.000 N 
ATOM      3  C   UNL     1       4.229  -0.864 -21.509  0.00  0.00    +0.000 C 
ATOM      4  C   UNL     1       4.432  -1.692 -20.198  0.00  0.00    +0.000 C 
ATOM      5  C   UNL     1       3.159   0.304 -21.524  0.00  0.00    +0.000 C 
ATOM      6  C   UNL     1       5.585  -0.327 -21.576  0.00  0.00    +0.000 C 
ATOM      7  C   UNL     1       3.374  -1.604 -19.095  0.00  0.00    +0.000 C 
ATOM      8  C   UNL     1       3.960  -1.702 -22.730  0.00  0.00    +0.000 C 
ATOM      9  C   UNL     1       6.580  -0.933 -20.785  0.00  0.00    +0.000 C 
ATOM     10  C   UNL     1       2.557   0.504 -22.818  0.00  0.00    +0.000 C 
ATOM     11  C   UNL     1       2.351   0.487 -20.326  0.00  0.00    +0.000 C 
ATOM     12  C   UNL     1       2.589  -0.441 -19.452  0.00  0.00    +0.000 C 
ATOM     13  C   UNL     1       2.647  -0.480 -23.988  0.00  0.00    +0.000 C 
ATOM     14  C   UNL     1       6.351  -3.128 -19.707  0.00  0.00    +0.000 C 
ATOM     15  C   UNL     1       2.614  -2.848 -19.018  0.00  0.00    +0.000 C 
ATOM     16  C   UNL     1       7.894  -1.276 -21.223  0.00  0.00    +0.000 C 
ATOM     17  C   UNL     1       2.434  -2.834 -24.173  0.00  0.00    +0.000 C 
ATOM     18  C   UNL     1       7.323  -4.312 -19.872  0.00  0.00    +0.000 C 
ATOM     19  C   UNL     1       1.765  -4.118 -19.111  0.00  0.00    +0.000 C 
ATOM     20  C   UNL     1       8.847  -1.979 -21.426  0.00  0.00    +0.000 C 
ATOM     21  C   UNL     1       8.695  -4.501 -20.515  0.00  0.00    +0.000 C 
ATOM     22  C   UNL     1       1.478  -4.025 -24.056  0.00  0.00    +0.000 C 
ATOM     23  C   UNL     1       9.429  -3.382 -21.244  0.00  0.00    +0.000 C 
ATOM     24  C   UNL     1       0.925  -5.250 -19.696  0.00  0.00    +0.000 C 
ATOM     25  C   UNL     1       0.668  -5.152 -23.423  0.00  0.00    +0.000 C 
ATOM     26  C   UNL     1       0.249  -5.874 -22.154  0.00  0.00    +0.000 C 
ATOM     27  C   UNL     1       0.448  -5.795 -20.650  0.00  0.00    +0.000 C 
ENDROOT
BRANCH  11  30
ATOM     28  N   UNL     1       1.535   2.768 -20.208  0.00  0.00    +0.000 NA
ATOM     29  N   UNL     1      -0.576  -0.248 -19.824  0.00  0.00    +0.000 N 
ATOM     30  C   UNL     1       1.268   1.444 -20.152  0.00  0.00    +0.000 A 
ATOM     31  C   UNL     1      -0.037   1.016 -19.915  0.00  0.00    +0.000 A 
ATOM     32  C   UNL     1      -1.083   1.921 -19.731  0.00  0.00    +0.000 A 
ATOM     33  C   UNL     1       0.517   3.638 -20.029  0.00  0.00    +0.000 A 
ATOM     34  C   UNL     1      -0.806   3.296 -19.786  0.00  0.00    +0.000 A 
ATOM     35  C   UNL     1      -2.274   1.162 -19.515  0.00  0.00    +0.000 A 
ATOM     36  C   UNL     1      -1.927  -0.186 -19.579  0.00  0.00    +0.000 A 
ATOM     37  C   UNL     1      -3.618   1.503 -19.274  0.00  0.00    +0.000 A 
ATOM     38  C   UNL     1      -2.854  -1.220 -19.416  0.00  0.00    +0.000 A 
ATOM     39  C   UNL     1      -4.560   0.484 -19.108  0.00  0.00    +0.000 A 
ATOM     40  C   UNL     1      -4.180  -0.852 -19.179  0.00  0.00    +0.000 A 
ATOM     41  H   UNL     1      -0.054  -1.107 -19.932  0.00  0.00    +0.000 HD
ENDBRANCH  11  30
BRANCH   7  42
ATOM     42  O   UNL     1       3.977  -1.351 -17.834  0.00  0.00    +0.000 OA
ATOM     43  H   UNL     1       3.308  -0.884 -17.306  0.00  0.00    +0.000 HD
ENDBRANCH   7  42
TORSDOF 2
ENDMDL
MODEL 6
REMARK VINA RESULT:      -7.2     23.758     27.196
REMARK  Name = 6509753_ManzamineA.pdbqt.pdb
REMARK  2 active torsions:
REMARK  status: ('A' for Active; 'I' for Inactive)
REMARK    1  A    between atoms: C_7  and  O_42
REMARK    2  A    between atoms: C_11  and  C_30
REMARK                            x       y       z     vdW  Elec       q    Type
REMARK                         _______ _______ _______ _____ _____    ______ ____
ROOT
ATOM      1  N   UNL     1      10.503  -1.171 -17.878  0.00  0.00    +0.000 N 
ATOM      2  N   UNL     1      12.471  -0.157 -22.344  0.00  0.00    +0.000 N 
ATOM      3  C   UNL     1      10.748  -1.376 -20.389  0.00  0.00    +0.000 C 
ATOM      4  C   UNL     1      11.098  -1.964 -18.983  0.00  0.00    +0.000 C 
ATOM      5  C   UNL     1      10.124  -2.330 -21.489  0.00  0.00    +0.000 C 
ATOM      6  C   UNL     1       9.762  -0.407 -19.921  0.00  0.00    +0.000 C 
ATOM      7  C   UNL     1      11.168  -3.484 -18.812  0.00  0.00    +0.000 C 
ATOM      8  C   UNL     1      11.888  -0.651 -21.053  0.00  0.00    +0.000 C 
ATOM      9  C   UNL     1       9.730  -0.101 -18.548  0.00  0.00    +0.000 C 
ATOM     10  C   UNL     1      10.483  -1.957 -22.834  0.00  0.00    +0.000 C 
ATOM     11  C   UNL     1       9.990  -3.741 -21.153  0.00  0.00    +0.000 C 
ATOM     12  C   UNL     1      10.518  -4.002 -19.998  0.00  0.00    +0.000 C 
ATOM     13  C   UNL     1      11.603  -0.979 -23.201  0.00  0.00    +0.000 C 
ATOM     14  C   UNL     1      11.522  -0.655 -16.960  0.00  0.00    +0.000 C 
ATOM     15  C   UNL     1      12.552  -3.915 -18.642  0.00  0.00    +0.000 C 
ATOM     16  C   UNL     1       9.632   1.210 -17.992  0.00  0.00    +0.000 C 
ATOM     17  C   UNL     1      13.828  -0.669 -22.442  0.00  0.00    +0.000 C 
ATOM     18  C   UNL     1      12.241   0.347 -16.037  0.00  0.00    +0.000 C 
ATOM     19  C   UNL     1      14.034  -4.296 -18.632  0.00  0.00    +0.000 C 
ATOM     20  C   UNL     1       9.939   2.152 -17.312  0.00  0.00    +0.000 C 
ATOM     21  C   UNL     1      12.031   1.813 -15.662  0.00  0.00    +0.000 C 
ATOM     22  C   UNL     1      15.231  -1.278 -22.375  0.00  0.00    +0.000 C 
ATOM     23  C   UNL     1      10.921   2.670 -16.260  0.00  0.00    +0.000 C 
ATOM     24  C   UNL     1      15.506  -4.367 -19.029  0.00  0.00    +0.000 C 
ATOM     25  C   UNL     1      16.399  -2.127 -21.884  0.00  0.00    +0.000 C 
ATOM     26  C   UNL     1      16.905  -3.165 -20.895  0.00  0.00    +0.000 C 
ATOM     27  C   UNL     1      16.402  -4.015 -19.741  0.00  0.00    +0.000 C 
ENDROOT
BRANCH  11  30
ATOM     28  N   UNL     1      10.409  -5.592 -22.664  0.00  0.00    +0.000 NA
ATOM     29  N   UNL     1       7.049  -4.351 -21.734  0.00  0.00    +0.000 N 
ATOM     30  C   UNL     1       9.514  -4.798 -22.034  0.00  0.00    +0.000 A 
ATOM     31  C   UNL     1       8.152  -4.995 -22.248  0.00  0.00    +0.000 A 
ATOM     32  C   UNL     1       7.680  -5.993 -23.102  0.00  0.00    +0.000 A 
ATOM     33  C   UNL     1       9.945  -6.556 -23.488  0.00  0.00    +0.000 A 
ATOM     34  C   UNL     1       8.609  -6.816 -23.759  0.00  0.00    +0.000 A 
ATOM     35  C   UNL     1       6.253  -5.927 -23.094  0.00  0.00    +0.000 A 
ATOM     36  C   UNL     1       5.889  -4.894 -22.233  0.00  0.00    +0.000 A 
ATOM     37  C   UNL     1       5.239  -6.656 -23.742  0.00  0.00    +0.000 A 
ATOM     38  C   UNL     1       4.558  -4.548 -21.980  0.00  0.00    +0.000 A 
ATOM     39  C   UNL     1       3.903  -6.324 -23.503  0.00  0.00    +0.000 A 
ATOM     40  C   UNL     1       3.574  -5.289 -22.636  0.00  0.00    +0.000 A 
ATOM     41  H   UNL     1       7.083  -3.589 -21.071  0.00  0.00    +0.000 HD
ENDBRANCH  11  30
BRANCH   7  42
ATOM     42  O   UNL     1      10.411  -3.901 -17.685  0.00  0.00    +0.000 OA
ATOM     43  H   UNL     1      10.107  -4.803 -17.885  0.00  0.00    +0.000 HD
ENDBRANCH   7  42
TORSDOF 2
ENDMDL
MODEL 7
REMARK VINA RESULT:      -7.2     32.527     36.540
REMARK  Name = 6509753_ManzamineA.pdbqt.pdb
REMARK  2 active torsions:
REMARK  status: ('A' for Active; 'I' for Inactive)
REMARK    1  A    between atoms: C_7  and  O_42
REMARK    2  A    between atoms: C_11  and  C_30
REMARK                            x       y       z     vdW  Elec       q    Type
REMARK                         _______ _______ _______ _____ _____    ______ ____
ROOT
ATOM      1  N   UNL     1      11.577  12.807 -21.082  0.00  0.00    +0.000 N 
ATOM      2  N   UNL     1      15.989  12.614 -18.771  0.00  0.00    +0.000 N 
ATOM      3  C   UNL     1      13.233  12.015 -19.339  0.00  0.00    +0.000 C 
ATOM      4  C   UNL     1      12.056  12.983 -19.687  0.00  0.00    +0.000 C 
ATOM      5  C   UNL     1      13.130  11.112 -18.041  0.00  0.00    +0.000 C 
ATOM      6  C   UNL     1      13.140  11.201 -20.548  0.00  0.00    +0.000 C 
ATOM      7  C   UNL     1      11.015  13.301 -18.611  0.00  0.00    +0.000 C 
ATOM      8  C   UNL     1      14.582  12.681 -19.287  0.00  0.00    +0.000 C 
ATOM      9  C   UNL     1      12.396  11.704 -21.631  0.00  0.00    +0.000 C 
ATOM     10  C   UNL     1      14.410  10.835 -17.440  0.00  0.00    +0.000 C 
ATOM     11  C   UNL     1      11.966  11.301 -17.187  0.00  0.00    +0.000 C 
ATOM     12  C   UNL     1      11.233  12.287 -17.600  0.00  0.00    +0.000 C 
ATOM     13  C   UNL     1      15.710  11.576 -17.768  0.00  0.00    +0.000 C 
ATOM     14  C   UNL     1      11.683  14.044 -21.861  0.00  0.00    +0.000 C 
ATOM     15  C   UNL     1      11.173  14.673 -18.137  0.00  0.00    +0.000 C 
ATOM     16  C   UNL     1      12.805  11.686 -22.998  0.00  0.00    +0.000 C 
ATOM     17  C   UNL     1      16.267  13.859 -18.075  0.00  0.00    +0.000 C 
ATOM     18  C   UNL     1      11.973  14.953 -23.070  0.00  0.00    +0.000 C 
ATOM     19  C   UNL     1      11.509  16.060 -17.587  0.00  0.00    +0.000 C 
ATOM     20  C   UNL     1      13.060  12.130 -24.085  0.00  0.00    +0.000 C 
ATOM     21  C   UNL     1      12.557  14.742 -24.465  0.00  0.00    +0.000 C 
ATOM     22  C   UNL     1      16.390  15.227 -17.398  0.00  0.00    +0.000 C 
ATOM     23  C   UNL     1      13.062  13.389 -24.954  0.00  0.00    +0.000 C 
ATOM     24  C   UNL     1      12.309  17.234 -17.026  0.00  0.00    +0.000 C 
ATOM     25  C   UNL     1      15.985  16.588 -16.838  0.00  0.00    +0.000 C 
ATOM     26  C   UNL     1      14.867  17.578 -16.557  0.00  0.00    +0.000 C 
ATOM     27  C   UNL     1      13.360  17.704 -16.701  0.00  0.00    +0.000 C 
ENDROOT
BRANCH  11  30
ATOM     28  N   UNL     1      11.441   9.310 -15.904  0.00  0.00    +0.000 NA
ATOM     29  N   UNL     1      11.973  12.672 -14.452  0.00  0.00    +0.000 N 
ATOM     30  C   UNL     1      11.709  10.635 -15.918  0.00  0.00    +0.000 A 
ATOM     31  C   UNL     1      11.721  11.345 -14.719  0.00  0.00    +0.000 A 
ATOM     32  C   UNL     1      11.462  10.724 -13.496  0.00  0.00    +0.000 A 
ATOM     33  C   UNL     1      11.191   8.716 -14.717  0.00  0.00    +0.000 A 
ATOM     34  C   UNL     1      11.180   9.349 -13.482  0.00  0.00    +0.000 A 
ATOM     35  C   UNL     1      11.555  11.723 -12.479  0.00  0.00    +0.000 A 
ATOM     36  C   UNL     1      11.875  12.926 -13.105  0.00  0.00    +0.000 A 
ATOM     37  C   UNL     1      11.399  11.709 -11.080  0.00  0.00    +0.000 A 
ATOM     38  C   UNL     1      12.050  14.125 -12.406  0.00  0.00    +0.000 A 
ATOM     39  C   UNL     1      11.569  12.896 -10.365  0.00  0.00    +0.000 A 
ATOM     40  C   UNL     1      11.889  14.080 -11.020  0.00  0.00    +0.000 A 
ATOM     41  H   UNL     1      12.208  13.366 -15.148  0.00  0.00    +0.000 HD
ENDBRANCH  11  30
BRANCH   7  42
ATOM     42  O   UNL     1       9.698  13.134 -19.116  0.00  0.00    +0.000 OA
ATOM     43  H   UNL     1       9.768  13.220 -20.082  0.00  0.00    +0.000 HD
ENDBRANCH   7  42
TORSDOF 2
ENDMDL
MODEL 8
REMARK VINA RESULT:      -7.0     32.128     36.334
REMARK  Name = 6509753_ManzamineA.pdbqt.pdb
REMARK  2 active torsions:
REMARK  status: ('A' for Active; 'I' for Inactive)
REMARK    1  A    between atoms: C_7  and  O_42
REMARK    2  A    between atoms: C_11  and  C_30
REMARK                            x       y       z     vdW  Elec       q    Type
REMARK                         _______ _______ _______ _____ _____    ______ ____
ROOT
ATOM      1  N   UNL     1      12.177  12.204 -18.581  0.00  0.00    +0.000 N 
ATOM      2  N   UNL     1      16.228  11.616 -15.737  0.00  0.00    +0.000 N 
ATOM      3  C   UNL     1      13.488  11.379 -16.578  0.00  0.00    +0.000 C 
ATOM      4  C   UNL     1      12.529  12.467 -17.162  0.00  0.00    +0.000 C 
ATOM      5  C   UNL     1      13.101  10.661 -15.220  0.00  0.00    +0.000 C 
ATOM      6  C   UNL     1      13.390  10.453 -17.702  0.00  0.00    +0.000 C 
ATOM      7  C   UNL     1      11.446  13.063 -16.259  0.00  0.00    +0.000 C 
ATOM      8  C   UNL     1      14.914  11.835 -16.426  0.00  0.00    +0.000 C 
ATOM      9  C   UNL     1      12.858  10.932 -18.913  0.00  0.00    +0.000 C 
ATOM     10  C   UNL     1      14.247  10.266 -14.441  0.00  0.00    +0.000 C 
ATOM     11  C   UNL     1      11.900  11.122 -14.537  0.00  0.00    +0.000 C 
ATOM     12  C   UNL     1      11.387  12.152 -15.133  0.00  0.00    +0.000 C 
ATOM     13  C   UNL     1      15.679  10.757 -14.678  0.00  0.00    +0.000 C 
ATOM     14  C   UNL     1      12.567  13.310 -19.459  0.00  0.00    +0.000 C 
ATOM     15  C   UNL     1      11.776  14.440 -15.906  0.00  0.00    +0.000 C 
ATOM     16  C   UNL     1      13.401  10.693 -20.211  0.00  0.00    +0.000 C 
ATOM     17  C   UNL     1      16.632  12.878 -15.139  0.00  0.00    +0.000 C 
ATOM     18  C   UNL     1      13.128  14.017 -20.707  0.00  0.00    +0.000 C 
ATOM     19  C   UNL     1      12.275  15.816 -15.459  0.00  0.00    +0.000 C 
ATOM     20  C   UNL     1      13.838  10.963 -21.297  0.00  0.00    +0.000 C 
ATOM     21  C   UNL     1      13.814  13.558 -21.992  0.00  0.00    +0.000 C 
ATOM     22  C   UNL     1      16.905  14.281 -14.590  0.00  0.00    +0.000 C 
ATOM     23  C   UNL     1      14.139  12.097 -22.279  0.00  0.00    +0.000 C 
ATOM     24  C   UNL     1      13.192  16.912 -14.923  0.00  0.00    +0.000 C 
ATOM     25  C   UNL     1      16.672  15.743 -14.221  0.00  0.00    +0.000 C 
ATOM     26  C   UNL     1      15.709  16.918 -14.179  0.00  0.00    +0.000 C 
ATOM     27  C   UNL     1      14.266  17.253 -14.518  0.00  0.00    +0.000 C 
ENDROOT
BRANCH  11  30
ATOM     28  N   UNL     1      10.587   9.581 -13.202  0.00  0.00    +0.000 NA
ATOM     29  N   UNL     1      12.560  12.398 -11.836  0.00  0.00    +0.000 N 
ATOM     30  C   UNL     1      11.405  10.656 -13.250  0.00  0.00    +0.000 A 
ATOM     31  C   UNL     1      11.750  11.309 -12.069  0.00  0.00    +0.000 A 
ATOM     32  C   UNL     1      11.271  10.884 -10.829  0.00  0.00    +0.000 A 
ATOM     33  C   UNL     1      10.127   9.175 -11.998  0.00  0.00    +0.000 A 
ATOM     34  C   UNL     1      10.418   9.770 -10.778  0.00  0.00    +0.000 A 
ATOM     35  C   UNL     1      11.811  11.759  -9.837  0.00  0.00    +0.000 A 
ATOM     36  C   UNL     1      12.610  12.691 -10.494  0.00  0.00    +0.000 A 
ATOM     37  C   UNL     1      11.693  11.837  -8.436  0.00  0.00    +0.000 A 
ATOM     38  C   UNL     1      13.304  13.705  -9.826  0.00  0.00    +0.000 A 
ATOM     39  C   UNL     1      12.378  12.843  -7.751  0.00  0.00    +0.000 A 
ATOM     40  C   UNL     1      13.169  13.758  -8.438  0.00  0.00    +0.000 A 
ATOM     41  H   UNL     1      13.060  12.909 -12.551  0.00  0.00    +0.000 HD
ENDBRANCH  11  30
BRANCH   7  42
ATOM     42  O   UNL     1      10.180  13.039 -16.903  0.00  0.00    +0.000 OA
ATOM     43  H   UNL     1      10.119  12.175 -17.344  0.00  0.00    +0.000 HD
ENDBRANCH   7  42
TORSDOF 2
ENDMDL
MODEL 9
REMARK VINA RESULT:      -7.0     19.644     22.683
REMARK  Name = 6509753_ManzamineA.pdbqt.pdb
REMARK  2 active torsions:
REMARK  status: ('A' for Active; 'I' for Inactive)
REMARK    1  A    between atoms: C_7  and  O_42
REMARK    2  A    between atoms: C_11  and  C_30
REMARK                            x       y       z     vdW  Elec       q    Type
REMARK                         _______ _______ _______ _____ _____    ______ ____
ROOT
ATOM      1  N   UNL     1       1.805   1.678 -21.731  0.00  0.00    +0.000 N 
ATOM      2  N   UNL     1       2.106  -2.130 -18.528  0.00  0.00    +0.000 N 
ATOM      3  C   UNL     1       2.827   0.318 -19.856  0.00  0.00    +0.000 C 
ATOM      4  C   UNL     1       2.829   0.660 -21.381  0.00  0.00    +0.000 C 
ATOM      5  C   UNL     1       4.189   0.391 -19.049  0.00  0.00    +0.000 C 
ATOM      6  C   UNL     1       1.924   1.390 -19.448  0.00  0.00    +0.000 C 
ATOM      7  C   UNL     1       4.164   0.706 -22.129  0.00  0.00    +0.000 C 
ATOM      8  C   UNL     1       2.208  -1.013 -19.524  0.00  0.00    +0.000 C 
ATOM      9  C   UNL     1       1.169   2.038 -20.444  0.00  0.00    +0.000 C 
ATOM     10  C   UNL     1       4.253  -0.549 -17.959  0.00  0.00    +0.000 C 
ATOM     11  C   UNL     1       5.398   0.692 -19.803  0.00  0.00    +0.000 C 
ATOM     12  C   UNL     1       5.156   0.753 -21.075  0.00  0.00    +0.000 C 
ATOM     13  C   UNL     1       3.299  -1.733 -17.766  0.00  0.00    +0.000 C 
ATOM     14  C   UNL     1       0.850   1.179 -22.724  0.00  0.00    +0.000 C 
ATOM     15  C   UNL     1       4.286  -0.440 -23.025  0.00  0.00    +0.000 C 
ATOM     16  C   UNL     1      -0.220   2.353 -20.360  0.00  0.00    +0.000 C 
ATOM     17  C   UNL     1       2.401  -3.372 -19.223  0.00  0.00    +0.000 C 
ATOM     18  C   UNL     1      -0.509   0.941 -23.408  0.00  0.00    +0.000 C 
ATOM     19  C   UNL     1       4.402  -1.747 -23.814  0.00  0.00    +0.000 C 
ATOM     20  C   UNL     1      -1.375   2.372 -20.690  0.00  0.00    +0.000 C 
ATOM     21  C   UNL     1      -1.962   1.270 -23.069  0.00  0.00    +0.000 C 
ATOM     22  C   UNL     1       2.720  -4.578 -20.111  0.00  0.00    +0.000 C 
ATOM     23  C   UNL     1      -2.372   1.967 -21.777  0.00  0.00    +0.000 C 
ATOM     24  C   UNL     1       4.374  -3.236 -24.146  0.00  0.00    +0.000 C 
ATOM     25  C   UNL     1       3.152  -5.377 -21.337  0.00  0.00    +0.000 C 
ATOM     26  C   UNL     1       3.689  -5.355 -22.759  0.00  0.00    +0.000 C 
ATOM     27  C   UNL     1       4.155  -4.365 -23.812  0.00  0.00    +0.000 C 
ENDROOT
BRANCH  11  30
ATOM     28  N   UNL     1       7.176   1.831 -18.609  0.00  0.00    +0.000 NA
ATOM     29  N   UNL     1       7.461  -1.549 -20.088  0.00  0.00    +0.000 N 
ATOM     30  C   UNL     1       6.755   0.734 -19.278  0.00  0.00    +0.000 A 
ATOM     31  C   UNL     1       7.631  -0.332 -19.468  0.00  0.00    +0.000 A 
ATOM     32  C   UNL     1       8.940  -0.301 -18.984  0.00  0.00    +0.000 A 
ATOM     33  C   UNL     1       8.444   1.854 -18.144  0.00  0.00    +0.000 A 
ATOM     34  C   UNL     1       9.379   0.839 -18.292  0.00  0.00    +0.000 A 
ATOM     35  C   UNL     1       9.561  -1.537 -19.342  0.00  0.00    +0.000 A 
ATOM     36  C   UNL     1       8.614  -2.294 -20.029  0.00  0.00    +0.000 A 
ATOM     37  C   UNL     1      10.843  -2.080 -19.139  0.00  0.00    +0.000 A 
ATOM     38  C   UNL     1       8.879  -3.574 -20.527  0.00  0.00    +0.000 A 
ATOM     39  C   UNL     1      11.127  -3.356 -19.630  0.00  0.00    +0.000 A 
ATOM     40  C   UNL     1      10.159  -4.087 -20.310  0.00  0.00    +0.000 A 
ATOM     41  H   UNL     1       6.602  -1.861 -20.521  0.00  0.00    +0.000 HD
ENDBRANCH  11  30
BRANCH   7  42
ATOM     42  O   UNL     1       4.278   1.901 -22.887  0.00  0.00    +0.000 OA
ATOM     43  H   UNL     1       4.661   1.642 -23.742  0.00  0.00    +0.000 HD
ENDBRANCH   7  42
TORSDOF 2
ENDMDL
