REMARK  Name = 6509753_ManzamineA.pdbqt.pdb
REMARK  2 active torsions:
REMARK  status: ('A' for Active; 'I' for Inactive)
REMARK    1  A    between atoms: C_7  and  O_42
REMARK    2  A    between atoms: C_11  and  C_30
REMARK                            x       y       z     vdW  Elec       q    Type
REMARK                         _______ _______ _______ _____ _____    ______ ____
ROOT
ATOM      1  N   UNL     1      -1.907   2.348  -0.800  0.00  0.00    +0.000 N 
ATOM      2  N   UNL     1      -2.297  -0.977   2.893  0.00  0.00    +0.000 N 
ATOM      3  C   UNL     1      -1.056   0.638   0.862  0.00  0.00    +0.000 C 
ATOM      4  C   UNL     1      -1.522   0.927  -0.602  0.00  0.00    +0.000 C 
ATOM      5  C   UNL     1       0.337  -0.079   1.099  0.00  0.00    +0.000 C 
ATOM      6  C   UNL     1      -1.004   2.031   1.296  0.00  0.00    +0.000 C 
ATOM      7  C   UNL     1      -0.819   0.212  -1.759  0.00  0.00    +0.000 C 
ATOM      8  C   UNL     1      -2.065  -0.109   1.692  0.00  0.00    +0.000 C 
ATOM      9  C   UNL     1      -1.652   2.998   0.505  0.00  0.00    +0.000 C 
ATOM     10  C   UNL     1       0.359  -0.896   2.286  0.00  0.00    +0.000 C 
ATOM     11  C   UNL     1       1.075  -0.513  -0.079  0.00  0.00    +0.000 C 
ATOM     12  C   UNL     1       0.390  -0.318  -1.162  0.00  0.00    +0.000 C 
ATOM     13  C   UNL     1      -0.881  -1.331   3.073  0.00  0.00    +0.000 C 
ATOM     14  C   UNL     1      -3.295   2.485  -1.248  0.00  0.00    +0.000 C 
ATOM     15  C   UNL     1      -1.697  -0.796  -2.345  0.00  0.00    +0.000 C 
ATOM     16  C   UNL     1      -2.489   4.045   0.994  0.00  0.00    +0.000 C 
ATOM     17  C   UNL     1      -3.012  -2.163   2.452  0.00  0.00    +0.000 C 
ATOM     18  C   UNL     1      -4.720   3.063  -1.336  0.00  0.00    +0.000 C 
ATOM     19  C   UNL     1      -2.618  -1.933  -2.793  0.00  0.00    +0.000 C 
ATOM     20  C   UNL     1      -3.480   4.717   1.095  0.00  0.00    +0.000 C 
ATOM     21  C   UNL     1      -5.490   4.156  -0.597  0.00  0.00    +0.000 C 
ATOM     22  C   UNL     1      -3.771  -3.332   1.818  0.00  0.00    +0.000 C 
ATOM     23  C   UNL     1      -4.891   4.956   0.554  0.00  0.00    +0.000 C 
ATOM     24  C   UNL     1      -3.548  -3.142  -2.735  0.00  0.00    +0.000 C 
ATOM     25  C   UNL     1      -4.379  -4.228   0.743  0.00  0.00    +0.000 C 
ATOM     26  C   UNL     1      -4.567  -4.507  -0.739  0.00  0.00    +0.000 C 
ATOM     27  C   UNL     1      -4.153  -3.949  -2.090  0.00  0.00    +0.000 C 
ENDROOT
BRANCH  11  30
ATOM     28  N   UNL     1       2.307  -2.601  -0.155  0.00  0.00    +0.000 NA
ATOM     29  N   UNL     1       3.857   0.753   0.043  0.00  0.00    +0.000 N 
ATOM     30  C   UNL     1       2.330  -1.251  -0.089  0.00  0.00    +0.000 A 
ATOM     31  C   UNL     1       3.553  -0.588  -0.018  0.00  0.00    +0.000 A 
ATOM     32  C   UNL     1       4.764  -1.282  -0.011  0.00  0.00    +0.000 A 
ATOM     33  C   UNL     1       3.483  -3.266  -0.148  0.00  0.00    +0.000 A 
ATOM     34  C   UNL     1       4.741  -2.684  -0.076  0.00  0.00    +0.000 A 
ATOM     35  C   UNL     1       5.813  -0.315   0.066  0.00  0.00    +0.000 A 
ATOM     36  C   UNL     1       5.217   0.944   0.098  0.00  0.00    +0.000 A 
ATOM     37  C   UNL     1       7.217  -0.400   0.108  0.00  0.00    +0.000 A 
ATOM     38  C   UNL     1       5.951   2.132   0.169  0.00  0.00    +0.000 A 
ATOM     39  C   UNL     1       7.968   0.776   0.180  0.00  0.00    +0.000 A 
ATOM     40  C   UNL     1       7.342   2.017   0.209  0.00  0.00    +0.000 A 
ATOM     41  H   UNL     1       3.176   1.500   0.038  0.00  0.00    +0.000 HD
ENDBRANCH  11  30
BRANCH   7  42
ATOM     42  O   UNL     1      -0.436   1.136  -2.767  0.00  0.00    +0.000 OA
ATOM     43  H   UNL     1      -1.177   1.759  -2.856  0.00  0.00    +0.000 HD
ENDBRANCH   7  42
TORSDOF 2
