MODEL 1
REMARK VINA RESULT:      -4.3      0.000      0.000
REMARK  Name = 67499_Pyrazolo.pdbqt.pdb
REMARK  0 active torsions:
REMARK  status: ('A' for Active; 'I' for Inactive)
REMARK                            x       y       z     vdW  Elec       q    Type
REMARK                         _______ _______ _______ _____ _____    ______ ____
ROOT
ATOM      1  N   UNL     1       3.066  -1.954 -17.310  0.00  0.00    +0.000 N 
ATOM      2  N   UNL     1       2.204  -2.686 -18.048  0.00  0.00    +0.000 NA
ATOM      3  N   UNL     1       3.875   0.322 -17.127  0.00  0.00    +0.000 NA
ATOM      4  N   UNL     1       2.840   1.778 -18.762  0.00  0.00    +0.000 NA
ATOM      5  C   UNL     1       2.229  -0.502 -18.720  0.00  0.00    +0.000 A 
ATOM      6  C   UNL     1       3.117  -0.640 -17.674  0.00  0.00    +0.000 A 
ATOM      7  C   UNL     1       1.698  -1.790 -18.907  0.00  0.00    +0.000 A 
ATOM      8  C   UNL     1       2.099   0.764 -19.273  0.00  0.00    +0.000 A 
ATOM      9  C   UNL     1       3.673   1.507 -17.735  0.00  0.00    +0.000 A 
ATOM     10  H   UNL     1       3.592  -2.406 -16.571  0.00  0.00    +0.000 HD
ENDROOT
TORSDOF 0
ENDMDL
MODEL 2
REMARK VINA RESULT:      -4.2      4.683      6.123
REMARK  Name = 67499_Pyrazolo.pdbqt.pdb
REMARK  0 active torsions:
REMARK  status: ('A' for Active; 'I' for Inactive)
REMARK                            x       y       z     vdW  Elec       q    Type
REMARK                         _______ _______ _______ _____ _____    ______ ____
ROOT
ATOM      1  N   UNL     1      -2.715   1.082 -17.993  0.00  0.00    +0.000 N 
ATOM      2  N   UNL     1      -1.731   1.639 -18.732  0.00  0.00    +0.000 NA
ATOM      3  N   UNL     1      -3.638  -1.099 -17.486  0.00  0.00    +0.000 NA
ATOM      4  N   UNL     1      -2.455  -2.868 -18.643  0.00  0.00    +0.000 NA
ATOM      5  C   UNL     1      -1.758  -0.634 -18.961  0.00  0.00    +0.000 A 
ATOM      6  C   UNL     1      -2.773  -0.278 -18.097  0.00  0.00    +0.000 A 
ATOM      7  C   UNL     1      -1.152   0.583 -19.319  0.00  0.00    +0.000 A 
ATOM      8  C   UNL     1      -1.609  -1.987 -19.232  0.00  0.00    +0.000 A 
ATOM      9  C   UNL     1      -3.406  -2.385 -17.817  0.00  0.00    +0.000 A 
ATOM     10  H   UNL     1      -3.316   1.680 -17.439  0.00  0.00    +0.000 HD
ENDROOT
TORSDOF 0
ENDMDL
MODEL 3
REMARK VINA RESULT:      -4.0      8.748      8.752
REMARK  Name = 67499_Pyrazolo.pdbqt.pdb
REMARK  0 active torsions:
REMARK  status: ('A' for Active; 'I' for Inactive)
REMARK                            x       y       z     vdW  Elec       q    Type
REMARK                         _______ _______ _______ _____ _____    ______ ____
ROOT
ATOM      1  N   UNL     1      11.323  -0.949 -15.813  0.00  0.00    +0.000 N 
ATOM      2  N   UNL     1      11.629  -1.869 -16.754  0.00  0.00    +0.000 NA
ATOM      3  N   UNL     1      10.941   1.434 -15.613  0.00  0.00    +0.000 NA
ATOM      4  N   UNL     1      11.167   2.563 -17.743  0.00  0.00    +0.000 NA
ATOM      5  C   UNL     1      11.490   0.226 -17.654  0.00  0.00    +0.000 A 
ATOM      6  C   UNL     1      11.229   0.321 -16.303  0.00  0.00    +0.000 A 
ATOM      7  C   UNL     1      11.729  -1.141 -17.875  0.00  0.00    +0.000 A 
ATOM      8  C   UNL     1      11.453   1.404 -18.386  0.00  0.00    +0.000 A 
ATOM      9  C   UNL     1      10.931   2.516 -16.415  0.00  0.00    +0.000 A 
ATOM     10  H   UNL     1      11.191  -1.248 -14.854  0.00  0.00    +0.000 HD
ENDROOT
TORSDOF 0
ENDMDL
MODEL 4
REMARK VINA RESULT:      -3.9      5.080      5.722
REMARK  Name = 67499_Pyrazolo.pdbqt.pdb
REMARK  0 active torsions:
REMARK  status: ('A' for Active; 'I' for Inactive)
REMARK                            x       y       z     vdW  Elec       q    Type
REMARK                         _______ _______ _______ _____ _____    ______ ____
ROOT
ATOM      1  N   UNL     1      -1.871  -2.312 -19.169  0.00  0.00    +0.000 N 
ATOM      2  N   UNL     1      -2.557  -3.279 -18.522  0.00  0.00    +0.000 NA
ATOM      3  N   UNL     1      -1.764   0.104 -19.305  0.00  0.00    +0.000 NA
ATOM      4  N   UNL     1      -3.375   1.159 -17.836  0.00  0.00    +0.000 NA
ATOM      5  C   UNL     1      -3.266  -1.199 -17.900  0.00  0.00    +0.000 A 
ATOM      6  C   UNL     1      -2.259  -1.048 -18.831  0.00  0.00    +0.000 A 
ATOM      7  C   UNL     1      -3.407  -2.590 -17.750  0.00  0.00    +0.000 A 
ATOM      8  C   UNL     1      -3.835  -0.038 -17.395  0.00  0.00    +0.000 A 
ATOM      9  C   UNL     1      -2.383   1.165 -18.750  0.00  0.00    +0.000 A 
ATOM     10  H   UNL     1      -1.149  -2.575 -19.830  0.00  0.00    +0.000 HD
ENDROOT
TORSDOF 0
ENDMDL
MODEL 5
REMARK VINA RESULT:      -3.8     17.284     17.596
REMARK  Name = 67499_Pyrazolo.pdbqt.pdb
REMARK  0 active torsions:
REMARK  status: ('A' for Active; 'I' for Inactive)
REMARK                            x       y       z     vdW  Elec       q    Type
REMARK                         _______ _______ _______ _____ _____    ______ ____
ROOT
ATOM      1  N   UNL     1     -10.118   4.285 -10.435  0.00  0.00    +0.000 N 
ATOM      2  N   UNL     1      -9.721   3.849  -9.220  0.00  0.00    +0.000 NA
ATOM      3  N   UNL     1     -11.728   5.802 -11.421  0.00  0.00    +0.000 NA
ATOM      4  N   UNL     1     -13.072   6.906  -9.735  0.00  0.00    +0.000 NA
ATOM      5  C   UNL     1     -11.418   5.369  -9.046  0.00  0.00    +0.000 A 
ATOM      6  C   UNL     1     -11.132   5.196 -10.384  0.00  0.00    +0.000 A 
ATOM      7  C   UNL     1     -10.521   4.516  -8.378  0.00  0.00    +0.000 A 
ATOM      8  C   UNL     1     -12.431   6.262  -8.728  0.00  0.00    +0.000 A 
ATOM      9  C   UNL     1     -12.693   6.645 -11.004  0.00  0.00    +0.000 A 
ATOM     10  H   UNL     1      -9.659   3.924 -11.264  0.00  0.00    +0.000 HD
ENDROOT
TORSDOF 0
ENDMDL
MODEL 6
REMARK VINA RESULT:      -3.8      1.360      2.338
REMARK  Name = 67499_Pyrazolo.pdbqt.pdb
REMARK  0 active torsions:
REMARK  status: ('A' for Active; 'I' for Inactive)
REMARK                            x       y       z     vdW  Elec       q    Type
REMARK                         _______ _______ _______ _____ _____    ______ ____
ROOT
ATOM      1  N   UNL     1       2.583  -2.401 -17.809  0.00  0.00    +0.000 N 
ATOM      2  N   UNL     1       3.891  -2.172 -17.561  0.00  0.00    +0.000 NA
ATOM      3  N   UNL     1       0.639  -1.256 -18.690  0.00  0.00    +0.000 NA
ATOM      4  N   UNL     1       1.156   1.017 -19.348  0.00  0.00    +0.000 NA
ATOM      5  C   UNL     1       2.877  -0.328 -18.452  0.00  0.00    +0.000 A 
ATOM      6  C   UNL     1       1.932  -1.327 -18.343  0.00  0.00    +0.000 A 
ATOM      7  C   UNL     1       4.061  -0.903 -17.958  0.00  0.00    +0.000 A 
ATOM      8  C   UNL     1       2.454   0.884 -18.978  0.00  0.00    +0.000 A 
ATOM      9  C   UNL     1       0.334  -0.041 -19.187  0.00  0.00    +0.000 A 
ATOM     10  H   UNL     1       2.190  -3.309 -17.592  0.00  0.00    +0.000 HD
ENDROOT
TORSDOF 0
ENDMDL
MODEL 7
REMARK VINA RESULT:      -3.6     14.253     15.200
REMARK  Name = 67499_Pyrazolo.pdbqt.pdb
REMARK  0 active torsions:
REMARK  status: ('A' for Active; 'I' for Inactive)
REMARK                            x       y       z     vdW  Elec       q    Type
REMARK                         _______ _______ _______ _____ _____    ______ ____
ROOT
ATOM      1  N   UNL     1      10.795  -7.421  -5.353  0.00  0.00    +0.000 N 
ATOM      2  N   UNL     1      11.529  -8.109  -6.255  0.00  0.00    +0.000 NA
ATOM      3  N   UNL     1       9.619  -5.314  -5.149  0.00  0.00    +0.000 NA
ATOM      4  N   UNL     1       9.782  -3.993  -7.171  0.00  0.00    +0.000 NA
ATOM      5  C   UNL     1      10.844  -6.101  -7.100  0.00  0.00    +0.000 A 
ATOM      6  C   UNL     1      10.361  -6.212  -5.812  0.00  0.00    +0.000 A 
ATOM      7  C   UNL     1      11.553  -7.294  -7.318  0.00  0.00    +0.000 A 
ATOM      8  C   UNL     1      10.532  -4.938  -7.791  0.00  0.00    +0.000 A 
ATOM      9  C   UNL     1       9.374  -4.228  -5.907  0.00  0.00    +0.000 A 
ATOM     10  H   UNL     1      10.624  -7.828  -4.441  0.00  0.00    +0.000 HD
ENDROOT
TORSDOF 0
ENDMDL
MODEL 8
REMARK VINA RESULT:      -3.5     18.181     18.499
REMARK  Name = 67499_Pyrazolo.pdbqt.pdb
REMARK  0 active torsions:
REMARK  status: ('A' for Active; 'I' for Inactive)
REMARK                            x       y       z     vdW  Elec       q    Type
REMARK                         _______ _______ _______ _____ _____    ______ ____
ROOT
ATOM      1  N   UNL     1     -12.124   4.270  -8.750  0.00  0.00    +0.000 N 
ATOM      2  N   UNL     1     -10.819   4.266  -9.097  0.00  0.00    +0.000 NA
ATOM      3  N   UNL     1     -14.217   5.280  -9.434  0.00  0.00    +0.000 NA
ATOM      4  N   UNL     1     -13.926   6.752 -11.334  0.00  0.00    +0.000 NA
ATOM      5  C   UNL     1     -12.039   5.635 -10.461  0.00  0.00    +0.000 A 
ATOM      6  C   UNL     1     -12.896   5.075  -9.537  0.00  0.00    +0.000 A 
ATOM      7  C   UNL     1     -10.777   5.103 -10.144  0.00  0.00    +0.000 A 
ATOM      8  C   UNL     1     -12.594   6.505 -11.388  0.00  0.00    +0.000 A 
ATOM      9  C   UNL     1     -14.652   6.138 -10.378  0.00  0.00    +0.000 A 
ATOM     10  H   UNL     1     -12.429   3.704  -7.967  0.00  0.00    +0.000 HD
ENDROOT
TORSDOF 0
ENDMDL
MODEL 9
REMARK VINA RESULT:      -3.5     14.736     15.942
REMARK  Name = 67499_Pyrazolo.pdbqt.pdb
REMARK  0 active torsions:
REMARK  status: ('A' for Active; 'I' for Inactive)
REMARK                            x       y       z     vdW  Elec       q    Type
REMARK                         _______ _______ _______ _____ _____    ______ ____
ROOT
ATOM      1  N   UNL     1      10.580  -5.768  -8.039  0.00  0.00    +0.000 N 
ATOM      2  N   UNL     1      10.288  -4.480  -7.755  0.00  0.00    +0.000 NA
ATOM      3  N   UNL     1      11.317  -7.787  -6.922  0.00  0.00    +0.000 NA
ATOM      4  N   UNL     1      11.649  -7.432  -4.549  0.00  0.00    +0.000 NA
ATOM      5  C   UNL     1      10.928  -5.621  -5.881  0.00  0.00    +0.000 A 
ATOM      6  C   UNL     1      10.968  -6.492  -6.949  0.00  0.00    +0.000 A 
ATOM      7  C   UNL     1      10.504  -4.399  -6.435  0.00  0.00    +0.000 A 
ATOM      8  C   UNL     1      11.286  -6.128  -4.641  0.00  0.00    +0.000 A 
ATOM      9  C   UNL     1      11.644  -8.176  -5.675  0.00  0.00    +0.000 A 
ATOM     10  H   UNL     1      10.495  -6.095  -8.994  0.00  0.00    +0.000 HD
ENDROOT
TORSDOF 0
ENDMDL
