MODEL 1
REMARK VINA RESULT:      -5.0      0.000      0.000
REMARK  Name = 71369791_5FluoroDione.pdbqt.pdb
REMARK  1 active torsions:
REMARK  status: ('A' for Active; 'I' for Inactive)
REMARK    1  A    between atoms: N_4  and  C_12
REMARK                            x       y       z     vdW  Elec       q    Type
REMARK                         _______ _______ _______ _____ _____    ______ ____
ROOT
ATOM      1  F   UNL     1      -1.585   0.840 -21.519  0.00  0.00    +0.000 F 
ATOM      2  O   UNL     1      -4.105   0.095 -16.748  0.00  0.00    +0.000 OA
ATOM      3  O   UNL     1      -0.900   2.293 -19.185  0.00  0.00    +0.000 OA
ATOM      4  N   UNL     1      -4.090  -0.299 -19.079  0.00  0.00    +0.000 N 
ATOM      5  N   UNL     1      -2.596   1.217 -18.054  0.00  0.00    +0.000 N 
ATOM      6  C   UNL     1      -3.460   0.056 -20.216  0.00  0.00    +0.000 C 
ATOM      7  C   UNL     1      -2.414   0.951 -20.467  0.00  0.00    +0.000 C 
ATOM      8  C   UNL     1      -3.660   0.301 -17.873  0.00  0.00    +0.000 C 
ATOM      9  C   UNL     1      -1.884   1.563 -19.212  0.00  0.00    +0.000 C 
ATOM     10  H   UNL     1      -2.247   1.626 -17.199  0.00  0.00    +0.000 HD
ENDROOT
BRANCH   4  12
ATOM     11  O   UNL     1      -6.397  -0.885 -19.560  0.00  0.00    +0.000 OA
ATOM     12  C   UNL     1      -5.100  -1.216 -19.147  0.00  0.00    +0.000 C 
ATOM     13  C   UNL     1      -5.074  -2.602 -18.840  0.00  0.00    +0.000 C 
ATOM     14  C   UNL     1      -6.311  -3.492 -18.972  0.00  0.00    +0.000 C 
ATOM     15  C   UNL     1      -6.855  -2.134 -19.410  0.00  0.00    +0.000 C 
ENDBRANCH   4  12
TORSDOF 1
ENDMDL
MODEL 2
REMARK VINA RESULT:      -4.8     14.057     14.777
REMARK  Name = 71369791_5FluoroDione.pdbqt.pdb
REMARK  1 active torsions:
REMARK  status: ('A' for Active; 'I' for Inactive)
REMARK    1  A    between atoms: N_4  and  C_12
REMARK                            x       y       z     vdW  Elec       q    Type
REMARK                         _______ _______ _______ _____ _____    ______ ____
ROOT
ATOM      1  F   UNL     1     -12.044   9.013  -7.635  0.00  0.00    +0.000 F 
ATOM      2  O   UNL     1     -10.645   3.948  -9.068  0.00  0.00    +0.000 OA
ATOM      3  O   UNL     1      -9.598   7.820  -6.844  0.00  0.00    +0.000 OA
ATOM      4  N   UNL     1     -12.345   5.585  -8.933  0.00  0.00    +0.000 N 
ATOM      5  N   UNL     1     -10.240   5.876  -7.901  0.00  0.00    +0.000 N 
ATOM      6  C   UNL     1     -12.613   6.804  -8.424  0.00  0.00    +0.000 C 
ATOM      7  C   UNL     1     -11.850   7.684  -7.648  0.00  0.00    +0.000 C 
ATOM      8  C   UNL     1     -11.068   5.033  -8.680  0.00  0.00    +0.000 C 
ATOM      9  C   UNL     1     -10.469   7.169  -7.407  0.00  0.00    +0.000 C 
ATOM     10  H   UNL     1      -9.309   5.517  -7.745  0.00  0.00    +0.000 HD
ENDROOT
BRANCH   4  12
ATOM     11  O   UNL     1     -14.086   3.907  -9.151  0.00  0.00    +0.000 OA
ATOM     12  C   UNL     1     -13.310   4.953  -9.665  0.00  0.00    +0.000 C 
ATOM     13  C   UNL     1     -13.716   5.189 -11.005  0.00  0.00    +0.000 C 
ATOM     14  C   UNL     1     -14.825   4.378 -11.677  0.00  0.00    +0.000 C 
ATOM     15  C   UNL     1     -14.778   3.749 -10.286  0.00  0.00    +0.000 C 
ENDBRANCH   4  12
TORSDOF 1
ENDMDL
MODEL 3
REMARK VINA RESULT:      -4.7     19.523     20.472
REMARK  Name = 71369791_5FluoroDione.pdbqt.pdb
REMARK  1 active torsions:
REMARK  status: ('A' for Active; 'I' for Inactive)
REMARK    1  A    between atoms: N_4  and  C_12
REMARK                            x       y       z     vdW  Elec       q    Type
REMARK                         _______ _______ _______ _____ _____    ______ ____
ROOT
ATOM      1  F   UNL     1      13.660  -8.183  -8.548  0.00  0.00    +0.000 F 
ATOM      2  O   UNL     1      10.116  -4.184  -7.496  0.00  0.00    +0.000 OA
ATOM      3  O   UNL     1      13.190  -6.044 -10.345  0.00  0.00    +0.000 OA
ATOM      4  N   UNL     1      10.940  -6.322  -6.916  0.00  0.00    +0.000 N 
ATOM      5  N   UNL     1      11.588  -5.226  -8.906  0.00  0.00    +0.000 N 
ATOM      6  C   UNL     1      11.763  -7.299  -7.344  0.00  0.00    +0.000 C 
ATOM      7  C   UNL     1      12.555  -7.421  -8.492  0.00  0.00    +0.000 C 
ATOM      8  C   UNL     1      10.807  -5.171  -7.726  0.00  0.00    +0.000 C 
ATOM      9  C   UNL     1      12.495  -6.200  -9.349  0.00  0.00    +0.000 C 
ATOM     10  H   UNL     1      11.539  -4.394  -9.478  0.00  0.00    +0.000 HD
ENDROOT
BRANCH   4  12
ATOM     11  O   UNL     1       8.890  -6.404  -5.616  0.00  0.00    +0.000 OA
ATOM     12  C   UNL     1      10.283  -6.490  -5.730  0.00  0.00    +0.000 C 
ATOM     13  C   UNL     1      10.817  -6.767  -4.443  0.00  0.00    +0.000 C 
ATOM     14  C   UNL     1       9.929  -6.924  -3.207  0.00  0.00    +0.000 C 
ATOM     15  C   UNL     1       8.898  -6.645  -4.299  0.00  0.00    +0.000 C 
ENDBRANCH   4  12
TORSDOF 1
ENDMDL
MODEL 4
REMARK VINA RESULT:      -4.5      5.297      6.759
REMARK  Name = 71369791_5FluoroDione.pdbqt.pdb
REMARK  1 active torsions:
REMARK  status: ('A' for Active; 'I' for Inactive)
REMARK    1  A    between atoms: N_4  and  C_12
REMARK                            x       y       z     vdW  Elec       q    Type
REMARK                         _______ _______ _______ _____ _____    ______ ____
ROOT
ATOM      1  F   UNL     1     -10.350   1.385 -21.147  0.00  0.00    +0.000 F 
ATOM      2  O   UNL     1     -10.341  -1.870 -16.780  0.00  0.00    +0.000 OA
ATOM      3  O   UNL     1     -12.266   1.606 -19.071  0.00  0.00    +0.000 OA
ATOM      4  N   UNL     1      -9.514  -1.446 -18.953  0.00  0.00    +0.000 N 
ATOM      5  N   UNL     1     -11.303  -0.210 -18.030  0.00  0.00    +0.000 N 
ATOM      6  C   UNL     1      -9.692  -0.649 -20.024  0.00  0.00    +0.000 C 
ATOM      7  C   UNL     1     -10.597   0.387 -20.281  0.00  0.00    +0.000 C 
ATOM      8  C   UNL     1     -10.362  -1.251 -17.839  0.00  0.00    +0.000 C 
ATOM      9  C   UNL     1     -11.474   0.672 -19.107  0.00  0.00    +0.000 C 
ATOM     10  H   UNL     1     -11.891  -0.027 -17.229  0.00  0.00    +0.000 HD
ENDROOT
BRANCH   4  12
ATOM     11  O   UNL     1      -7.176  -2.084 -18.805  0.00  0.00    +0.000 OA
ATOM     12  C   UNL     1      -8.529  -2.391 -18.995  0.00  0.00    +0.000 C 
ATOM     13  C   UNL     1      -8.638  -3.788 -19.225  0.00  0.00    +0.000 C 
ATOM     14  C   UNL     1      -7.418  -4.711 -19.241  0.00  0.00    +0.000 C 
ATOM     15  C   UNL     1      -6.778  -3.353 -18.961  0.00  0.00    +0.000 C 
ENDBRANCH   4  12
TORSDOF 1
ENDMDL
MODEL 5
REMARK VINA RESULT:      -4.5     13.139     14.395
REMARK  Name = 71369791_5FluoroDione.pdbqt.pdb
REMARK  1 active torsions:
REMARK  status: ('A' for Active; 'I' for Inactive)
REMARK    1  A    between atoms: N_4  and  C_12
REMARK                            x       y       z     vdW  Elec       q    Type
REMARK                         _______ _______ _______ _____ _____    ______ ____
ROOT
ATOM      1  F   UNL     1      11.547   1.942 -22.440  0.00  0.00    +0.000 F 
ATOM      2  O   UNL     1       7.703   3.319 -18.837  0.00  0.00    +0.000 OA
ATOM      3  O   UNL     1       8.991   2.886 -23.217  0.00  0.00    +0.000 OA
ATOM      4  N   UNL     1       9.782   2.265 -19.230  0.00  0.00    +0.000 N 
ATOM      5  N   UNL     1       8.385   2.982 -20.996  0.00  0.00    +0.000 N 
ATOM      6  C   UNL     1      10.601   1.861 -20.221  0.00  0.00    +0.000 C 
ATOM      7  C   UNL     1      10.488   1.923 -21.615  0.00  0.00    +0.000 C 
ATOM      8  C   UNL     1       8.563   2.882 -19.595  0.00  0.00    +0.000 C 
ATOM      9  C   UNL     1       9.243   2.624 -22.047  0.00  0.00    +0.000 C 
ATOM     10  H   UNL     1       7.539   3.457 -21.276  0.00  0.00    +0.000 HD
ENDROOT
BRANCH   4  12
ATOM     11  O   UNL     1      10.806   3.051 -17.173  0.00  0.00    +0.000 OA
ATOM     12  C   UNL     1      10.169   2.064 -17.936  0.00  0.00    +0.000 C 
ATOM     13  C   UNL     1      10.028   0.903 -17.130  0.00  0.00    +0.000 C 
ATOM     14  C   UNL     1      10.525   0.847 -15.684  0.00  0.00    +0.000 C 
ATOM     15  C   UNL     1      10.905   2.270 -16.091  0.00  0.00    +0.000 C 
ENDBRANCH   4  12
TORSDOF 1
ENDMDL
MODEL 6
REMARK VINA RESULT:      -4.4     13.342     14.964
REMARK  Name = 71369791_5FluoroDione.pdbqt.pdb
REMARK  1 active torsions:
REMARK  status: ('A' for Active; 'I' for Inactive)
REMARK    1  A    between atoms: N_4  and  C_12
REMARK                            x       y       z     vdW  Elec       q    Type
REMARK                         _______ _______ _______ _____ _____    ______ ____
ROOT
ATOM      1  F   UNL     1      12.017  -2.698 -19.719  0.00  0.00    +0.000 F 
ATOM      2  O   UNL     1      10.398   0.494 -15.614  0.00  0.00    +0.000 OA
ATOM      3  O   UNL     1      12.864  -3.098 -17.045  0.00  0.00    +0.000 OA
ATOM      4  N   UNL     1      10.533   0.165 -17.951  0.00  0.00    +0.000 N 
ATOM      5  N   UNL     1      11.679  -1.223 -16.421  0.00  0.00    +0.000 N 
ATOM      6  C   UNL     1      11.089  -0.631 -18.885  0.00  0.00    +0.000 C 
ATOM      7  C   UNL     1      11.945  -1.734 -18.786  0.00  0.00    +0.000 C 
ATOM      8  C   UNL     1      10.819  -0.111 -16.594  0.00  0.00    +0.000 C 
ATOM      9  C   UNL     1      12.226  -2.103 -17.367  0.00  0.00    +0.000 C 
ATOM     10  H   UNL     1      11.863  -1.462 -15.457  0.00  0.00    +0.000 HD
ENDROOT
BRANCH   4  12
ATOM     11  O   UNL     1      10.199   2.284 -19.090  0.00  0.00    +0.000 OA
ATOM     12  C   UNL     1       9.724   1.188 -18.358  0.00  0.00    +0.000 C 
ATOM     13  C   UNL     1       8.330   1.364 -18.151  0.00  0.00    +0.000 C 
ATOM     14  C   UNL     1       7.574   2.584 -18.680  0.00  0.00    +0.000 C 
ATOM     15  C   UNL     1       8.996   2.868 -19.158  0.00  0.00    +0.000 C 
ENDBRANCH   4  12
TORSDOF 1
ENDMDL
MODEL 7
REMARK VINA RESULT:      -4.4      7.160      9.420
REMARK  Name = 71369791_5FluoroDione.pdbqt.pdb
REMARK  1 active torsions:
REMARK  status: ('A' for Active; 'I' for Inactive)
REMARK    1  A    between atoms: N_4  and  C_12
REMARK                            x       y       z     vdW  Elec       q    Type
REMARK                         _______ _______ _______ _____ _____    ______ ____
ROOT
ATOM      1  F   UNL     1     -12.838  -1.594 -24.494  0.00  0.00    +0.000 F 
ATOM      2  O   UNL     1     -11.485  -4.856 -20.348  0.00  0.00    +0.000 OA
ATOM      3  O   UNL     1     -13.229  -4.399 -24.565  0.00  0.00    +0.000 OA
ATOM      4  N   UNL     1     -11.327  -2.713 -21.334  0.00  0.00    +0.000 N 
ATOM      5  N   UNL     1     -12.251  -4.558 -22.485  0.00  0.00    +0.000 N 
ATOM      6  C   UNL     1     -11.608  -2.037 -22.465  0.00  0.00    +0.000 C 
ATOM      7  C   UNL     1     -12.185  -2.436 -23.676  0.00  0.00    +0.000 C 
ATOM      8  C   UNL     1     -11.656  -4.088 -21.289  0.00  0.00    +0.000 C 
ATOM      9  C   UNL     1     -12.607  -3.868 -23.654  0.00  0.00    +0.000 C 
ATOM     10  H   UNL     1     -12.532  -5.528 -22.458  0.00  0.00    +0.000 HD
ENDROOT
BRANCH   4  12
ATOM     11  O   UNL     1      -9.400  -2.202 -19.948  0.00  0.00    +0.000 OA
ATOM     12  C   UNL     1     -10.747  -2.042 -20.295  0.00  0.00    +0.000 C 
ATOM     13  C   UNL     1     -11.327  -1.105 -19.399  0.00  0.00    +0.000 C 
ATOM     14  C   UNL     1     -10.525  -0.442 -18.278  0.00  0.00    +0.000 C 
ATOM     15  C   UNL     1      -9.471  -1.334 -18.931  0.00  0.00    +0.000 C 
ENDBRANCH   4  12
TORSDOF 1
ENDMDL
MODEL 8
REMARK VINA RESULT:      -4.3     14.865     16.001
REMARK  Name = 71369791_5FluoroDione.pdbqt.pdb
REMARK  1 active torsions:
REMARK  status: ('A' for Active; 'I' for Inactive)
REMARK    1  A    between atoms: N_4  and  C_12
REMARK                            x       y       z     vdW  Elec       q    Type
REMARK                         _______ _______ _______ _____ _____    ______ ____
ROOT
ATOM      1  F   UNL     1     -14.019   6.784 -11.198  0.00  0.00    +0.000 F 
ATOM      2  O   UNL     1     -10.283   5.722  -7.380  0.00  0.00    +0.000 OA
ATOM      3  O   UNL     1     -11.738   5.177 -11.695  0.00  0.00    +0.000 OA
ATOM      4  N   UNL     1     -12.147   7.015  -8.040  0.00  0.00    +0.000 N 
ATOM      5  N   UNL     1     -11.023   5.579  -9.542  0.00  0.00    +0.000 N 
ATOM      6  C   UNL     1     -12.937   7.284  -9.098  0.00  0.00    +0.000 C 
ATOM      7  C   UNL     1     -12.925   6.820 -10.419  0.00  0.00    +0.000 C 
ATOM      8  C   UNL     1     -11.091   6.094  -8.225  0.00  0.00    +0.000 C 
ATOM      9  C   UNL     1     -11.863   5.796 -10.645  0.00  0.00    +0.000 C 
ATOM     10  H   UNL     1     -10.300   4.887  -9.683  0.00  0.00    +0.000 HD
ENDROOT
BRANCH   4  12
ATOM     11  O   UNL     1     -13.481   7.277  -6.028  0.00  0.00    +0.000 OA
ATOM     12  C   UNL     1     -12.408   7.638  -6.852  0.00  0.00    +0.000 C 
ATOM     13  C   UNL     1     -11.710   8.706  -6.230  0.00  0.00    +0.000 C 
ATOM     14  C   UNL     1     -12.144   9.291  -4.885  0.00  0.00    +0.000 C 
ATOM     15  C   UNL     1     -13.192   8.201  -5.104  0.00  0.00    +0.000 C 
ENDBRANCH   4  12
TORSDOF 1
ENDMDL
MODEL 9
REMARK VINA RESULT:      -4.3     18.669     19.377
REMARK  Name = 71369791_5FluoroDione.pdbqt.pdb
REMARK  1 active torsions:
REMARK  status: ('A' for Active; 'I' for Inactive)
REMARK    1  A    between atoms: N_4  and  C_12
REMARK                            x       y       z     vdW  Elec       q    Type
REMARK                         _______ _______ _______ _____ _____    ______ ____
ROOT
ATOM      1  F   UNL     1      10.187  13.102 -16.371  0.00  0.00    +0.000 F 
ATOM      2  O   UNL     1      11.509   8.179 -14.454  0.00  0.00    +0.000 OA
ATOM      3  O   UNL     1      11.078  10.998 -18.046  0.00  0.00    +0.000 OA
ATOM      4  N   UNL     1      11.018  10.440 -13.973  0.00  0.00    +0.000 N 
ATOM      5  N   UNL     1      11.363   9.675 -16.181  0.00  0.00    +0.000 N 
ATOM      6  C   UNL     1      10.824  11.637 -14.561  0.00  0.00    +0.000 C 
ATOM      7  C   UNL     1      10.862  12.040 -15.901  0.00  0.00    +0.000 C 
ATOM      8  C   UNL     1      11.313   9.337 -14.807  0.00  0.00    +0.000 C 
ATOM      9  C   UNL     1      11.110  10.895 -16.826  0.00  0.00    +0.000 C 
ATOM     10  H   UNL     1      11.532   8.892 -16.797  0.00  0.00    +0.000 HD
ENDROOT
BRANCH   4  12
ATOM     11  O   UNL     1      10.089   9.421 -11.975  0.00  0.00    +0.000 OA
ATOM     12  C   UNL     1      10.915  10.353 -12.614  0.00  0.00    +0.000 C 
ATOM     13  C   UNL     1      11.568  11.125 -11.616  0.00  0.00    +0.000 C 
ATOM     14  C   UNL     1      11.334  10.893 -10.122  0.00  0.00    +0.000 C 
ATOM     15  C   UNL     1      10.426   9.836 -10.748  0.00  0.00    +0.000 C 
ENDBRANCH   4  12
TORSDOF 1
ENDMDL
