MODEL 1
REMARK VINA RESULT:      -2.7      0.000      0.000
REMARK  Name = 7288_3Pentanone.pdbqt.pdb
REMARK  2 active torsions:
REMARK  status: ('A' for Active; 'I' for Inactive)
REMARK    1  A    between atoms: C_2  and  C_3
REMARK    2  A    between atoms: C_2  and  C_5
REMARK                            x       y       z     vdW  Elec       q    Type
REMARK                         _______ _______ _______ _____ _____    ______ ____
ROOT
ATOM      1  O   UNL     1       3.303   2.357 -18.107  0.00  0.00    +0.000 OA
ATOM      2  C   UNL     1       4.181   1.507 -18.019  0.00  0.00    +0.000 C 
ENDROOT
BRANCH   2   3
ATOM      3  C   UNL     1       3.866   0.153 -17.632  0.00  0.00    +0.000 C 
ATOM      4  C   UNL     1       3.543  -1.301 -17.236  0.00  0.00    +0.000 C 
ENDBRANCH   2   3
BRANCH   2   5
ATOM      5  C   UNL     1       5.559   1.834 -18.301  0.00  0.00    +0.000 C 
ATOM      6  C   UNL     1       7.037   2.164 -18.589  0.00  0.00    +0.000 C 
ENDBRANCH   2   5
TORSDOF 2
ENDMDL
MODEL 2
REMARK VINA RESULT:      -2.7     15.277     16.192
REMARK  Name = 7288_3Pentanone.pdbqt.pdb
REMARK  2 active torsions:
REMARK  status: ('A' for Active; 'I' for Inactive)
REMARK    1  A    between atoms: C_2  and  C_3
REMARK    2  A    between atoms: C_2  and  C_5
REMARK                            x       y       z     vdW  Elec       q    Type
REMARK                         _______ _______ _______ _____ _____    ______ ____
ROOT
ATOM      1  O   UNL     1      -2.512  14.293 -14.330  0.00  0.00    +0.000 OA
ATOM      2  C   UNL     1      -3.310  14.413 -15.252  0.00  0.00    +0.000 C 
ENDROOT
BRANCH   2   3
ATOM      3  C   UNL     1      -2.924  14.112 -16.610  0.00  0.00    +0.000 C 
ATOM      4  C   UNL     1      -2.521  13.768 -18.057  0.00  0.00    +0.000 C 
ENDBRANCH   2   3
BRANCH   2   5
ATOM      5  C   UNL     1      -4.661  14.860 -15.009  0.00  0.00    +0.000 C 
ATOM      6  C   UNL     1      -6.108  15.317 -14.735  0.00  0.00    +0.000 C 
ENDBRANCH   2   5
TORSDOF 2
ENDMDL
MODEL 3
REMARK VINA RESULT:      -2.6      7.811      9.570
REMARK  Name = 7288_3Pentanone.pdbqt.pdb
REMARK  2 active torsions:
REMARK  status: ('A' for Active; 'I' for Inactive)
REMARK    1  A    between atoms: C_2  and  C_3
REMARK    2  A    between atoms: C_2  and  C_5
REMARK                            x       y       z     vdW  Elec       q    Type
REMARK                         _______ _______ _______ _____ _____    ______ ____
ROOT
ATOM      1  O   UNL     1      -2.873  -3.810 -17.904  0.00  0.00    +0.000 OA
ATOM      2  C   UNL     1      -3.351  -2.725 -18.213  0.00  0.00    +0.000 C 
ENDROOT
BRANCH   2   3
ATOM      3  C   UNL     1      -2.503  -1.577 -18.432  0.00  0.00    +0.000 C 
ATOM      4  C   UNL     1      -1.599  -0.356 -18.690  0.00  0.00    +0.000 C 
ENDBRANCH   2   3
BRANCH   2   5
ATOM      5  C   UNL     1      -4.777  -2.560 -18.367  0.00  0.00    +0.000 C 
ATOM      6  C   UNL     1      -6.304  -2.396 -18.512  0.00  0.00    +0.000 C 
ENDBRANCH   2   5
TORSDOF 2
ENDMDL
MODEL 4
REMARK VINA RESULT:      -2.6     18.324     18.684
REMARK  Name = 7288_3Pentanone.pdbqt.pdb
REMARK  2 active torsions:
REMARK  status: ('A' for Active; 'I' for Inactive)
REMARK    1  A    between atoms: C_2  and  C_3
REMARK    2  A    between atoms: C_2  and  C_5
REMARK                            x       y       z     vdW  Elec       q    Type
REMARK                         _______ _______ _______ _____ _____    ______ ____
ROOT
ATOM      1  O   UNL     1     -10.570   3.916  -8.750  0.00  0.00    +0.000 OA
ATOM      2  C   UNL     1     -10.853   5.066  -9.062  0.00  0.00    +0.000 C 
ENDROOT
BRANCH   2   3
ATOM      3  C   UNL     1     -10.567   6.167  -8.173  0.00  0.00    +0.000 C 
ATOM      4  C   UNL     1     -10.237   7.337  -7.226  0.00  0.00    +0.000 C 
ENDBRANCH   2   3
BRANCH   2   5
ATOM      5  C   UNL     1     -11.483   5.357 -10.328  0.00  0.00    +0.000 C 
ATOM      6  C   UNL     1     -12.156   5.644 -11.686  0.00  0.00    +0.000 C 
ENDBRANCH   2   5
TORSDOF 2
ENDMDL
MODEL 5
REMARK VINA RESULT:      -2.5     13.167     14.515
REMARK  Name = 7288_3Pentanone.pdbqt.pdb
REMARK  2 active torsions:
REMARK  status: ('A' for Active; 'I' for Inactive)
REMARK    1  A    between atoms: C_2  and  C_3
REMARK    2  A    between atoms: C_2  and  C_5
REMARK                            x       y       z     vdW  Elec       q    Type
REMARK                         _______ _______ _______ _____ _____    ______ ____
ROOT
ATOM      1  O   UNL     1     -10.179  -3.381 -18.979  0.00  0.00    +0.000 OA
ATOM      2  C   UNL     1      -9.558  -2.376 -18.656  0.00  0.00    +0.000 C 
ENDROOT
BRANCH   2   3
ATOM      3  C   UNL     1      -8.119  -2.399 -18.541  0.00  0.00    +0.000 C 
ATOM      4  C   UNL     1      -6.582  -2.429 -18.442  0.00  0.00    +0.000 C 
ENDBRANCH   2   3
BRANCH   2   5
ATOM      5  C   UNL     1     -10.246  -1.137 -18.380  0.00  0.00    +0.000 C 
ATOM      6  C   UNL     1     -10.999   0.179 -18.099  0.00  0.00    +0.000 C 
ENDBRANCH   2   5
TORSDOF 2
ENDMDL
MODEL 6
REMARK VINA RESULT:      -2.5      5.104      6.443
REMARK  Name = 7288_3Pentanone.pdbqt.pdb
REMARK  2 active torsions:
REMARK  status: ('A' for Active; 'I' for Inactive)
REMARK    1  A    between atoms: C_2  and  C_3
REMARK    2  A    between atoms: C_2  and  C_5
REMARK                            x       y       z     vdW  Elec       q    Type
REMARK                         _______ _______ _______ _____ _____    ______ ____
ROOT
ATOM      1  O   UNL     1      11.463   2.797 -18.929  0.00  0.00    +0.000 OA
ATOM      2  C   UNL     1      10.540   2.675 -18.134  0.00  0.00    +0.000 C 
ENDROOT
BRANCH   2   3
ATOM      3  C   UNL     1      10.790   2.334 -16.754  0.00  0.00    +0.000 C 
ATOM      4  C   UNL     1      11.050   1.946 -15.285  0.00  0.00    +0.000 C 
ENDBRANCH   2   3
BRANCH   2   5
ATOM      5  C   UNL     1       9.172   2.869 -18.552  0.00  0.00    +0.000 C 
ATOM      6  C   UNL     1       7.714   3.062 -19.018  0.00  0.00    +0.000 C 
ENDBRANCH   2   5
TORSDOF 2
ENDMDL
MODEL 7
REMARK VINA RESULT:      -2.5     20.002     20.840
REMARK  Name = 7288_3Pentanone.pdbqt.pdb
REMARK  2 active torsions:
REMARK  status: ('A' for Active; 'I' for Inactive)
REMARK    1  A    between atoms: C_2  and  C_3
REMARK    2  A    between atoms: C_2  and  C_5
REMARK                            x       y       z     vdW  Elec       q    Type
REMARK                         _______ _______ _______ _____ _____    ______ ____
ROOT
ATOM      1  O   UNL     1      -4.285   1.260   1.315  0.00  0.00    +0.000 OA
ATOM      2  C   UNL     1      -4.662   0.259   0.718  0.00  0.00    +0.000 C 
ENDROOT
BRANCH   2   3
ATOM      3  C   UNL     1      -6.041   0.113   0.313  0.00  0.00    +0.000 C 
ATOM      4  C   UNL     1      -7.504  -0.052  -0.140  0.00  0.00    +0.000 C 
ENDBRANCH   2   3
BRANCH   2   5
ATOM      5  C   UNL     1      -3.741  -0.806   0.400  0.00  0.00    +0.000 C 
ATOM      6  C   UNL     1      -2.746  -1.930   0.044  0.00  0.00    +0.000 C 
ENDBRANCH   2   5
TORSDOF 2
ENDMDL
MODEL 8
REMARK VINA RESULT:      -2.5      4.233      5.604
REMARK  Name = 7288_3Pentanone.pdbqt.pdb
REMARK  2 active torsions:
REMARK  status: ('A' for Active; 'I' for Inactive)
REMARK    1  A    between atoms: C_2  and  C_3
REMARK    2  A    between atoms: C_2  and  C_5
REMARK                            x       y       z     vdW  Elec       q    Type
REMARK                         _______ _______ _______ _____ _____    ______ ____
ROOT
ATOM      1  O   UNL     1       9.523  -0.199 -18.314  0.00  0.00    +0.000 OA
ATOM      2  C   UNL     1       9.308   0.883 -17.782  0.00  0.00    +0.000 C 
ENDROOT
BRANCH   2   3
ATOM      3  C   UNL     1      10.109   1.333 -16.668  0.00  0.00    +0.000 C 
ATOM      4  C   UNL     1      10.944   1.816 -15.466  0.00  0.00    +0.000 C 
ENDBRANCH   2   3
BRANCH   2   5
ATOM      5  C   UNL     1       8.247   1.742 -18.252  0.00  0.00    +0.000 C 
ATOM      6  C   UNL     1       7.099   2.650 -18.737  0.00  0.00    +0.000 C 
ENDBRANCH   2   5
TORSDOF 2
ENDMDL
MODEL 9
REMARK VINA RESULT:      -2.4     14.815     15.547
REMARK  Name = 7288_3Pentanone.pdbqt.pdb
REMARK  2 active torsions:
REMARK  status: ('A' for Active; 'I' for Inactive)
REMARK    1  A    between atoms: C_2  and  C_3
REMARK    2  A    between atoms: C_2  and  C_5
REMARK                            x       y       z     vdW  Elec       q    Type
REMARK                         _______ _______ _______ _____ _____    ______ ____
ROOT
ATOM      1  O   UNL     1      -4.801  15.073 -18.095  0.00  0.00    +0.000 OA
ATOM      2  C   UNL     1      -3.728  14.625 -17.711  0.00  0.00    +0.000 C 
ENDROOT
BRANCH   2   3
ATOM      3  C   UNL     1      -3.457  14.457 -16.302  0.00  0.00    +0.000 C 
ATOM      4  C   UNL     1      -3.163  14.255 -14.803  0.00  0.00    +0.000 C 
ENDBRANCH   2   3
BRANCH   2   5
ATOM      5  C   UNL     1      -2.700  14.250 -18.653  0.00  0.00    +0.000 C 
ATOM      6  C   UNL     1      -1.613  13.863 -19.676  0.00  0.00    +0.000 C 
ENDBRANCH   2   5
TORSDOF 2
ENDMDL
