MODEL 1
REMARK VINA RESULT:      -6.8      0.000      0.000
REMARK  Name = 73299_Hederagenin.pdbqt.pdb
REMARK  5 active torsions:
REMARK  status: ('A' for Active; 'I' for Inactive)
REMARK    1  A    between atoms: C_9  and  C_35
REMARK    2  A    between atoms: C_14  and  C_32
REMARK    3  A    between atoms: C_17  and  O_29
REMARK    4  A    between atoms: C_32  and  O_33
REMARK    5  A    between atoms: C_35  and  O_36
REMARK                            x       y       z     vdW  Elec       q    Type
REMARK                         _______ _______ _______ _____ _____    ______ ____
ROOT
ATOM      1  C   UNL     1      11.998  11.369 -17.166  0.00  0.00    +0.000 C 
ATOM      2  C   UNL     1      13.094  10.693 -16.241  0.00  0.00    +0.000 C 
ATOM      3  C   UNL     1      12.838  10.292 -14.784  0.00  0.00    +0.000 C 
ATOM      4  C   UNL     1      12.634  12.569 -18.114  0.00  0.00    +0.000 C 
ATOM      5  C   UNL     1      11.863  11.187 -13.964  0.00  0.00    +0.000 C 
ATOM      6  C   UNL     1      10.986  11.901 -16.246  0.00  0.00    +0.000 C 
ATOM      7  C   UNL     1      10.882  11.844 -14.758  0.00  0.00    +0.000 C 
ATOM      8  C   UNL     1      13.986  12.095 -18.879  0.00  0.00    +0.000 C 
ATOM      9  C   UNL     1      12.096  11.551 -12.488  0.00  0.00    +0.000 C 
ATOM     10  C   UNL     1      14.316  12.413 -20.286  0.00  0.00    +0.000 C 
ATOM     11  C   UNL     1      14.362  10.583 -16.895  0.00  0.00    +0.000 C 
ATOM     12  C   UNL     1      14.092  10.314 -14.037  0.00  0.00    +0.000 C 
ATOM     13  C   UNL     1      11.743  12.985 -19.214  0.00  0.00    +0.000 C 
ATOM     14  C   UNL     1      13.169  12.629 -21.453  0.00  0.00    +0.000 C 
ATOM     15  C   UNL     1      11.372  10.213 -18.048  0.00  0.00    +0.000 C 
ATOM     16  C   UNL     1      11.983  13.044 -20.704  0.00  0.00    +0.000 C 
ATOM     17  C   UNL     1      13.403  11.061 -11.810  0.00  0.00    +0.000 C 
ATOM     18  C   UNL     1      14.715  11.272 -18.182  0.00  0.00    +0.000 C 
ATOM     19  C   UNL     1      12.252   8.857 -14.789  0.00  0.00    +0.000 C 
ATOM     20  C   UNL     1      14.466  10.645 -12.631  0.00  0.00    +0.000 C 
ATOM     21  C   UNL     1      13.062  13.843 -17.264  0.00  0.00    +0.000 C 
ATOM     22  C   UNL     1      15.594  13.070 -20.560  0.00  0.00    +0.000 C 
ATOM     23  C   UNL     1      13.759  13.656 -22.353  0.00  0.00    +0.000 C 
ATOM     24  C   UNL     1      16.313  14.040 -21.469  0.00  0.00    +0.000 C 
ATOM     25  C   UNL     1      10.890  11.020 -11.644  0.00  0.00    +0.000 C 
ATOM     26  C   UNL     1      15.170  14.298 -22.403  0.00  0.00    +0.000 C 
ATOM     27  C   UNL     1      16.728  15.312 -20.707  0.00  0.00    +0.000 C 
ATOM     28  C   UNL     1      17.500  13.370 -22.184  0.00  0.00    +0.000 C 
ENDROOT
BRANCH  17  29
ATOM     29  O   UNL     1      13.435  10.744 -10.462  0.00  0.00    +0.000 OA
ATOM     30  H   UNL     1      13.093  11.486  -9.921  0.00  0.00    +0.000 HD
ENDBRANCH  17  29
BRANCH  14  32
ATOM     31  O   UNL     1      13.867  10.450 -22.367  0.00  0.00    +0.000 OA
ATOM     32  C   UNL     1      12.997  11.292 -22.184  0.00  0.00    +0.000 C 
BRANCH  32  33
ATOM     33  O   UNL     1      11.769  11.102 -22.716  0.00  0.00    +0.000 OA
ATOM     34  H   UNL     1      11.310  10.501 -22.090  0.00  0.00    +0.000 HD
ENDBRANCH  32  33
ENDBRANCH  14  32
BRANCH   9  35
ATOM     35  C   UNL     1      12.144  13.044 -12.393  0.00  0.00    +0.000 C 
BRANCH  35  36
ATOM     36  O   UNL     1      12.174  14.378 -12.315  0.00  0.00    +0.000 OA
ATOM     37  H   UNL     1      11.440  14.775 -12.819  0.00  0.00    +0.000 HD
ENDBRANCH  35  36
ENDBRANCH   9  35
TORSDOF 5
ENDMDL
MODEL 2
REMARK VINA RESULT:      -6.7     22.041     25.096
REMARK  Name = 73299_Hederagenin.pdbqt.pdb
REMARK  5 active torsions:
REMARK  status: ('A' for Active; 'I' for Inactive)
REMARK    1  A    between atoms: C_9  and  C_35
REMARK    2  A    between atoms: C_14  and  C_32
REMARK    3  A    between atoms: C_17  and  O_29
REMARK    4  A    between atoms: C_32  and  O_33
REMARK    5  A    between atoms: C_35  and  O_36
REMARK                            x       y       z     vdW  Elec       q    Type
REMARK                         _______ _______ _______ _____ _____    ______ ____
ROOT
ATOM      1  C   UNL     1      -7.230  -2.479 -20.029  0.00  0.00    +0.000 C 
ATOM      2  C   UNL     1      -8.049  -1.501 -20.971  0.00  0.00    +0.000 C 
ATOM      3  C   UNL     1      -9.352  -1.900 -21.672  0.00  0.00    +0.000 C 
ATOM      4  C   UNL     1      -5.595  -2.343 -20.257  0.00  0.00    +0.000 C 
ATOM      5  C   UNL     1      -9.489  -3.383 -22.123  0.00  0.00    +0.000 C 
ATOM      6  C   UNL     1      -7.701  -3.828 -20.365  0.00  0.00    +0.000 C 
ATOM      7  C   UNL     1      -8.741  -4.296 -21.328  0.00  0.00    +0.000 C 
ATOM      8  C   UNL     1      -5.101  -0.796 -20.244  0.00  0.00    +0.000 C 
ATOM      9  C   UNL     1     -10.138  -3.802 -23.453  0.00  0.00    +0.000 C 
ATOM     10  C   UNL     1      -3.872  -0.308 -19.580  0.00  0.00    +0.000 C 
ATOM     11  C   UNL     1      -7.388  -0.246 -21.155  0.00  0.00    +0.000 C 
ATOM     12  C   UNL     1      -9.517  -1.116 -22.893  0.00  0.00    +0.000 C 
ATOM     13  C   UNL     1      -4.797  -2.970 -19.187  0.00  0.00    +0.000 C 
ATOM     14  C   UNL     1      -3.235  -1.014 -18.231  0.00  0.00    +0.000 C 
ATOM     15  C   UNL     1      -7.633  -2.121 -18.541  0.00  0.00    +0.000 C 
ATOM     16  C   UNL     1      -3.721  -2.393 -18.298  0.00  0.00    +0.000 C 
ATOM     17  C   UNL     1     -10.611  -2.685 -24.421  0.00  0.00    +0.000 C 
ATOM     18  C   UNL     1      -5.966   0.031 -20.756  0.00  0.00    +0.000 C 
ATOM     19  C   UNL     1     -10.519  -1.606 -20.695  0.00  0.00    +0.000 C 
ATOM     20  C   UNL     1     -10.109  -1.385 -24.236  0.00  0.00    +0.000 C 
ATOM     21  C   UNL     1      -5.135  -2.913 -21.669  0.00  0.00    +0.000 C 
ATOM     22  C   UNL     1      -2.908   0.443 -20.385  0.00  0.00    +0.000 C 
ATOM     23  C   UNL     1      -1.767  -0.837 -18.389  0.00  0.00    +0.000 C 
ATOM     24  C   UNL     1      -1.443   0.757 -20.581  0.00  0.00    +0.000 C 
ATOM     25  C   UNL     1     -11.366  -4.721 -23.145  0.00  0.00    +0.000 C 
ATOM     26  C   UNL     1      -0.928  -0.034 -19.418  0.00  0.00    +0.000 C 
ATOM     27  C   UNL     1      -0.930   0.202 -21.923  0.00  0.00    +0.000 C 
ATOM     28  C   UNL     1      -1.162   2.262 -20.423  0.00  0.00    +0.000 C 
ENDROOT
BRANCH  17  29
ATOM     29  O   UNL     1     -11.712  -2.867 -25.241  0.00  0.00    +0.000 OA
ATOM     30  H   UNL     1     -12.241  -3.639 -24.949  0.00  0.00    +0.000 HD
ENDBRANCH  17  29
BRANCH  14  32
ATOM     31  O   UNL     1      -4.482  -0.680 -16.134  0.00  0.00    +0.000 OA
ATOM     32  C   UNL     1      -3.755  -0.239 -17.014  0.00  0.00    +0.000 C 
BRANCH  32  33
ATOM     33  O   UNL     1      -3.404   1.066 -16.994  0.00  0.00    +0.000 OA
ATOM     34  H   UNL     1      -3.501   1.371 -17.921  0.00  0.00    +0.000 HD
ENDBRANCH  32  33
ENDBRANCH  14  32
BRANCH   9  35
ATOM     35  C   UNL     1      -9.120  -4.582 -24.226  0.00  0.00    +0.000 C 
BRANCH  35  36
ATOM     36  O   UNL     1      -8.218  -5.291 -24.909  0.00  0.00    +0.000 OA
ATOM     37  H   UNL     1      -7.629  -4.708 -25.423  0.00  0.00    +0.000 HD
ENDBRANCH  35  36
ENDBRANCH   9  35
TORSDOF 5
ENDMDL
MODEL 3
REMARK VINA RESULT:      -6.6     12.726     15.474
REMARK  Name = 73299_Hederagenin.pdbqt.pdb
REMARK  5 active torsions:
REMARK  status: ('A' for Active; 'I' for Inactive)
REMARK    1  A    between atoms: C_9  and  C_35
REMARK    2  A    between atoms: C_14  and  C_32
REMARK    3  A    between atoms: C_17  and  O_29
REMARK    4  A    between atoms: C_32  and  O_33
REMARK    5  A    between atoms: C_35  and  O_36
REMARK                            x       y       z     vdW  Elec       q    Type
REMARK                         _______ _______ _______ _____ _____    ______ ____
ROOT
ATOM      1  C   UNL     1       5.458  -0.044 -21.156  0.00  0.00    +0.000 C 
ATOM      2  C   UNL     1       5.165  -1.546 -20.741  0.00  0.00    +0.000 C 
ATOM      3  C   UNL     1       3.805  -2.225 -20.934  0.00  0.00    +0.000 C 
ATOM      4  C   UNL     1       6.396   0.742 -20.040  0.00  0.00    +0.000 C 
ATOM      5  C   UNL     1       2.540  -1.330 -20.791  0.00  0.00    +0.000 C 
ATOM      6  C   UNL     1       4.140   0.589 -21.281  0.00  0.00    +0.000 C 
ATOM      7  C   UNL     1       2.764   0.036 -21.118  0.00  0.00    +0.000 C 
ATOM      8  C   UNL     1       7.703  -0.125 -19.618  0.00  0.00    +0.000 C 
ATOM      9  C   UNL     1       1.249  -1.803 -20.102  0.00  0.00    +0.000 C 
ATOM     10  C   UNL     1       9.060   0.432 -19.427  0.00  0.00    +0.000 C 
ATOM     11  C   UNL     1       6.285  -2.157 -20.093  0.00  0.00    +0.000 C 
ATOM     12  C   UNL     1       3.636  -3.283 -19.943  0.00  0.00    +0.000 C 
ATOM     13  C   UNL     1       6.967   2.007 -20.538  0.00  0.00    +0.000 C 
ATOM     14  C   UNL     1       9.618   1.748 -20.251  0.00  0.00    +0.000 C 
ATOM     15  C   UNL     1       6.169  -0.093 -22.570  0.00  0.00    +0.000 C 
ATOM     16  C   UNL     1       8.401   2.478 -20.608  0.00  0.00    +0.000 C 
ATOM     17  C   UNL     1       1.237  -3.215 -19.457  0.00  0.00    +0.000 C 
ATOM     18  C   UNL     1       7.490  -1.409 -19.597  0.00  0.00    +0.000 C 
ATOM     19  C   UNL     1       3.782  -2.830 -22.361  0.00  0.00    +0.000 C 
ATOM     20  C   UNL     1       2.470  -3.840 -19.197  0.00  0.00    +0.000 C 
ATOM     21  C   UNL     1       5.617   1.007 -18.680  0.00  0.00    +0.000 C 
ATOM     22  C   UNL     1       9.730   0.187 -18.149  0.00  0.00    +0.000 C 
ATOM     23  C   UNL     1      10.519   2.427 -19.282  0.00  0.00    +0.000 C 
ATOM     24  C   UNL     1      10.700   0.750 -17.136  0.00  0.00    +0.000 C 
ATOM     25  C   UNL     1       0.077  -1.740 -21.136  0.00  0.00    +0.000 C 
ATOM     26  C   UNL     1      11.042   2.002 -17.885  0.00  0.00    +0.000 C 
ATOM     27  C   UNL     1       9.995   1.056 -15.801  0.00  0.00    +0.000 C 
ATOM     28  C   UNL     1      11.923  -0.166 -16.957  0.00  0.00    +0.000 C 
ENDROOT
BRANCH  17  29
ATOM     29  O   UNL     1       0.080  -3.975 -19.417  0.00  0.00    +0.000 OA
ATOM     30  H   UNL     1      -0.470  -3.731 -18.644  0.00  0.00    +0.000 HD
ENDBRANCH  17  29
BRANCH  14  32
ATOM     31  O   UNL     1       9.928   0.877 -22.534  0.00  0.00    +0.000 OA
ATOM     32  C   UNL     1      10.403   1.235 -21.465  0.00  0.00    +0.000 C 
BRANCH  32  33
ATOM     33  O   UNL     1      11.734   1.122 -21.260  0.00  0.00    +0.000 OA
ATOM     34  H   UNL     1      11.840   1.070 -20.286  0.00  0.00    +0.000 HD
ENDBRANCH  32  33
ENDBRANCH  14  32
BRANCH   9  35
ATOM     35  C   UNL     1       0.965  -0.858 -18.976  0.00  0.00    +0.000 C 
BRANCH  35  36
ATOM     36  O   UNL     1       0.702  -0.025 -17.965  0.00  0.00    +0.000 OA
ATOM     37  H   UNL     1       1.020  -0.390 -17.118  0.00  0.00    +0.000 HD
ENDBRANCH  35  36
ENDBRANCH   9  35
TORSDOF 5
ENDMDL
MODEL 4
REMARK VINA RESULT:      -6.6     20.161     23.055
REMARK  Name = 73299_Hederagenin.pdbqt.pdb
REMARK  5 active torsions:
REMARK  status: ('A' for Active; 'I' for Inactive)
REMARK    1  A    between atoms: C_9  and  C_35
REMARK    2  A    between atoms: C_14  and  C_32
REMARK    3  A    between atoms: C_17  and  O_29
REMARK    4  A    between atoms: C_32  and  O_33
REMARK    5  A    between atoms: C_35  and  O_36
REMARK                            x       y       z     vdW  Elec       q    Type
REMARK                         _______ _______ _______ _____ _____    ______ ____
ROOT
ATOM      1  C   UNL     1      -4.628  -1.030 -20.287  0.00  0.00    +0.000 C 
ATOM      2  C   UNL     1      -4.972  -1.898 -21.569  0.00  0.00    +0.000 C 
ATOM      3  C   UNL     1      -6.402  -2.265 -21.981  0.00  0.00    +0.000 C 
ATOM      4  C   UNL     1      -3.296  -1.601 -19.485  0.00  0.00    +0.000 C 
ATOM      5  C   UNL     1      -7.431  -2.494 -20.837  0.00  0.00    +0.000 C 
ATOM      6  C   UNL     1      -5.825  -1.096 -19.441  0.00  0.00    +0.000 C 
ATOM      7  C   UNL     1      -7.144  -1.763 -19.651  0.00  0.00    +0.000 C 
ATOM      8  C   UNL     1      -2.048  -1.877 -20.487  0.00  0.00    +0.000 C 
ATOM      9  C   UNL     1      -8.496  -3.604 -20.873  0.00  0.00    +0.000 C 
ATOM     10  C   UNL     1      -0.638  -1.541 -20.191  0.00  0.00    +0.000 C 
ATOM     11  C   UNL     1      -3.797  -2.363 -22.239  0.00  0.00    +0.000 C 
ATOM     12  C   UNL     1      -6.393  -3.513 -22.739  0.00  0.00    +0.000 C 
ATOM     13  C   UNL     1      -2.747  -0.646 -18.504  0.00  0.00    +0.000 C 
ATOM     14  C   UNL     1      -0.196  -0.274 -19.231  0.00  0.00    +0.000 C 
ATOM     15  C   UNL     1      -4.403   0.454 -20.790  0.00  0.00    +0.000 C 
ATOM     16  C   UNL     1      -1.357  -0.072 -18.364  0.00  0.00    +0.000 C 
ATOM     17  C   UNL     1      -8.492  -4.585 -22.076  0.00  0.00    +0.000 C 
ATOM     18  C   UNL     1      -2.410  -2.299 -21.664  0.00  0.00    +0.000 C 
ATOM     19  C   UNL     1      -6.945  -1.114 -22.866  0.00  0.00    +0.000 C 
ATOM     20  C   UNL     1      -7.333  -4.664 -22.868  0.00  0.00    +0.000 C 
ATOM     21  C   UNL     1      -3.574  -2.996 -18.774  0.00  0.00    +0.000 C 
ATOM     22  C   UNL     1       0.356  -2.610 -20.282  0.00  0.00    +0.000 C 
ATOM     23  C   UNL     1       1.042  -0.748 -18.555  0.00  0.00    +0.000 C 
ATOM     24  C   UNL     1       1.657  -3.137 -19.722  0.00  0.00    +0.000 C 
ATOM     25  C   UNL     1      -9.912  -2.943 -20.799  0.00  0.00    +0.000 C 
ATOM     26  C   UNL     1       1.912  -2.015 -18.762  0.00  0.00    +0.000 C 
ATOM     27  C   UNL     1       1.447  -4.477 -18.993  0.00  0.00    +0.000 C 
ATOM     28  C   UNL     1       2.745  -3.223 -20.807  0.00  0.00    +0.000 C 
ENDROOT
BRANCH  17  29
ATOM     29  O   UNL     1      -9.669  -5.135 -22.555  0.00  0.00    +0.000 OA
ATOM     30  H   UNL     1      -9.754  -6.071 -22.277  0.00  0.00    +0.000 HD
ENDBRANCH  17  29
BRANCH  14  32
ATOM     31  O   UNL     1       0.370   0.866 -21.340  0.00  0.00    +0.000 OA
ATOM     32  C   UNL     1       0.100   0.920 -20.147  0.00  0.00    +0.000 C 
BRANCH  32  33
ATOM     33  O   UNL     1       0.120   2.115 -19.517  0.00  0.00    +0.000 OA
ATOM     34  H   UNL     1      -0.128   1.918 -18.588  0.00  0.00    +0.000 HD
ENDBRANCH  32  33
ENDBRANCH  14  32
BRANCH   9  35
ATOM     35  C   UNL     1      -8.291  -4.467 -19.667  0.00  0.00    +0.000 C 
BRANCH  35  36
ATOM     36  O   UNL     1      -8.095  -5.242 -18.596  0.00  0.00    +0.000 OA
ATOM     37  H   UNL     1      -8.899  -5.747 -18.377  0.00  0.00    +0.000 HD
ENDBRANCH  35  36
ENDBRANCH   9  35
TORSDOF 5
ENDMDL
MODEL 5
REMARK VINA RESULT:      -6.3      1.882      8.415
REMARK  Name = 73299_Hederagenin.pdbqt.pdb
REMARK  5 active torsions:
REMARK  status: ('A' for Active; 'I' for Inactive)
REMARK    1  A    between atoms: C_9  and  C_35
REMARK    2  A    between atoms: C_14  and  C_32
REMARK    3  A    between atoms: C_17  and  O_29
REMARK    4  A    between atoms: C_32  and  O_33
REMARK    5  A    between atoms: C_35  and  O_36
REMARK                            x       y       z     vdW  Elec       q    Type
REMARK                         _______ _______ _______ _____ _____    ______ ____
ROOT
ATOM      1  C   UNL     1      12.458  10.973 -16.012  0.00  0.00    +0.000 C 
ATOM      2  C   UNL     1      11.540  11.807 -17.000  0.00  0.00    +0.000 C 
ATOM      3  C   UNL     1      11.587  11.658 -18.525  0.00  0.00    +0.000 C 
ATOM      4  C   UNL     1      13.023  11.894 -14.757  0.00  0.00    +0.000 C 
ATOM      5  C   UNL     1      12.968  11.327 -19.161  0.00  0.00    +0.000 C 
ATOM      6  C   UNL     1      13.560  10.469 -16.838  0.00  0.00    +0.000 C 
ATOM      7  C   UNL     1      13.841  10.609 -18.297  0.00  0.00    +0.000 C 
ATOM      8  C   UNL     1      11.842  12.751 -14.044  0.00  0.00    +0.000 C 
ATOM      9  C   UNL     1      13.455  11.945 -20.482  0.00  0.00    +0.000 C 
ATOM     10  C   UNL     1      11.698  12.938 -12.583  0.00  0.00    +0.000 C 
ATOM     11  C   UNL     1      10.733  12.767 -16.310  0.00  0.00    +0.000 C 
ATOM     12  C   UNL     1      11.167  12.904 -19.157  0.00  0.00    +0.000 C 
ATOM     13  C   UNL     1      13.587  11.098 -13.651  0.00  0.00    +0.000 C 
ATOM     14  C   UNL     1      12.195  11.817 -11.478  0.00  0.00    +0.000 C 
ATOM     15  C   UNL     1      11.580   9.765 -15.487  0.00  0.00    +0.000 C 
ATOM     16  C   UNL     1      13.245  11.079 -12.179  0.00  0.00    +0.000 C 
ATOM     17  C   UNL     1      12.554  13.004 -21.172  0.00  0.00    +0.000 C 
ATOM     18  C   UNL     1      10.923  13.157 -14.872  0.00  0.00    +0.000 C 
ATOM     19  C   UNL     1      10.614  10.515 -18.913  0.00  0.00    +0.000 C 
ATOM     20  C   UNL     1      11.546  13.621 -20.409  0.00  0.00    +0.000 C 
ATOM     21  C   UNL     1      14.089  12.973 -15.234  0.00  0.00    +0.000 C 
ATOM     22  C   UNL     1      11.623  14.306 -12.070  0.00  0.00    +0.000 C 
ATOM     23  C   UNL     1      12.641  12.630 -10.315  0.00  0.00    +0.000 C 
ATOM     24  C   UNL     1      11.958  15.206 -10.903  0.00  0.00    +0.000 C 
ATOM     25  C   UNL     1      13.713  10.794 -21.510  0.00  0.00    +0.000 C 
ATOM     26  C   UNL     1      12.534  14.148 -10.013  0.00  0.00    +0.000 C 
ATOM     27  C   UNL     1      13.011  16.258 -11.297  0.00  0.00    +0.000 C 
ATOM     28  C   UNL     1      10.693  15.840 -10.299  0.00  0.00    +0.000 C 
ENDROOT
BRANCH  17  29
ATOM     29  O   UNL     1      12.519  13.127 -22.551  0.00  0.00    +0.000 OA
ATOM     30  H   UNL     1      11.771  13.696 -22.831  0.00  0.00    +0.000 HD
ENDBRANCH  17  29
BRANCH  14  32
ATOM     31  O   UNL     1      10.463  10.099 -11.817  0.00  0.00    +0.000 OA
ATOM     32  C   UNL     1      10.979  10.957 -11.113  0.00  0.00    +0.000 C 
BRANCH  32  33
ATOM     33  O   UNL     1      10.420  11.259  -9.921  0.00  0.00    +0.000 OA
ATOM     34  H   UNL     1      11.174  11.333  -9.296  0.00  0.00    +0.000 HD
ENDBRANCH  32  33
ENDBRANCH  14  32
BRANCH   9  35
ATOM     35  C   UNL     1      14.743  12.654 -20.202  0.00  0.00    +0.000 C 
BRANCH  35  36
ATOM     36  O   UNL     1      15.896  13.277 -19.941  0.00  0.00    +0.000 OA
ATOM     37  H   UNL     1      16.177  13.123 -19.020  0.00  0.00    +0.000 HD
ENDBRANCH  35  36
ENDBRANCH   9  35
TORSDOF 5
ENDMDL
MODEL 6
REMARK VINA RESULT:      -6.3     21.281     24.353
REMARK  Name = 73299_Hederagenin.pdbqt.pdb
REMARK  5 active torsions:
REMARK  status: ('A' for Active; 'I' for Inactive)
REMARK    1  A    between atoms: C_9  and  C_35
REMARK    2  A    between atoms: C_14  and  C_32
REMARK    3  A    between atoms: C_17  and  O_29
REMARK    4  A    between atoms: C_32  and  O_33
REMARK    5  A    between atoms: C_35  and  O_36
REMARK                            x       y       z     vdW  Elec       q    Type
REMARK                         _______ _______ _______ _____ _____    ______ ____
ROOT
ATOM      1  C   UNL     1       5.699   3.066   1.270  0.00  0.00    +0.000 C 
ATOM      2  C   UNL     1       6.404   3.976   2.361  0.00  0.00    +0.000 C 
ATOM      3  C   UNL     1       7.924   4.139   2.470  0.00  0.00    +0.000 C 
ATOM      4  C   UNL     1       4.412   2.229   1.891  0.00  0.00    +0.000 C 
ATOM      5  C   UNL     1       8.797   2.906   2.095  0.00  0.00    +0.000 C 
ATOM      6  C   UNL     1       6.743   2.154   0.791  0.00  0.00    +0.000 C 
ATOM      7  C   UNL     1       8.189   2.040   1.144  0.00  0.00    +0.000 C 
ATOM      8  C   UNL     1       3.413   3.184   2.745  0.00  0.00    +0.000 C 
ATOM      9  C   UNL     1      10.064   2.507   2.870  0.00  0.00    +0.000 C 
ATOM     10  C   UNL     1       1.936   3.119   2.694  0.00  0.00    +0.000 C 
ATOM     11  C   UNL     1       5.466   4.551   3.275  0.00  0.00    +0.000 C 
ATOM     12  C   UNL     1       8.290   4.459   3.846  0.00  0.00    +0.000 C 
ATOM     13  C   UNL     1       3.535   1.647   0.858  0.00  0.00    +0.000 C 
ATOM     14  C   UNL     1       1.100   2.648   1.352  0.00  0.00    +0.000 C 
ATOM     15  C   UNL     1       5.245   4.030   0.099  0.00  0.00    +0.000 C 
ATOM     16  C   UNL     1       2.050   1.804   0.628  0.00  0.00    +0.000 C 
ATOM     17  C   UNL     1      10.445   3.332   4.128  0.00  0.00    +0.000 C 
ATOM     18  C   UNL     1       4.027   4.134   3.389  0.00  0.00    +0.000 C 
ATOM     19  C   UNL     1       8.339   5.300   1.529  0.00  0.00    +0.000 C 
ATOM     20  C   UNL     1       9.459   4.143   4.717  0.00  0.00    +0.000 C 
ATOM     21  C   UNL     1       4.868   1.093   2.906  0.00  0.00    +0.000 C 
ATOM     22  C   UNL     1       1.213   2.941   3.954  0.00  0.00    +0.000 C 
ATOM     23  C   UNL     1      -0.098   1.953   1.897  0.00  0.00    +0.000 C 
ATOM     24  C   UNL     1      -0.017   2.343   4.597  0.00  0.00    +0.000 C 
ATOM     25  C   UNL     1      11.283   2.538   1.890  0.00  0.00    +0.000 C 
ATOM     26  C   UNL     1      -0.641   1.813   3.343  0.00  0.00    +0.000 C 
ATOM     27  C   UNL     1       0.359   1.213   5.573  0.00  0.00    +0.000 C 
ATOM     28  C   UNL     1      -0.888   3.425   5.260  0.00  0.00    +0.000 C 
ENDROOT
BRANCH  17  29
ATOM     29  O   UNL     1      11.769   3.520   4.488  0.00  0.00    +0.000 OA
ATOM     30  H   UNL     1      12.368   3.267   3.755  0.00  0.00    +0.000 HD
ENDBRANCH  17  29
BRANCH  14  32
ATOM     31  O   UNL     1       0.555   4.014  -0.624  0.00  0.00    +0.000 OA
ATOM     32  C   UNL     1       0.699   3.915   0.588  0.00  0.00    +0.000 C 
BRANCH  32  33
ATOM     33  O   UNL     1       0.571   5.016   1.362  0.00  0.00    +0.000 OA
ATOM     34  H   UNL     1      -0.300   5.398   1.120  0.00  0.00    +0.000 HD
ENDBRANCH  32  33
ENDBRANCH  14  32
BRANCH   9  35
ATOM     35  C   UNL     1       9.867   1.108   3.367  0.00  0.00    +0.000 C 
BRANCH  35  36
ATOM     36  O   UNL     1       9.706  -0.143   3.807  0.00  0.00    +0.000 OA
ATOM     37  H   UNL     1       9.158  -0.164   4.614  0.00  0.00    +0.000 HD
ENDBRANCH  35  36
ENDBRANCH   9  35
TORSDOF 5
ENDMDL
MODEL 7
REMARK VINA RESULT:      -6.2     26.643     30.300
REMARK  Name = 73299_Hederagenin.pdbqt.pdb
REMARK  5 active torsions:
REMARK  status: ('A' for Active; 'I' for Inactive)
REMARK    1  A    between atoms: C_9  and  C_35
REMARK    2  A    between atoms: C_14  and  C_32
REMARK    3  A    between atoms: C_17  and  O_29
REMARK    4  A    between atoms: C_32  and  O_33
REMARK    5  A    between atoms: C_35  and  O_36
REMARK                            x       y       z     vdW  Elec       q    Type
REMARK                         _______ _______ _______ _____ _____    ______ ____
ROOT
ATOM      1  C   UNL     1     -14.754   6.663 -11.134  0.00  0.00    +0.000 C 
ATOM      2  C   UNL     1     -16.195   6.461 -10.505  0.00  0.00    +0.000 C 
ATOM      3  C   UNL     1     -17.488   6.495 -11.328  0.00  0.00    +0.000 C 
ATOM      4  C   UNL     1     -13.776   7.589 -10.171  0.00  0.00    +0.000 C 
ATOM      5  C   UNL     1     -17.522   7.456 -12.552  0.00  0.00    +0.000 C 
ATOM      6  C   UNL     1     -14.983   7.307 -12.432  0.00  0.00    +0.000 C 
ATOM      7  C   UNL     1     -16.244   7.697 -13.129  0.00  0.00    +0.000 C 
ATOM      8  C   UNL     1     -13.791   7.094  -8.624  0.00  0.00    +0.000 C 
ATOM      9  C   UNL     1     -18.760   8.283 -12.937  0.00  0.00    +0.000 C 
ATOM     10  C   UNL     1     -12.598   7.006  -7.754  0.00  0.00    +0.000 C 
ATOM     11  C   UNL     1     -16.152   6.329  -9.081  0.00  0.00    +0.000 C 
ATOM     12  C   UNL     1     -18.601   6.917 -10.483  0.00  0.00    +0.000 C 
ATOM     13  C   UNL     1     -12.350   7.521 -10.541  0.00  0.00    +0.000 C 
ATOM     14  C   UNL     1     -11.083   6.694  -8.330  0.00  0.00    +0.000 C 
ATOM     15  C   UNL     1     -14.145   5.218 -11.349  0.00  0.00    +0.000 C 
ATOM     16  C   UNL     1     -11.137   7.152  -9.718  0.00  0.00    +0.000 C 
ATOM     17  C   UNL     1     -20.007   8.209 -12.015  0.00  0.00    +0.000 C 
ATOM     18  C   UNL     1     -14.945   6.631  -8.238  0.00  0.00    +0.000 C 
ATOM     19  C   UNL     1     -17.743   5.061 -11.860  0.00  0.00    +0.000 C 
ATOM     20  C   UNL     1     -19.843   7.711 -10.711  0.00  0.00    +0.000 C 
ATOM     21  C   UNL     1     -14.242   9.109 -10.124  0.00  0.00    +0.000 C 
ATOM     22  C   UNL     1     -12.627   7.716  -6.474  0.00  0.00    +0.000 C 
ATOM     23  C   UNL     1     -10.187   7.466  -7.428  0.00  0.00    +0.000 C 
ATOM     24  C   UNL     1     -11.791   8.449  -5.451  0.00  0.00    +0.000 C 
ATOM     25  C   UNL     1     -19.207   7.877 -14.380  0.00  0.00    +0.000 C 
ATOM     26  C   UNL     1     -10.465   8.248  -6.118  0.00  0.00    +0.000 C 
ATOM     27  C   UNL     1     -12.178   9.938  -5.380  0.00  0.00    +0.000 C 
ATOM     28  C   UNL     1     -11.853   7.761  -4.076  0.00  0.00    +0.000 C 
ENDROOT
BRANCH  17  29
ATOM     29  O   UNL     1     -21.287   8.329 -12.531  0.00  0.00    +0.000 OA
ATOM     30  H   UNL     1     -21.280   8.840 -13.366  0.00  0.00    +0.000 HD
ENDBRANCH  17  29
BRANCH  14  32
ATOM     31  O   UNL     1     -11.380   4.303  -8.841  0.00  0.00    +0.000 OA
ATOM     32  C   UNL     1     -10.837   5.187  -8.191  0.00  0.00    +0.000 C 
BRANCH  32  33
ATOM     33  O   UNL     1      -9.983   4.851  -7.199  0.00  0.00    +0.000 OA
ATOM     34  H   UNL     1      -9.211   5.446  -7.314  0.00  0.00    +0.000 HD
ENDBRANCH  32  33
ENDBRANCH  14  32
BRANCH   9  35
ATOM     35  C   UNL     1     -18.358   9.726 -12.933  0.00  0.00    +0.000 C 
BRANCH  35  36
ATOM     36  O   UNL     1     -17.998  11.012 -12.914  0.00  0.00    +0.000 OA
ATOM     37  H   UNL     1     -17.433  11.207 -12.144  0.00  0.00    +0.000 HD
ENDBRANCH  35  36
ENDBRANCH   9  35
TORSDOF 5
ENDMDL
MODEL 8
REMARK VINA RESULT:      -6.2     20.161     23.388
REMARK  Name = 73299_Hederagenin.pdbqt.pdb
REMARK  5 active torsions:
REMARK  status: ('A' for Active; 'I' for Inactive)
REMARK    1  A    between atoms: C_9  and  C_35
REMARK    2  A    between atoms: C_14  and  C_32
REMARK    3  A    between atoms: C_17  and  O_29
REMARK    4  A    between atoms: C_32  and  O_33
REMARK    5  A    between atoms: C_35  and  O_36
REMARK                            x       y       z     vdW  Elec       q    Type
REMARK                         _______ _______ _______ _____ _____    ______ ____
ROOT
ATOM      1  C   UNL     1      14.831  -7.311  -7.860  0.00  0.00    +0.000 C 
ATOM      2  C   UNL     1      16.068  -6.853  -6.980  0.00  0.00    +0.000 C 
ATOM      3  C   UNL     1      17.520  -7.211  -7.315  0.00  0.00    +0.000 C 
ATOM      4  C   UNL     1      13.538  -7.768  -6.932  0.00  0.00    +0.000 C 
ATOM      5  C   UNL     1      17.772  -8.590  -7.991  0.00  0.00    +0.000 C 
ATOM      6  C   UNL     1      15.323  -8.431  -8.671  0.00  0.00    +0.000 C 
ATOM      7  C   UNL     1      16.673  -9.060  -8.763  0.00  0.00    +0.000 C 
ATOM      8  C   UNL     1      13.198  -6.678  -5.775  0.00  0.00    +0.000 C 
ATOM      9  C   UNL     1      18.969  -9.491  -7.644  0.00  0.00    +0.000 C 
ATOM     10  C   UNL     1      11.834  -6.252  -5.393  0.00  0.00    +0.000 C 
ATOM     11  C   UNL     1      15.664  -6.147  -5.803  0.00  0.00    +0.000 C 
ATOM     12  C   UNL     1      18.317  -7.236  -6.093  0.00  0.00    +0.000 C 
ATOM     13  C   UNL     1      12.277  -7.872  -7.689  0.00  0.00    +0.000 C 
ATOM     14  C   UNL     1      10.569  -6.220  -6.452  0.00  0.00    +0.000 C 
ATOM     15  C   UNL     1      14.462  -6.088  -8.796  0.00  0.00    +0.000 C 
ATOM     16  C   UNL     1      10.938  -7.209  -7.465  0.00  0.00    +0.000 C 
ATOM     17  C   UNL     1      19.929  -9.031  -6.513  0.00  0.00    +0.000 C 
ATOM     18  C   UNL     1      14.252  -6.087  -5.293  0.00  0.00    +0.000 C 
ATOM     19  C   UNL     1      18.062  -6.121  -8.276  0.00  0.00    +0.000 C 
ATOM     20  C   UNL     1      19.482  -8.041  -5.620  0.00  0.00    +0.000 C 
ATOM     21  C   UNL     1      13.807  -9.128  -6.154  0.00  0.00    +0.000 C 
ATOM     22  C   UNL     1      11.446  -6.371  -3.987  0.00  0.00    +0.000 C 
ATOM     23  C   UNL     1       9.388  -6.561  -5.615  0.00  0.00    +0.000 C 
ATOM     24  C   UNL     1      10.295  -6.626  -3.041  0.00  0.00    +0.000 C 
ATOM     25  C   UNL     1      19.823  -9.711  -8.936  0.00  0.00    +0.000 C 
ATOM     26  C   UNL     1       9.222  -6.731  -4.082  0.00  0.00    +0.000 C 
ATOM     27  C   UNL     1      10.484  -7.949  -2.278  0.00  0.00    +0.000 C 
ATOM     28  C   UNL     1      10.065  -5.431  -2.098  0.00  0.00    +0.000 C 
ENDROOT
BRANCH  17  29
ATOM     29  O   UNL     1      21.278  -9.340  -6.549  0.00  0.00    +0.000 OA
ATOM     30  H   UNL     1      21.432 -10.175  -7.038  0.00  0.00    +0.000 HD
ENDBRANCH  17  29
BRANCH  14  32
ATOM     31  O   UNL     1      10.991  -3.794  -6.528  0.00  0.00    +0.000 OA
ATOM     32  C   UNL     1      10.461  -4.792  -7.000  0.00  0.00    +0.000 C 
BRANCH  32  33
ATOM     33  O   UNL     1       9.638  -4.664  -8.064  0.00  0.00    +0.000 OA
ATOM     34  H   UNL     1       8.755  -4.944  -7.739  0.00  0.00    +0.000 HD
ENDBRANCH  32  33
ENDBRANCH  14  32
BRANCH   9  35
ATOM     35  C   UNL     1      18.426 -10.807  -7.181  0.00  0.00    +0.000 C 
BRANCH  35  36
ATOM     36  O   UNL     1      17.940 -11.986  -6.783  0.00  0.00    +0.000 OA
ATOM     37  H   UNL     1      18.346 -12.719  -7.282  0.00  0.00    +0.000 HD
ENDBRANCH  35  36
ENDBRANCH   9  35
TORSDOF 5
ENDMDL
MODEL 9
REMARK VINA RESULT:      -6.0      2.302      4.447
REMARK  Name = 73299_Hederagenin.pdbqt.pdb
REMARK  5 active torsions:
REMARK  status: ('A' for Active; 'I' for Inactive)
REMARK    1  A    between atoms: C_9  and  C_35
REMARK    2  A    between atoms: C_14  and  C_32
REMARK    3  A    between atoms: C_17  and  O_29
REMARK    4  A    between atoms: C_32  and  O_33
REMARK    5  A    between atoms: C_35  and  O_36
REMARK                            x       y       z     vdW  Elec       q    Type
REMARK                         _______ _______ _______ _____ _____    ______ ____
ROOT
ATOM      1  C   UNL     1      13.095  12.151 -18.088  0.00  0.00    +0.000 C 
ATOM      2  C   UNL     1      12.068  12.996 -17.223  0.00  0.00    +0.000 C 
ATOM      3  C   UNL     1      12.116  13.074 -15.694  0.00  0.00    +0.000 C 
ATOM      4  C   UNL     1      12.357  11.370 -19.348  0.00  0.00    +0.000 C 
ATOM      5  C   UNL     1      12.602  11.805 -14.935  0.00  0.00    +0.000 C 
ATOM      6  C   UNL     1      13.697  11.196 -17.151  0.00  0.00    +0.000 C 
ATOM      7  C   UNL     1      13.499  10.995 -15.686  0.00  0.00    +0.000 C 
ATOM      8  C   UNL     1      11.387  12.358 -20.198  0.00  0.00    +0.000 C 
ATOM      9  C   UNL     1      11.971  11.320 -13.619  0.00  0.00    +0.000 C 
ATOM     10  C   UNL     1      11.283  12.374 -21.674  0.00  0.00    +0.000 C 
ATOM     11  C   UNL     1      11.050  13.600 -18.028  0.00  0.00    +0.000 C 
ATOM     12  C   UNL     1      10.780  13.342 -15.170  0.00  0.00    +0.000 C 
ATOM     13  C   UNL     1      13.302  10.861 -20.359  0.00  0.00    +0.000 C 
ATOM     14  C   UNL     1      12.539  11.980 -22.670  0.00  0.00    +0.000 C 
ATOM     15  C   UNL     1      14.194  13.166 -18.606  0.00  0.00    +0.000 C 
ATOM     16  C   UNL     1      13.373  11.103 -21.848  0.00  0.00    +0.000 C 
ATOM     17  C   UNL     1      10.745  12.094 -13.064  0.00  0.00    +0.000 C 
ATOM     18  C   UNL     1      10.794  13.258 -19.469  0.00  0.00    +0.000 C 
ATOM     19  C   UNL     1      13.074  14.233 -15.314  0.00  0.00    +0.000 C 
ATOM     20  C   UNL     1      10.042  12.943 -13.936  0.00  0.00    +0.000 C 
ATOM     21  C   UNL     1      11.416  10.188 -18.854  0.00  0.00    +0.000 C 
ATOM     22  C   UNL     1       9.958  12.205 -22.271  0.00  0.00    +0.000 C 
ATOM     23  C   UNL     1      11.883  11.338 -23.841  0.00  0.00    +0.000 C 
ATOM     24  C   UNL     1       9.200  11.660 -23.460  0.00  0.00    +0.000 C 
ATOM     25  C   UNL     1      13.073  11.308 -12.508  0.00  0.00    +0.000 C 
ATOM     26  C   UNL     1      10.391  11.193 -24.239  0.00  0.00    +0.000 C 
ATOM     27  C   UNL     1       8.289  10.488 -23.049  0.00  0.00    +0.000 C 
ATOM     28  C   UNL     1       8.431  12.771 -24.196  0.00  0.00    +0.000 C 
ENDROOT
BRANCH  17  29
ATOM     29  O   UNL     1      10.523  12.202 -11.701  0.00  0.00    +0.000 OA
ATOM     30  H   UNL     1      10.747  13.100 -11.382  0.00  0.00    +0.000 HD
ENDBRANCH  17  29
BRANCH  14  32
ATOM     31  O   UNL     1      13.287  14.312 -22.412  0.00  0.00    +0.000 OA
ATOM     32  C   UNL     1      13.234  13.285 -23.076  0.00  0.00    +0.000 C 
BRANCH  32  33
ATOM     33  O   UNL     1      13.765  13.270 -24.318  0.00  0.00    +0.000 OA
ATOM     34  H   UNL     1      14.676  12.923 -24.203  0.00  0.00    +0.000 HD
ENDBRANCH  32  33
ENDBRANCH  14  32
BRANCH   9  35
ATOM     35  C   UNL     1      11.480   9.922 -13.841  0.00  0.00    +0.000 C 
BRANCH  35  36
ATOM     36  O   UNL     1      11.030   8.679 -14.032  0.00  0.00    +0.000 OA
ATOM     37  H   UNL     1      10.349   8.448 -13.374  0.00  0.00    +0.000 HD
ENDBRANCH  35  36
ENDBRANCH   9  35
TORSDOF 5
ENDMDL
