MODEL 1
REMARK VINA RESULT:      -7.3      0.000      0.000
REMARK  Name = 73659_MaslinicAcid.pdbqt.pdb
REMARK  4 active torsions:
REMARK  status: ('A' for Active; 'I' for Inactive)
REMARK    1  A    between atoms: C_14  and  C_35
REMARK    2  A    between atoms: C_17  and  O_30
REMARK    3  A    between atoms: C_19  and  O_32
REMARK    4  A    between atoms: C_35  and  O_36
REMARK                            x       y       z     vdW  Elec       q    Type
REMARK                         _______ _______ _______ _____ _____    ______ ____
ROOT
ATOM      1  C   UNL     1      11.914  11.395 -17.125  0.00  0.00    +0.000 C 
ATOM      2  C   UNL     1      12.985  10.718 -16.167  0.00  0.00    +0.000 C 
ATOM      3  C   UNL     1      12.686  10.309 -14.722  0.00  0.00    +0.000 C 
ATOM      4  C   UNL     1      12.575  12.593 -18.056  0.00  0.00    +0.000 C 
ATOM      5  C   UNL     1      11.680  11.164 -13.943  0.00  0.00    +0.000 C 
ATOM      6  C   UNL     1      10.879  11.922 -16.229  0.00  0.00    +0.000 C 
ATOM      7  C   UNL     1      10.724  11.841 -14.747  0.00  0.00    +0.000 C 
ATOM      8  C   UNL     1      13.946  12.116 -18.785  0.00  0.00    +0.000 C 
ATOM      9  C   UNL     1      11.844  11.354 -12.443  0.00  0.00    +0.000 C 
ATOM     10  C   UNL     1      14.304  12.412 -20.190  0.00  0.00    +0.000 C 
ATOM     11  C   UNL     1      14.271  10.609 -16.786  0.00  0.00    +0.000 C 
ATOM     12  C   UNL     1      13.900  10.384 -13.925  0.00  0.00    +0.000 C 
ATOM     13  C   UNL     1      11.712  13.008 -19.177  0.00  0.00    +0.000 C 
ATOM     14  C   UNL     1      13.181  12.616 -21.382  0.00  0.00    +0.000 C 
ATOM     15  C   UNL     1      11.311  10.236 -18.019  0.00  0.00    +0.000 C 
ATOM     16  C   UNL     1      11.984  13.051 -20.664  0.00  0.00    +0.000 C 
ATOM     17  C   UNL     1      13.220  11.046 -11.800  0.00  0.00    +0.000 C 
ATOM     18  C   UNL     1      12.151   8.858 -14.748  0.00  0.00    +0.000 C 
ATOM     19  C   UNL     1      14.317  10.683 -12.633  0.00  0.00    +0.000 C 
ATOM     20  C   UNL     1      14.657  11.295 -18.065  0.00  0.00    +0.000 C 
ATOM     21  C   UNL     1      12.983  13.864 -17.193  0.00  0.00    +0.000 C 
ATOM     22  C   UNL     1      15.591  13.055 -20.451  0.00  0.00    +0.000 C 
ATOM     23  C   UNL     1      13.796  13.624 -22.288  0.00  0.00    +0.000 C 
ATOM     24  C   UNL     1      16.336  14.003 -21.364  0.00  0.00    +0.000 C 
ATOM     25  C   UNL     1      11.592  12.865 -12.103  0.00  0.00    +0.000 C 
ATOM     26  C   UNL     1      10.780  10.499 -11.697  0.00  0.00    +0.000 C 
ATOM     27  C   UNL     1      15.212  14.254 -22.324  0.00  0.00    +0.000 C 
ATOM     28  C   UNL     1      17.529  13.308 -22.045  0.00  0.00    +0.000 C 
ATOM     29  C   UNL     1      16.748  15.285 -20.618  0.00  0.00    +0.000 C 
ENDROOT
BRANCH  17  30
ATOM     30  O   UNL     1      13.456  11.078 -10.428  0.00  0.00    +0.000 OA
ATOM     31  H   UNL     1      14.346  10.728 -10.214  0.00  0.00    +0.000 HD
ENDBRANCH  17  30
BRANCH  19  32
ATOM     32  O   UNL     1      15.482  10.229 -12.093  0.00  0.00    +0.000 OA
ATOM     33  H   UNL     1      15.598  10.558 -11.180  0.00  0.00    +0.000 HD
ENDBRANCH  19  32
BRANCH  14  35
ATOM     34  O   UNL     1      13.878  10.424 -22.266  0.00  0.00    +0.000 OA
ATOM     35  C   UNL     1      13.009  11.269 -22.093  0.00  0.00    +0.000 C 
BRANCH  35  36
ATOM     36  O   UNL     1      11.779  11.072 -22.619  0.00  0.00    +0.000 OA
ATOM     37  H   UNL     1      11.635  10.101 -22.574  0.00  0.00    +0.000 HD
ENDBRANCH  35  36
ENDBRANCH  14  35
TORSDOF 4
ENDMDL
MODEL 2
REMARK VINA RESULT:      -7.1     12.561     15.275
REMARK  Name = 73659_MaslinicAcid.pdbqt.pdb
REMARK  4 active torsions:
REMARK  status: ('A' for Active; 'I' for Inactive)
REMARK    1  A    between atoms: C_14  and  C_35
REMARK    2  A    between atoms: C_17  and  O_30
REMARK    3  A    between atoms: C_19  and  O_32
REMARK    4  A    between atoms: C_35  and  O_36
REMARK                            x       y       z     vdW  Elec       q    Type
REMARK                         _______ _______ _______ _____ _____    ______ ____
ROOT
ATOM      1  C   UNL     1       5.676   0.178 -21.170  0.00  0.00    +0.000 C 
ATOM      2  C   UNL     1       5.063  -1.157 -20.566  0.00  0.00    +0.000 C 
ATOM      3  C   UNL     1       3.607  -1.586 -20.772  0.00  0.00    +0.000 C 
ATOM      4  C   UNL     1       6.700   0.932 -20.111  0.00  0.00    +0.000 C 
ATOM      5  C   UNL     1       2.557  -0.476 -20.892  0.00  0.00    +0.000 C 
ATOM      6  C   UNL     1       4.518   1.021 -21.487  0.00  0.00    +0.000 C 
ATOM      7  C   UNL     1       3.052   0.764 -21.377  0.00  0.00    +0.000 C 
ATOM      8  C   UNL     1       7.784  -0.096 -19.472  0.00  0.00    +0.000 C 
ATOM      9  C   UNL     1       1.147  -0.702 -20.367  0.00  0.00    +0.000 C 
ATOM     10  C   UNL     1       9.221   0.202 -19.280  0.00  0.00    +0.000 C 
ATOM     11  C   UNL     1       6.003  -1.863 -19.750  0.00  0.00    +0.000 C 
ATOM     12  C   UNL     1       3.157  -2.372 -19.635  0.00  0.00    +0.000 C 
ATOM     13  C   UNL     1       7.536   1.969 -20.742  0.00  0.00    +0.000 C 
ATOM     14  C   UNL     1      10.065   1.234 -20.253  0.00  0.00    +0.000 C 
ATOM     15  C   UNL     1       6.423  -0.232 -22.504  0.00  0.00    +0.000 C 
ATOM     16  C   UNL     1       9.039   2.130 -20.785  0.00  0.00    +0.000 C 
ATOM     17  C   UNL     1       0.903  -1.858 -19.364  0.00  0.00    +0.000 C 
ATOM     18  C   UNL     1       3.548  -2.432 -22.066  0.00  0.00    +0.000 C 
ATOM     19  C   UNL     1       2.010  -2.618 -18.887  0.00  0.00    +0.000 C 
ATOM     20  C   UNL     1       7.311  -1.294 -19.279  0.00  0.00    +0.000 C 
ATOM     21  C   UNL     1       5.927   1.548 -18.867  0.00  0.00    +0.000 C 
ATOM     22  C   UNL     1       9.787   0.027 -17.943  0.00  0.00    +0.000 C 
ATOM     23  C   UNL     1      11.061   1.856 -19.340  0.00  0.00    +0.000 C 
ATOM     24  C   UNL     1      10.827   0.529 -16.967  0.00  0.00    +0.000 C 
ATOM     25  C   UNL     1       0.693   0.583 -19.589  0.00  0.00    +0.000 C 
ATOM     26  C   UNL     1       0.180  -0.917 -21.567  0.00  0.00    +0.000 C 
ATOM     27  C   UNL     1      11.445   1.555 -17.868  0.00  0.00    +0.000 C 
ATOM     28  C   UNL     1      11.826  -0.579 -16.587  0.00  0.00    +0.000 C 
ATOM     29  C   UNL     1      10.167   1.175 -15.735  0.00  0.00    +0.000 C 
ENDROOT
BRANCH  17  30
ATOM     30  O   UNL     1      -0.358  -2.228 -18.904  0.00  0.00    +0.000 OA
ATOM     31  H   UNL     1      -0.341  -3.125 -18.510  0.00  0.00    +0.000 HD
ENDBRANCH  17  30
BRANCH  19  32
ATOM     32  O   UNL     1       1.815  -3.750 -18.155  0.00  0.00    +0.000 OA
ATOM     33  H   UNL     1       0.972  -3.710 -17.665  0.00  0.00    +0.000 HD
ENDBRANCH  19  32
BRANCH  14  35
ATOM     34  O   UNL     1      10.205  -0.290 -22.184  0.00  0.00    +0.000 OA
ATOM     35  C   UNL     1      10.758   0.392 -21.332  0.00  0.00    +0.000 C 
BRANCH  35  36
ATOM     36  O   UNL     1      12.107   0.384 -21.248  0.00  0.00    +0.000 OA
ATOM     37  H   UNL     1      12.420   0.398 -22.179  0.00  0.00    +0.000 HD
ENDBRANCH  35  36
ENDBRANCH  14  35
TORSDOF 4
ENDMDL
MODEL 3
REMARK VINA RESULT:      -6.9     15.150     18.276
REMARK  Name = 73659_MaslinicAcid.pdbqt.pdb
REMARK  4 active torsions:
REMARK  status: ('A' for Active; 'I' for Inactive)
REMARK    1  A    between atoms: C_14  and  C_35
REMARK    2  A    between atoms: C_17  and  O_30
REMARK    3  A    between atoms: C_19  and  O_32
REMARK    4  A    between atoms: C_35  and  O_36
REMARK                            x       y       z     vdW  Elec       q    Type
REMARK                         _______ _______ _______ _____ _____    ______ ____
ROOT
ATOM      1  C   UNL     1      -0.018  -0.513 -20.703  0.00  0.00    +0.000 C 
ATOM      2  C   UNL     1      -0.506   0.979 -20.459  0.00  0.00    +0.000 C 
ATOM      3  C   UNL     1      -1.857   1.515 -20.944  0.00  0.00    +0.000 C 
ATOM      4  C   UNL     1       1.592  -0.590 -21.080  0.00  0.00    +0.000 C 
ATOM      5  C   UNL     1      -2.418   0.934 -22.247  0.00  0.00    +0.000 C 
ATOM      6  C   UNL     1      -0.850  -1.013 -21.803  0.00  0.00    +0.000 C 
ATOM      7  C   UNL     1      -1.976  -0.381 -22.553  0.00  0.00    +0.000 C 
ATOM      8  C   UNL     1       2.504   0.273 -20.049  0.00  0.00    +0.000 C 
ATOM      9  C   UNL     1      -3.250   1.807 -23.173  0.00  0.00    +0.000 C 
ATOM     10  C   UNL     1       3.795  -0.176 -19.483  0.00  0.00    +0.000 C 
ATOM     11  C   UNL     1       0.489   1.774 -19.807  0.00  0.00    +0.000 C 
ATOM     12  C   UNL     1      -1.757   2.941 -21.210  0.00  0.00    +0.000 C 
ATOM     13  C   UNL     1       2.152  -1.951 -20.983  0.00  0.00    +0.000 C 
ATOM     14  C   UNL     1       4.160  -1.764 -19.220  0.00  0.00    +0.000 C 
ATOM     15  C   UNL     1      -0.340  -1.316 -19.378  0.00  0.00    +0.000 C 
ATOM     16  C   UNL     1       3.318  -2.479 -20.179  0.00  0.00    +0.000 C 
ATOM     17  C   UNL     1      -3.174   3.347 -23.011  0.00  0.00    +0.000 C 
ATOM     18  C   UNL     1      -2.893   1.249 -19.826  0.00  0.00    +0.000 C 
ATOM     19  C   UNL     1      -2.265   3.909 -22.070  0.00  0.00    +0.000 C 
ATOM     20  C   UNL     1       1.920   1.358 -19.624  0.00  0.00    +0.000 C 
ATOM     21  C   UNL     1       1.899   0.016 -22.516  0.00  0.00    +0.000 C 
ATOM     22  C   UNL     1       4.957   0.696 -19.643  0.00  0.00    +0.000 C 
ATOM     23  C   UNL     1       5.626  -1.841 -19.461  0.00  0.00    +0.000 C 
ATOM     24  C   UNL     1       6.460   0.733 -19.806  0.00  0.00    +0.000 C 
ATOM     25  C   UNL     1      -2.784   1.554 -24.649  0.00  0.00    +0.000 C 
ATOM     26  C   UNL     1      -4.747   1.401 -23.054  0.00  0.00    +0.000 C 
ATOM     27  C   UNL     1       6.693  -0.744 -19.706  0.00  0.00    +0.000 C 
ATOM     28  C   UNL     1       7.134   1.500 -18.654  0.00  0.00    +0.000 C 
ATOM     29  C   UNL     1       6.856   1.283 -21.189  0.00  0.00    +0.000 C 
ENDROOT
BRANCH  17  30
ATOM     30  O   UNL     1      -3.971   4.239 -23.725  0.00  0.00    +0.000 OA
ATOM     31  H   UNL     1      -3.518   4.545 -24.538  0.00  0.00    +0.000 HD
ENDBRANCH  17  30
BRANCH  19  32
ATOM     32  O   UNL     1      -2.303   5.237 -21.770  0.00  0.00    +0.000 OA
ATOM     33  H   UNL     1      -1.744   5.752 -22.385  0.00  0.00    +0.000 HD
ENDBRANCH  19  32
BRANCH  14  35
ATOM     34  O   UNL     1       4.627  -2.283 -16.857  0.00  0.00    +0.000 OA
ATOM     35  C   UNL     1       3.824  -2.082 -17.758  0.00  0.00    +0.000 C 
BRANCH  35  36
ATOM     36  O   UNL     1       2.501  -2.208 -17.508  0.00  0.00    +0.000 OA
ATOM     37  H   UNL     1       2.275  -3.123 -17.783  0.00  0.00    +0.000 HD
ENDBRANCH  35  36
ENDBRANCH  14  35
TORSDOF 4
ENDMDL
MODEL 4
REMARK VINA RESULT:      -6.8     17.690     20.833
REMARK  Name = 73659_MaslinicAcid.pdbqt.pdb
REMARK  4 active torsions:
REMARK  status: ('A' for Active; 'I' for Inactive)
REMARK    1  A    between atoms: C_14  and  C_35
REMARK    2  A    between atoms: C_17  and  O_30
REMARK    3  A    between atoms: C_19  and  O_32
REMARK    4  A    between atoms: C_35  and  O_36
REMARK                            x       y       z     vdW  Elec       q    Type
REMARK                         _______ _______ _______ _____ _____    ______ ____
ROOT
ATOM      1  C   UNL     1       0.880  -0.959 -20.663  0.00  0.00    +0.000 C 
ATOM      2  C   UNL     1       1.332  -2.375 -20.103  0.00  0.00    +0.000 C 
ATOM      3  C   UNL     1       2.723  -2.972 -20.340  0.00  0.00    +0.000 C 
ATOM      4  C   UNL     1      -0.680  -0.972 -21.213  0.00  0.00    +0.000 C 
ATOM      5  C   UNL     1       3.420  -2.629 -21.661  0.00  0.00    +0.000 C 
ATOM      6  C   UNL     1       1.826  -0.655 -21.743  0.00  0.00    +0.000 C 
ATOM      7  C   UNL     1       3.021  -1.397 -22.244  0.00  0.00    +0.000 C 
ATOM      8  C   UNL     1      -1.701  -1.646 -20.144  0.00  0.00    +0.000 C 
ATOM      9  C   UNL     1       4.340  -3.644 -22.322  0.00  0.00    +0.000 C 
ATOM     10  C   UNL     1      -3.041  -1.119 -19.805  0.00  0.00    +0.000 C 
ATOM     11  C   UNL     1       0.269  -3.052 -19.425  0.00  0.00    +0.000 C 
ATOM     12  C   UNL     1       2.643  -4.423 -20.352  0.00  0.00    +0.000 C 
ATOM     13  C   UNL     1      -1.239   0.376 -21.423  0.00  0.00    +0.000 C 
ATOM     14  C   UNL     1      -3.422   0.485 -19.874  0.00  0.00    +0.000 C 
ATOM     15  C   UNL     1       1.067   0.075 -19.479  0.00  0.00    +0.000 C 
ATOM     16  C   UNL     1      -2.480   1.026 -20.853  0.00  0.00    +0.000 C 
ATOM     17  C   UNL     1       4.238  -5.130 -21.892  0.00  0.00    +0.000 C 
ATOM     18  C   UNL     1       3.638  -2.495 -19.187  0.00  0.00    +0.000 C 
ATOM     19  C   UNL     1       3.232  -5.524 -20.964  0.00  0.00    +0.000 C 
ATOM     20  C   UNL     1      -1.171  -2.629 -19.471  0.00  0.00    +0.000 C 
ATOM     21  C   UNL     1      -0.839  -1.832 -22.540  0.00  0.00    +0.000 C 
ATOM     22  C   UNL     1      -4.185  -2.021 -19.925  0.00  0.00    +0.000 C 
ATOM     23  C   UNL     1      -4.854   0.498 -20.276  0.00  0.00    +0.000 C 
ATOM     24  C   UNL     1      -5.663  -2.107 -20.234  0.00  0.00    +0.000 C 
ATOM     25  C   UNL     1       4.032  -3.668 -23.860  0.00  0.00    +0.000 C 
ATOM     26  C   UNL     1       5.819  -3.203 -22.124  0.00  0.00    +0.000 C 
ATOM     27  C   UNL     1      -5.896  -0.640 -20.428  0.00  0.00    +0.000 C 
ATOM     28  C   UNL     1      -6.458  -2.662 -19.039  0.00  0.00    +0.000 C 
ATOM     29  C   UNL     1      -5.915  -2.903 -21.528  0.00  0.00    +0.000 C 
ENDROOT
BRANCH  17  30
ATOM     30  O   UNL     1       5.101  -6.125 -22.346  0.00  0.00    +0.000 OA
ATOM     31  H   UNL     1       5.871  -5.740 -22.812  0.00  0.00    +0.000 HD
ENDBRANCH  17  30
BRANCH  19  32
ATOM     32  O   UNL     1       3.231  -6.776 -20.427  0.00  0.00    +0.000 OA
ATOM     33  H   UNL     1       2.319  -7.098 -20.289  0.00  0.00    +0.000 HD
ENDBRANCH  19  32
BRANCH  14  35
ATOM     34  O   UNL     1      -4.109   1.192 -17.616  0.00  0.00    +0.000 OA
ATOM     35  C   UNL     1      -3.239   1.067 -18.467  0.00  0.00    +0.000 C 
BRANCH  35  36
ATOM     36  O   UNL     1      -1.995   1.532 -18.217  0.00  0.00    +0.000 OA
ATOM     37  H   UNL     1      -2.110   2.494 -18.056  0.00  0.00    +0.000 HD
ENDBRANCH  35  36
ENDBRANCH  14  35
TORSDOF 4
ENDMDL
MODEL 5
REMARK VINA RESULT:      -6.8     17.990     21.548
REMARK  Name = 73659_MaslinicAcid.pdbqt.pdb
REMARK  4 active torsions:
REMARK  status: ('A' for Active; 'I' for Inactive)
REMARK    1  A    between atoms: C_14  and  C_35
REMARK    2  A    between atoms: C_17  and  O_30
REMARK    3  A    between atoms: C_19  and  O_32
REMARK    4  A    between atoms: C_35  and  O_36
REMARK                            x       y       z     vdW  Elec       q    Type
REMARK                         _______ _______ _______ _____ _____    ______ ____
ROOT
ATOM      1  C   UNL     1      -1.777   1.291 -20.508  0.00  0.00    +0.000 C 
ATOM      2  C   UNL     1      -1.458   1.131 -22.056  0.00  0.00    +0.000 C 
ATOM      3  C   UNL     1      -0.579   2.108 -22.842  0.00  0.00    +0.000 C 
ATOM      4  C   UNL     1      -3.348   0.913 -20.150  0.00  0.00    +0.000 C 
ATOM      5  C   UNL     1      -0.602   3.579 -22.411  0.00  0.00    +0.000 C 
ATOM      6  C   UNL     1      -1.481   2.695 -20.199  0.00  0.00    +0.000 C 
ATOM      7  C   UNL     1      -0.935   3.796 -21.047  0.00  0.00    +0.000 C 
ATOM      8  C   UNL     1      -3.800  -0.505 -20.803  0.00  0.00    +0.000 C 
ATOM      9  C   UNL     1      -0.429   4.679 -23.448  0.00  0.00    +0.000 C 
ATOM     10  C   UNL     1      -4.602  -1.537 -20.110  0.00  0.00    +0.000 C 
ATOM     11  C   UNL     1      -2.147   0.020 -22.637  0.00  0.00    +0.000 C 
ATOM     12  C   UNL     1      -1.000   2.144 -24.233  0.00  0.00    +0.000 C 
ATOM     13  C   UNL     1      -3.592   0.724 -18.708  0.00  0.00    +0.000 C 
ATOM     14  C   UNL     1      -4.566  -1.761 -18.475  0.00  0.00    +0.000 C 
ATOM     15  C   UNL     1      -0.766   0.348 -19.738  0.00  0.00    +0.000 C 
ATOM     16  C   UNL     1      -4.164  -0.454 -17.953  0.00  0.00    +0.000 C 
ATOM     17  C   UNL     1      -0.649   4.332 -24.942  0.00  0.00    +0.000 C 
ATOM     18  C   UNL     1       0.882   1.610 -22.737  0.00  0.00    +0.000 C 
ATOM     19  C   UNL     1      -1.095   3.028 -25.302  0.00  0.00    +0.000 C 
ATOM     20  C   UNL     1      -3.254  -0.739 -21.963  0.00  0.00    +0.000 C 
ATOM     21  C   UNL     1      -4.368   1.983 -20.732  0.00  0.00    +0.000 C 
ATOM     22  C   UNL     1      -5.822  -2.012 -20.761  0.00  0.00    +0.000 C 
ATOM     23  C   UNL     1      -5.948  -2.196 -18.140  0.00  0.00    +0.000 C 
ATOM     24  C   UNL     1      -7.218  -2.545 -20.529  0.00  0.00    +0.000 C 
ATOM     25  C   UNL     1      -1.480   5.807 -23.157  0.00  0.00    +0.000 C 
ATOM     26  C   UNL     1       0.996   5.289 -23.317  0.00  0.00    +0.000 C 
ATOM     27  C   UNL     1      -7.157  -2.576 -19.032  0.00  0.00    +0.000 C 
ATOM     28  C   UNL     1      -7.391  -3.953 -21.127  0.00  0.00    +0.000 C 
ATOM     29  C   UNL     1      -8.283  -1.555 -21.038  0.00  0.00    +0.000 C 
ENDROOT
BRANCH  17  30
ATOM     30  O   UNL     1      -0.412   5.226 -25.985  0.00  0.00    +0.000 OA
ATOM     31  H   UNL     1       0.535   5.232 -26.236  0.00  0.00    +0.000 HD
ENDBRANCH  17  30
BRANCH  19  32
ATOM     32  O   UNL     1      -1.120   2.635 -26.606  0.00  0.00    +0.000 OA
ATOM     33  H   UNL     1      -0.551   1.853 -26.748  0.00  0.00    +0.000 HD
ENDBRANCH  19  32
BRANCH  14  35
ATOM     34  O   UNL     1      -2.338  -2.740 -18.090  0.00  0.00    +0.000 OA
ATOM     35  C   UNL     1      -3.551  -2.872 -18.181  0.00  0.00    +0.000 C 
BRANCH  35  36
ATOM     36  O   UNL     1      -4.092  -4.107 -18.087  0.00  0.00    +0.000 OA
ATOM     37  H   UNL     1      -4.178  -4.419 -19.015  0.00  0.00    +0.000 HD
ENDBRANCH  35  36
ENDBRANCH  14  35
TORSDOF 4
ENDMDL
MODEL 6
REMARK VINA RESULT:      -6.8     11.939     14.235
REMARK  Name = 73659_MaslinicAcid.pdbqt.pdb
REMARK  4 active torsions:
REMARK  status: ('A' for Active; 'I' for Inactive)
REMARK    1  A    between atoms: C_14  and  C_35
REMARK    2  A    between atoms: C_17  and  O_30
REMARK    3  A    between atoms: C_19  and  O_32
REMARK    4  A    between atoms: C_35  and  O_36
REMARK                            x       y       z     vdW  Elec       q    Type
REMARK                         _______ _______ _______ _____ _____    ______ ____
ROOT
ATOM      1  C   UNL     1       7.128   1.137 -20.123  0.00  0.00    +0.000 C 
ATOM      2  C   UNL     1       6.330  -0.100 -20.720  0.00  0.00    +0.000 C 
ATOM      3  C   UNL     1       4.878  -0.424 -20.353  0.00  0.00    +0.000 C 
ATOM      4  C   UNL     1       8.701   0.757 -19.775  0.00  0.00    +0.000 C 
ATOM      5  C   UNL     1       4.416  -0.074 -18.934  0.00  0.00    +0.000 C 
ATOM      6  C   UNL     1       6.391   1.521 -18.914  0.00  0.00    +0.000 C 
ATOM      7  C   UNL     1       5.128   0.991 -18.320  0.00  0.00    +0.000 C 
ATOM      8  C   UNL     1       9.434  -0.004 -21.009  0.00  0.00    +0.000 C 
ATOM      9  C   UNL     1       3.379  -0.942 -18.236  0.00  0.00    +0.000 C 
ATOM     10  C   UNL     1      10.811   0.271 -21.475  0.00  0.00    +0.000 C 
ATOM     11  C   UNL     1       7.145  -0.910 -21.572  0.00  0.00    +0.000 C 
ATOM     12  C   UNL     1       4.650  -1.856 -20.453  0.00  0.00    +0.000 C 
ATOM     13  C   UNL     1       9.552   1.939 -19.543  0.00  0.00    +0.000 C 
ATOM     14  C   UNL     1      11.528   1.752 -21.342  0.00  0.00    +0.000 C 
ATOM     15  C   UNL     1       7.037   2.294 -21.198  0.00  0.00    +0.000 C 
ATOM     16  C   UNL     1      10.832   2.377 -20.216  0.00  0.00    +0.000 C 
ATOM     17  C   UNL     1       3.118  -2.370 -18.778  0.00  0.00    +0.000 C 
ATOM     18  C   UNL     1       3.965   0.335 -21.345  0.00  0.00    +0.000 C 
ATOM     19  C   UNL     1       3.912  -2.869 -19.850  0.00  0.00    +0.000 C 
ATOM     20  C   UNL     1       8.639  -0.791 -21.677  0.00  0.00    +0.000 C 
ATOM     21  C   UNL     1       8.817  -0.239 -18.543  0.00  0.00    +0.000 C 
ATOM     22  C   UNL     1      11.745  -0.850 -21.564  0.00  0.00    +0.000 C 
ATOM     23  C   UNL     1      12.965   1.439 -21.123  0.00  0.00    +0.000 C 
ATOM     24  C   UNL     1      13.195  -1.261 -21.449  0.00  0.00    +0.000 C 
ATOM     25  C   UNL     1       3.840  -1.173 -16.754  0.00  0.00    +0.000 C 
ATOM     26  C   UNL     1       2.015  -0.195 -18.215  0.00  0.00    +0.000 C 
ATOM     27  C   UNL     1      13.753   0.105 -21.183  0.00  0.00    +0.000 C 
ATOM     28  C   UNL     1      13.721  -1.848 -22.771  0.00  0.00    +0.000 C 
ATOM     29  C   UNL     1      13.412  -2.210 -20.256  0.00  0.00    +0.000 C 
ENDROOT
BRANCH  17  30
ATOM     30  O   UNL     1       2.119  -3.209 -18.291  0.00  0.00    +0.000 OA
ATOM     31  H   UNL     1       2.047  -3.144 -17.316  0.00  0.00    +0.000 HD
ENDBRANCH  17  30
BRANCH  19  32
ATOM     32  O   UNL     1       3.590  -4.038 -20.470  0.00  0.00    +0.000 OA
ATOM     33  H   UNL     1       3.082  -3.874 -21.289  0.00  0.00    +0.000 HD
ENDBRANCH  19  32
BRANCH  14  35
ATOM     34  O   UNL     1      11.710   2.123 -23.771  0.00  0.00    +0.000 OA
ATOM     35  C   UNL     1      11.320   2.490 -22.670  0.00  0.00    +0.000 C 
BRANCH  35  36
ATOM     36  O   UNL     1      10.701   3.685 -22.551  0.00  0.00    +0.000 OA
ATOM     37  H   UNL     1      11.426   4.348 -22.534  0.00  0.00    +0.000 HD
ENDBRANCH  35  36
ENDBRANCH  14  35
TORSDOF 4
ENDMDL
MODEL 7
REMARK VINA RESULT:      -6.8     34.102     36.754
REMARK  Name = 73659_MaslinicAcid.pdbqt.pdb
REMARK  4 active torsions:
REMARK  status: ('A' for Active; 'I' for Inactive)
REMARK    1  A    between atoms: C_14  and  C_35
REMARK    2  A    between atoms: C_17  and  O_30
REMARK    3  A    between atoms: C_19  and  O_32
REMARK    4  A    between atoms: C_35  and  O_36
REMARK                            x       y       z     vdW  Elec       q    Type
REMARK                         _______ _______ _______ _____ _____    ______ ____
ROOT
ATOM      1  C   UNL     1     -12.104 -12.428 -16.861  0.00  0.00    +0.000 C 
ATOM      2  C   UNL     1     -13.264 -11.565 -16.204  0.00  0.00    +0.000 C 
ATOM      3  C   UNL     1     -13.128 -10.860 -14.851  0.00  0.00    +0.000 C 
ATOM      4  C   UNL     1     -12.679 -13.797 -17.592  0.00  0.00    +0.000 C 
ATOM      5  C   UNL     1     -12.242 -11.529 -13.794  0.00  0.00    +0.000 C 
ATOM      6  C   UNL     1     -11.195 -12.753 -15.756  0.00  0.00    +0.000 C 
ATOM      7  C   UNL     1     -11.215 -12.361 -14.316  0.00  0.00    +0.000 C 
ATOM      8  C   UNL     1     -13.942 -13.486 -18.566  0.00  0.00    +0.000 C 
ATOM      9  C   UNL     1     -12.588 -11.399 -12.318  0.00  0.00    +0.000 C 
ATOM     10  C   UNL     1     -14.138 -14.072 -19.910  0.00  0.00    +0.000 C 
ATOM     11  C   UNL     1     -14.464 -11.591 -16.982  0.00  0.00    +0.000 C 
ATOM     12  C   UNL     1     -14.429 -10.766 -14.209  0.00  0.00    +0.000 C 
ATOM     13  C   UNL     1     -11.700 -14.438 -18.489  0.00  0.00    +0.000 C 
ATOM     14  C   UNL     1     -12.887 -14.523 -20.889  0.00  0.00    +0.000 C 
ATOM     15  C   UNL     1     -11.371 -11.483 -17.898  0.00  0.00    +0.000 C 
ATOM     16  C   UNL     1     -11.794 -14.795 -19.955  0.00  0.00    +0.000 C 
ATOM     17  C   UNL     1     -14.022 -10.963 -11.926  0.00  0.00    +0.000 C 
ATOM     18  C   UNL     1     -12.558  -9.447 -15.116  0.00  0.00    +0.000 C 
ATOM     19  C   UNL     1     -15.004 -10.786 -12.942  0.00  0.00    +0.000 C 
ATOM     20  C   UNL     1     -14.713 -12.532 -18.126  0.00  0.00    +0.000 C 
ATOM     21  C   UNL     1     -13.218 -14.856 -16.538  0.00  0.00    +0.000 C 
ATOM     22  C   UNL     1     -15.401 -14.757 -20.184  0.00  0.00    +0.000 C 
ATOM     23  C   UNL     1     -13.415 -15.699 -21.630  0.00  0.00    +0.000 C 
ATOM     24  C   UNL     1     -16.055 -15.877 -20.962  0.00  0.00    +0.000 C 
ATOM     25  C   UNL     1     -12.415 -12.803 -11.641  0.00  0.00    +0.000 C 
ATOM     26  C   UNL     1     -11.599 -10.404 -11.645  0.00  0.00    +0.000 C 
ATOM     27  C   UNL     1     -14.832 -16.324 -21.704  0.00  0.00    +0.000 C 
ATOM     28  C   UNL     1     -17.142 -15.343 -21.912  0.00  0.00    +0.000 C 
ATOM     29  C   UNL     1     -16.584 -16.973 -20.019  0.00  0.00    +0.000 C 
ENDROOT
BRANCH  17  30
ATOM     30  O   UNL     1     -14.420 -10.705 -10.616  0.00  0.00    +0.000 OA
ATOM     31  H   UNL     1     -15.302 -10.280 -10.592  0.00  0.00    +0.000 HD
ENDBRANCH  17  30
BRANCH  19  32
ATOM     32  O   UNL     1     -16.213 -10.228 -12.655  0.00  0.00    +0.000 OA
ATOM     33  H   UNL     1     -16.912 -10.586 -13.237  0.00  0.00    +0.000 HD
ENDBRANCH  19  32
BRANCH  14  35
ATOM     34  O   UNL     1     -12.413 -13.434 -23.047  0.00  0.00    +0.000 OA
ATOM     35  C   UNL     1     -12.599 -13.356 -21.840  0.00  0.00    +0.000 C 
BRANCH  35  36
ATOM     36  O   UNL     1     -12.483 -12.156 -21.228  0.00  0.00    +0.000 OA
ATOM     37  H   UNL     1     -13.237 -11.624 -21.564  0.00  0.00    +0.000 HD
ENDBRANCH  35  36
ENDBRANCH  14  35
TORSDOF 4
ENDMDL
MODEL 8
REMARK VINA RESULT:      -6.6     13.893     16.631
REMARK  Name = 73659_MaslinicAcid.pdbqt.pdb
REMARK  4 active torsions:
REMARK  status: ('A' for Active; 'I' for Inactive)
REMARK    1  A    between atoms: C_14  and  C_35
REMARK    2  A    between atoms: C_17  and  O_30
REMARK    3  A    between atoms: C_19  and  O_32
REMARK    4  A    between atoms: C_35  and  O_36
REMARK                            x       y       z     vdW  Elec       q    Type
REMARK                         _______ _______ _______ _____ _____    ______ ____
ROOT
ATOM      1  C   UNL     1       4.141  -1.108 -19.332  0.00  0.00    +0.000 C 
ATOM      2  C   UNL     1       2.820  -0.844 -20.174  0.00  0.00    +0.000 C 
ATOM      3  C   UNL     1       1.572  -1.729 -20.086  0.00  0.00    +0.000 C 
ATOM      4  C   UNL     1       5.512  -0.832 -20.216  0.00  0.00    +0.000 C 
ATOM      5  C   UNL     1       1.786  -3.221 -19.807  0.00  0.00    +0.000 C 
ATOM      6  C   UNL     1       4.050  -2.510 -18.907  0.00  0.00    +0.000 C 
ATOM      7  C   UNL     1       2.979  -3.531 -19.102  0.00  0.00    +0.000 C 
ATOM      8  C   UNL     1       5.464   0.594 -20.991  0.00  0.00    +0.000 C 
ATOM      9  C   UNL     1       0.837  -4.250 -20.402  0.00  0.00    +0.000 C 
ATOM     10  C   UNL     1       6.595   1.543 -21.088  0.00  0.00    +0.000 C 
ATOM     11  C   UNL     1       2.963   0.260 -21.072  0.00  0.00    +0.000 C 
ATOM     12  C   UNL     1       0.861  -1.708 -21.354  0.00  0.00    +0.000 C 
ATOM     13  C   UNL     1       6.732  -0.738 -19.392  0.00  0.00    +0.000 C 
ATOM     14  C   UNL     1       7.762   1.676 -19.928  0.00  0.00    +0.000 C 
ATOM     15  C   UNL     1       4.067  -0.158 -18.068  0.00  0.00    +0.000 C 
ATOM     16  C   UNL     1       7.759   0.365 -19.279  0.00  0.00    +0.000 C 
ATOM     17  C   UNL     1      -0.059  -3.832 -21.596  0.00  0.00    +0.000 C 
ATOM     18  C   UNL     1       0.676  -1.163 -18.959  0.00  0.00    +0.000 C 
ATOM     19  C   UNL     1       0.090  -2.535 -22.165  0.00  0.00    +0.000 C 
ATOM     20  C   UNL     1       4.271   0.921 -21.401  0.00  0.00    +0.000 C 
ATOM     21  C   UNL     1       5.717  -1.919 -21.356  0.00  0.00    +0.000 C 
ATOM     22  C   UNL     1       7.007   1.989 -22.418  0.00  0.00    +0.000 C 
ATOM     23  C   UNL     1       8.991   2.019 -20.692  0.00  0.00    +0.000 C 
ATOM     24  C   UNL     1       8.179   2.435 -23.263  0.00  0.00    +0.000 C 
ATOM     25  C   UNL     1       1.686  -5.446 -20.960  0.00  0.00    +0.000 C 
ATOM     26  C   UNL     1      -0.100  -4.792 -19.285  0.00  0.00    +0.000 C 
ATOM     27  C   UNL     1       9.215   2.385 -22.182  0.00  0.00    +0.000 C 
ATOM     28  C   UNL     1       7.976   3.863 -23.800  0.00  0.00    +0.000 C 
ATOM     29  C   UNL     1       8.473   1.422 -24.385  0.00  0.00    +0.000 C 
ENDROOT
BRANCH  17  30
ATOM     30  O   UNL     1      -1.040  -4.652 -22.149  0.00  0.00    +0.000 OA
ATOM     31  H   UNL     1      -1.357  -5.312 -21.497  0.00  0.00    +0.000 HD
ENDBRANCH  17  30
BRANCH  19  32
ATOM     32  O   UNL     1      -0.799  -2.071 -23.086  0.00  0.00    +0.000 OA
ATOM     33  H   UNL     1      -1.718  -2.170 -22.768  0.00  0.00    +0.000 HD
ENDBRANCH  19  32
BRANCH  14  35
ATOM     34  O   UNL     1       8.088   3.710 -18.577  0.00  0.00    +0.000 OA
ATOM     35  C   UNL     1       7.358   2.820 -18.991  0.00  0.00    +0.000 C 
BRANCH  35  36
ATOM     36  O   UNL     1       6.079   2.756 -18.557  0.00  0.00    +0.000 OA
ATOM     37  H   UNL     1       6.068   3.271 -17.721  0.00  0.00    +0.000 HD
ENDBRANCH  35  36
ENDBRANCH  14  35
TORSDOF 4
ENDMDL
MODEL 9
REMARK VINA RESULT:      -6.6      1.930      8.497
REMARK  Name = 73659_MaslinicAcid.pdbqt.pdb
REMARK  4 active torsions:
REMARK  status: ('A' for Active; 'I' for Inactive)
REMARK    1  A    between atoms: C_14  and  C_35
REMARK    2  A    between atoms: C_17  and  O_30
REMARK    3  A    between atoms: C_19  and  O_32
REMARK    4  A    between atoms: C_35  and  O_36
REMARK                            x       y       z     vdW  Elec       q    Type
REMARK                         _______ _______ _______ _____ _____    ______ ____
ROOT
ATOM      1  C   UNL     1      12.632  11.017 -15.875  0.00  0.00    +0.000 C 
ATOM      2  C   UNL     1      11.762  11.889 -16.878  0.00  0.00    +0.000 C 
ATOM      3  C   UNL     1      11.852  11.764 -18.401  0.00  0.00    +0.000 C 
ATOM      4  C   UNL     1      13.169  11.898 -14.582  0.00  0.00    +0.000 C 
ATOM      5  C   UNL     1      13.215  11.393 -18.998  0.00  0.00    +0.000 C 
ATOM      6  C   UNL     1      13.749  10.510 -16.679  0.00  0.00    +0.000 C 
ATOM      7  C   UNL     1      14.065  10.656 -18.131  0.00  0.00    +0.000 C 
ATOM      8  C   UNL     1      11.977  12.759 -13.890  0.00  0.00    +0.000 C 
ATOM      9  C   UNL     1      13.624  11.938 -20.358  0.00  0.00    +0.000 C 
ATOM     10  C   UNL     1      11.772  12.899 -12.431  0.00  0.00    +0.000 C 
ATOM     11  C   UNL     1      10.951  12.850 -16.194  0.00  0.00    +0.000 C 
ATOM     12  C   UNL     1      11.534  13.040 -19.023  0.00  0.00    +0.000 C 
ATOM     13  C   UNL     1      13.683  11.067 -13.477  0.00  0.00    +0.000 C 
ATOM     14  C   UNL     1      12.206  11.734 -11.344  0.00  0.00    +0.000 C 
ATOM     15  C   UNL     1      11.714   9.813 -15.412  0.00  0.00    +0.000 C 
ATOM     16  C   UNL     1      13.280  11.008 -12.021  0.00  0.00    +0.000 C 
ATOM     17  C   UNL     1      12.867  13.165 -20.926  0.00  0.00    +0.000 C 
ATOM     18  C   UNL     1      10.836  10.685 -18.842  0.00  0.00    +0.000 C 
ATOM     19  C   UNL     1      11.877  13.809 -20.129  0.00  0.00    +0.000 C 
ATOM     20  C   UNL     1      11.097  13.202 -14.742  0.00  0.00    +0.000 C 
ATOM     21  C   UNL     1      14.265  12.969 -15.002  0.00  0.00    +0.000 C 
ATOM     22  C   UNL     1      11.686  14.248 -11.874  0.00  0.00    +0.000 C 
ATOM     23  C   UNL     1      12.605  12.502 -10.134  0.00  0.00    +0.000 C 
ATOM     24  C   UNL     1      11.972  15.103 -10.661  0.00  0.00    +0.000 C 
ATOM     25  C   UNL     1      15.117  12.412 -20.276  0.00  0.00    +0.000 C 
ATOM     26  C   UNL     1      13.527  10.802 -21.416  0.00  0.00    +0.000 C 
ATOM     27  C   UNL     1      12.497  14.008  -9.783  0.00  0.00    +0.000 C 
ATOM     28  C   UNL     1      10.684  15.727 -10.094  0.00  0.00    +0.000 C 
ATOM     29  C   UNL     1      13.052  16.158 -10.966  0.00  0.00    +0.000 C 
ENDROOT
BRANCH  17  30
ATOM     30  O   UNL     1      13.079  13.680 -22.203  0.00  0.00    +0.000 OA
ATOM     31  H   UNL     1      13.443  12.997 -22.803  0.00  0.00    +0.000 HD
ENDBRANCH  17  30
BRANCH  19  32
ATOM     32  O   UNL     1      11.068  14.767 -20.661  0.00  0.00    +0.000 OA
ATOM     33  H   UNL     1      10.485  15.153 -19.979  0.00  0.00    +0.000 HD
ENDBRANCH  19  32
BRANCH  14  35
ATOM     34  O   UNL     1      10.486  10.035 -11.818  0.00  0.00    +0.000 OA
ATOM     35  C   UNL     1      10.969  10.873 -11.068  0.00  0.00    +0.000 C 
BRANCH  35  36
ATOM     36  O   UNL     1      10.349  11.150  -9.898  0.00  0.00    +0.000 OA
ATOM     37  H   UNL     1      10.743  10.528  -9.248  0.00  0.00    +0.000 HD
ENDBRANCH  35  36
ENDBRANCH  14  35
TORSDOF 4
ENDMDL
