MODEL 1
REMARK VINA RESULT:      -4.3      0.000      0.000
REMARK  Name = 76617_Cardol.pdbqt.pdb
REMARK  10 active torsions:
REMARK  status: ('A' for Active; 'I' for Inactive)
REMARK    1  A    between atoms: C_1  and  C_2
REMARK    2  A    between atoms: C_3  and  C_4
REMARK    3  A    between atoms: C_5  and  C_6
REMARK    4  A    between atoms: C_7  and  C_8
REMARK    5  A    between atoms: C_8  and  C_9
REMARK    6  A    between atoms: C_10  and  C_11
REMARK    7  A    between atoms: C_14  and  C_15
REMARK    8  A    between atoms: C_15  and  C_16
REMARK    9  A    between atoms: C_19  and  O_24
REMARK   10  A    between atoms: C_20  and  O_22
REMARK                            x       y       z     vdW  Elec       q    Type
REMARK                         _______ _______ _______ _____ _____    ______ ____
ROOT
ATOM      1  C   UNL     1       5.152   0.724 -18.542  0.00  0.00    +0.000 C 
ATOM      2  C   UNL     1       6.306   0.990 -18.346  0.00  0.00    +0.000 C 
ENDROOT
BRANCH   1   3
ATOM      3  C   UNL     1       3.680   0.385 -18.792  0.00  0.00    +0.000 C 
ATOM      4  C   UNL     1       2.207   0.045 -19.043  0.00  0.00    +0.000 C 
BRANCH   4   5
ATOM      5  C   UNL     1       0.735  -0.295 -19.293  0.00  0.00    +0.000 C 
ATOM      6  C   UNL     1      -0.737  -0.636 -19.542  0.00  0.00    +0.000 C 
BRANCH   6   7
ATOM      7  C   UNL     1      -2.210  -0.977 -19.791  0.00  0.00    +0.000 C 
ATOM      8  C   UNL     1      -3.681  -1.318 -20.041  0.00  0.00    +0.000 C 
BRANCH   8   9
ATOM      9  C   UNL     1      -5.153  -1.660 -20.290  0.00  0.00    +0.000 C 
BRANCH   9  10
ATOM     10  C   UNL     1      -6.626  -2.000 -20.541  0.00  0.00    +0.000 C 
ATOM     11  C   UNL     1      -8.097  -2.341 -20.792  0.00  0.00    +0.000 C 
BRANCH  11  12
ATOM     12  C   UNL     1      -9.570  -2.683 -21.043  0.00  0.00    +0.000 C 
ATOM     13  C   UNL     1     -11.041  -3.024 -21.295  0.00  0.00    +0.000 C 
ATOM     14  C   UNL     1     -12.513  -3.366 -21.546  0.00  0.00    +0.000 C 
ENDBRANCH  11  12
ENDBRANCH   9  10
ENDBRANCH   8   9
ENDBRANCH   6   7
ENDBRANCH   4   5
ENDBRANCH   1   3
BRANCH   2  15
ATOM     15  C   UNL     1       7.779   1.328 -18.096  0.00  0.00    +0.000 C 
BRANCH  15  16
ATOM     16  C   UNL     1       9.149   1.642 -17.862  0.00  0.00    +0.000 A 
ATOM     17  C   UNL     1       9.947   2.089 -18.913  0.00  0.00    +0.000 A 
ATOM     18  C   UNL     1       9.683   1.502 -16.583  0.00  0.00    +0.000 A 
ATOM     19  C   UNL     1      11.023   1.812 -16.364  0.00  0.00    +0.000 A 
ATOM     20  C   UNL     1      11.285   2.395 -18.673  0.00  0.00    +0.000 A 
ATOM     21  C   UNL     1      11.834   2.259 -17.403  0.00  0.00    +0.000 A 
BRANCH  20  22
ATOM     22  O   UNL     1      12.088   2.834 -19.686  0.00  0.00    +0.000 OA
ATOM     23  H   UNL     1      12.430   3.714 -19.447  0.00  0.00    +0.000 HD
ENDBRANCH  20  22
BRANCH  19  24
ATOM     24  O   UNL     1      11.572   1.683 -15.120  0.00  0.00    +0.000 OA
ATOM     25  H   UNL     1      12.541   1.712 -15.209  0.00  0.00    +0.000 HD
ENDBRANCH  19  24
ENDBRANCH  15  16
ENDBRANCH   2  15
TORSDOF 10
ENDMDL
MODEL 2
REMARK VINA RESULT:      -4.0     12.359     19.437
REMARK  Name = 76617_Cardol.pdbqt.pdb
REMARK  10 active torsions:
REMARK  status: ('A' for Active; 'I' for Inactive)
REMARK    1  A    between atoms: C_1  and  C_2
REMARK    2  A    between atoms: C_3  and  C_4
REMARK    3  A    between atoms: C_5  and  C_6
REMARK    4  A    between atoms: C_7  and  C_8
REMARK    5  A    between atoms: C_8  and  C_9
REMARK    6  A    between atoms: C_10  and  C_11
REMARK    7  A    between atoms: C_14  and  C_15
REMARK    8  A    between atoms: C_15  and  C_16
REMARK    9  A    between atoms: C_19  and  O_24
REMARK   10  A    between atoms: C_20  and  O_22
REMARK                            x       y       z     vdW  Elec       q    Type
REMARK                         _______ _______ _______ _____ _____    ______ ____
ROOT
ATOM      1  C   UNL     1      13.701   1.683 -22.105  0.00  0.00    +0.000 C 
ATOM      2  C   UNL     1      13.224   1.447 -21.029  0.00  0.00    +0.000 C 
ENDROOT
BRANCH   1   3
ATOM      3  C   UNL     1      14.309   1.985 -23.477  0.00  0.00    +0.000 C 
ATOM      4  C   UNL     1      14.918   2.288 -24.850  0.00  0.00    +0.000 C 
BRANCH   4   5
ATOM      5  C   UNL     1      15.527   2.591 -26.222  0.00  0.00    +0.000 C 
ATOM      6  C   UNL     1      16.137   2.895 -27.593  0.00  0.00    +0.000 C 
BRANCH   6   7
ATOM      7  C   UNL     1      16.747   3.199 -28.966  0.00  0.00    +0.000 C 
ATOM      8  C   UNL     1      17.357   3.502 -30.337  0.00  0.00    +0.000 C 
BRANCH   8   9
ATOM      9  C   UNL     1      17.967   3.805 -31.708  0.00  0.00    +0.000 C 
BRANCH   9  10
ATOM     10  C   UNL     1      18.577   4.107 -33.081  0.00  0.00    +0.000 C 
ATOM     11  C   UNL     1      19.187   4.408 -34.453  0.00  0.00    +0.000 C 
BRANCH  11  12
ATOM     12  C   UNL     1      19.798   4.710 -35.825  0.00  0.00    +0.000 C 
ATOM     13  C   UNL     1      20.408   5.013 -37.196  0.00  0.00    +0.000 C 
ATOM     14  C   UNL     1      21.019   5.315 -38.569  0.00  0.00    +0.000 C 
ENDBRANCH  11  12
ENDBRANCH   9  10
ENDBRANCH   8   9
ENDBRANCH   6   7
ENDBRANCH   4   5
ENDBRANCH   1   3
BRANCH   2  15
ATOM     15  C   UNL     1      12.616   1.144 -19.655  0.00  0.00    +0.000 C 
BRANCH  15  16
ATOM     16  C   UNL     1      12.051   0.862 -18.379  0.00  0.00    +0.000 A 
ATOM     17  C   UNL     1      11.845   1.895 -17.467  0.00  0.00    +0.000 A 
ATOM     18  C   UNL     1      11.707  -0.447 -18.047  0.00  0.00    +0.000 A 
ATOM     19  C   UNL     1      11.155  -0.713 -16.796  0.00  0.00    +0.000 A 
ATOM     20  C   UNL     1      11.292   1.608 -16.222  0.00  0.00    +0.000 A 
ATOM     21  C   UNL     1      10.944   0.308 -15.875  0.00  0.00    +0.000 A 
BRANCH  20  22
ATOM     22  O   UNL     1      11.080   2.604 -15.311  0.00  0.00    +0.000 OA
ATOM     23  H   UNL     1      10.470   3.253 -15.702  0.00  0.00    +0.000 HD
ENDBRANCH  20  22
BRANCH  19  24
ATOM     24  O   UNL     1      10.810  -1.987 -16.446  0.00  0.00    +0.000 OA
ATOM     25  H   UNL     1      10.097  -2.285 -17.037  0.00  0.00    +0.000 HD
ENDBRANCH  19  24
ENDBRANCH  15  16
ENDBRANCH   2  15
TORSDOF 10
ENDMDL
MODEL 3
REMARK VINA RESULT:      -3.8     15.824     16.852
REMARK  Name = 76617_Cardol.pdbqt.pdb
REMARK  10 active torsions:
REMARK  status: ('A' for Active; 'I' for Inactive)
REMARK    1  A    between atoms: C_1  and  C_2
REMARK    2  A    between atoms: C_3  and  C_4
REMARK    3  A    between atoms: C_5  and  C_6
REMARK    4  A    between atoms: C_7  and  C_8
REMARK    5  A    between atoms: C_8  and  C_9
REMARK    6  A    between atoms: C_10  and  C_11
REMARK    7  A    between atoms: C_14  and  C_15
REMARK    8  A    between atoms: C_15  and  C_16
REMARK    9  A    between atoms: C_19  and  O_24
REMARK   10  A    between atoms: C_20  and  O_22
REMARK                            x       y       z     vdW  Elec       q    Type
REMARK                         _______ _______ _______ _____ _____    ______ ____
ROOT
ATOM      1  C   UNL     1       2.548 -15.049 -15.764  0.00  0.00    +0.000 C 
ATOM      2  C   UNL     1       3.011 -15.357 -14.701  0.00  0.00    +0.000 C 
ENDROOT
BRANCH   1   3
ATOM      3  C   UNL     1       1.957 -14.655 -17.121  0.00  0.00    +0.000 C 
ATOM      4  C   UNL     1       1.365 -14.259 -18.478  0.00  0.00    +0.000 C 
BRANCH   4   5
ATOM      5  C   UNL     1       0.774 -13.863 -19.834  0.00  0.00    +0.000 C 
ATOM      6  C   UNL     1       0.183 -13.466 -21.189  0.00  0.00    +0.000 C 
BRANCH   6   7
ATOM      7  C   UNL     1      -0.408 -13.069 -22.546  0.00  0.00    +0.000 C 
ATOM      8  C   UNL     1      -1.000 -12.672 -23.901  0.00  0.00    +0.000 C 
BRANCH   8   9
ATOM      9  C   UNL     1      -1.592 -12.275 -25.256  0.00  0.00    +0.000 C 
BRANCH   9  10
ATOM     10  C   UNL     1      -2.186 -11.878 -26.612  0.00  0.00    +0.000 C 
ATOM     11  C   UNL     1      -2.780 -11.482 -27.966  0.00  0.00    +0.000 C 
BRANCH  11  12
ATOM     12  C   UNL     1      -3.374 -11.085 -29.322  0.00  0.00    +0.000 C 
ATOM     13  C   UNL     1      -3.968 -10.689 -30.676  0.00  0.00    +0.000 C 
ATOM     14  C   UNL     1      -4.562 -10.293 -32.032  0.00  0.00    +0.000 C 
ENDBRANCH  11  12
ENDBRANCH   9  10
ENDBRANCH   8   9
ENDBRANCH   6   7
ENDBRANCH   4   5
ENDBRANCH   1   3
BRANCH   2  15
ATOM     15  C   UNL     1       3.602 -15.753 -13.344  0.00  0.00    +0.000 C 
BRANCH  15  16
ATOM     16  C   UNL     1       4.152 -16.121 -12.083  0.00  0.00    +0.000 A 
ATOM     17  C   UNL     1       5.230 -15.410 -11.561  0.00  0.00    +0.000 A 
ATOM     18  C   UNL     1       3.607 -17.192 -11.376  0.00  0.00    +0.000 A 
ATOM     19  C   UNL     1       4.151 -17.544 -10.143  0.00  0.00    +0.000 A 
ATOM     20  C   UNL     1       5.759 -15.778 -10.326  0.00  0.00    +0.000 A 
ATOM     21  C   UNL     1       5.228 -16.844  -9.608  0.00  0.00    +0.000 A 
BRANCH  20  22
ATOM     22  O   UNL     1       6.816 -15.097  -9.794  0.00  0.00    +0.000 OA
ATOM     23  H   UNL     1       6.469 -14.380  -9.234  0.00  0.00    +0.000 HD
ENDBRANCH  20  22
BRANCH  19  24
ATOM     24  O   UNL     1       3.637 -18.589  -9.430  0.00  0.00    +0.000 OA
ATOM     25  H   UNL     1       3.379 -18.262  -8.551  0.00  0.00    +0.000 HD
ENDBRANCH  19  24
ENDBRANCH  15  16
ENDBRANCH   2  15
TORSDOF 10
ENDMDL
MODEL 4
REMARK VINA RESULT:      -3.7     16.341     19.964
REMARK  Name = 76617_Cardol.pdbqt.pdb
REMARK  10 active torsions:
REMARK  status: ('A' for Active; 'I' for Inactive)
REMARK    1  A    between atoms: C_1  and  C_2
REMARK    2  A    between atoms: C_3  and  C_4
REMARK    3  A    between atoms: C_5  and  C_6
REMARK    4  A    between atoms: C_7  and  C_8
REMARK    5  A    between atoms: C_8  and  C_9
REMARK    6  A    between atoms: C_10  and  C_11
REMARK    7  A    between atoms: C_14  and  C_15
REMARK    8  A    between atoms: C_15  and  C_16
REMARK    9  A    between atoms: C_19  and  O_24
REMARK   10  A    between atoms: C_20  and  O_22
REMARK                            x       y       z     vdW  Elec       q    Type
REMARK                         _______ _______ _______ _____ _____    ______ ____
ROOT
ATOM      1  C   UNL     1      -3.170  14.689 -18.328  0.00  0.00    +0.000 C 
ATOM      2  C   UNL     1      -3.955  15.172 -17.559  0.00  0.00    +0.000 C 
ENDROOT
BRANCH   1   3
ATOM      3  C   UNL     1      -2.169  14.071 -19.308  0.00  0.00    +0.000 C 
ATOM      4  C   UNL     1      -1.166  13.453 -20.288  0.00  0.00    +0.000 C 
BRANCH   4   5
ATOM      5  C   UNL     1      -0.164  12.834 -21.267  0.00  0.00    +0.000 C 
ATOM      6  C   UNL     1       0.838  12.216 -22.246  0.00  0.00    +0.000 C 
BRANCH   6   7
ATOM      7  C   UNL     1       1.841  11.598 -23.225  0.00  0.00    +0.000 C 
ATOM      8  C   UNL     1       2.843  10.979 -24.204  0.00  0.00    +0.000 C 
BRANCH   8   9
ATOM      9  C   UNL     1       3.844  10.361 -25.184  0.00  0.00    +0.000 C 
BRANCH   9  10
ATOM     10  C   UNL     1       4.846   9.741 -26.164  0.00  0.00    +0.000 C 
ATOM     11  C   UNL     1       5.845   9.123 -27.145  0.00  0.00    +0.000 C 
BRANCH  11  12
ATOM     12  C   UNL     1       6.846   8.503 -28.126  0.00  0.00    +0.000 C 
ATOM     13  C   UNL     1       7.846   7.884 -29.107  0.00  0.00    +0.000 C 
ATOM     14  C   UNL     1       8.846   7.264 -30.088  0.00  0.00    +0.000 C 
ENDBRANCH  11  12
ENDBRANCH   9  10
ENDBRANCH   8   9
ENDBRANCH   6   7
ENDBRANCH   4   5
ENDBRANCH   1   3
BRANCH   2  15
ATOM     15  C   UNL     1      -4.956  15.791 -16.579  0.00  0.00    +0.000 C 
BRANCH  15  16
ATOM     16  C   UNL     1      -5.888  16.365 -15.667  0.00  0.00    +0.000 A 
ATOM     17  C   UNL     1      -5.708  16.200 -14.295  0.00  0.00    +0.000 A 
ATOM     18  C   UNL     1      -6.974  17.091 -16.151  0.00  0.00    +0.000 A 
ATOM     19  C   UNL     1      -7.879  17.649 -15.252  0.00  0.00    +0.000 A 
ATOM     20  C   UNL     1      -6.624  16.767 -13.412  0.00  0.00    +0.000 A 
ATOM     21  C   UNL     1      -7.714  17.493 -13.879  0.00  0.00    +0.000 A 
BRANCH  20  22
ATOM     22  O   UNL     1      -6.470  16.619 -12.064  0.00  0.00    +0.000 OA
ATOM     23  H   UNL     1      -6.663  15.694 -11.832  0.00  0.00    +0.000 HD
ENDBRANCH  20  22
BRANCH  19  24
ATOM     24  O   UNL     1      -8.953  18.364 -15.700  0.00  0.00    +0.000 OA
ATOM     25  H   UNL     1      -9.586  18.458 -14.967  0.00  0.00    +0.000 HD
ENDBRANCH  19  24
ENDBRANCH  15  16
ENDBRANCH   2  15
TORSDOF 10
ENDMDL
MODEL 5
REMARK VINA RESULT:      -3.6     21.206     28.159
REMARK  Name = 76617_Cardol.pdbqt.pdb
REMARK  10 active torsions:
REMARK  status: ('A' for Active; 'I' for Inactive)
REMARK    1  A    between atoms: C_1  and  C_2
REMARK    2  A    between atoms: C_3  and  C_4
REMARK    3  A    between atoms: C_5  and  C_6
REMARK    4  A    between atoms: C_7  and  C_8
REMARK    5  A    between atoms: C_8  and  C_9
REMARK    6  A    between atoms: C_10  and  C_11
REMARK    7  A    between atoms: C_14  and  C_15
REMARK    8  A    between atoms: C_15  and  C_16
REMARK    9  A    between atoms: C_19  and  O_24
REMARK   10  A    between atoms: C_20  and  O_22
REMARK                            x       y       z     vdW  Elec       q    Type
REMARK                         _______ _______ _______ _____ _____    ______ ____
ROOT
ATOM      1  C   UNL     1       7.113   2.394   1.864  0.00  0.00    +0.000 C 
ATOM      2  C   UNL     1       5.922   2.460   1.737  0.00  0.00    +0.000 C 
ENDROOT
BRANCH   1   3
ATOM      3  C   UNL     1       8.633   2.311   2.027  0.00  0.00    +0.000 C 
ATOM      4  C   UNL     1      10.155   2.226   2.189  0.00  0.00    +0.000 C 
BRANCH   4   5
ATOM      5  C   UNL     1      11.675   2.143   2.350  0.00  0.00    +0.000 C 
ATOM      6  C   UNL     1      13.196   2.060   2.512  0.00  0.00    +0.000 C 
BRANCH   6   7
ATOM      7  C   UNL     1      14.717   1.976   2.674  0.00  0.00    +0.000 C 
ATOM      8  C   UNL     1      16.237   1.894   2.836  0.00  0.00    +0.000 C 
BRANCH   8   9
ATOM      9  C   UNL     1      17.758   1.812   2.997  0.00  0.00    +0.000 C 
BRANCH   9  10
ATOM     10  C   UNL     1      19.279   1.729   3.158  0.00  0.00    +0.000 C 
ATOM     11  C   UNL     1      20.800   1.646   3.318  0.00  0.00    +0.000 C 
BRANCH  11  12
ATOM     12  C   UNL     1      22.321   1.563   3.479  0.00  0.00    +0.000 C 
ATOM     13  C   UNL     1      23.842   1.480   3.640  0.00  0.00    +0.000 C 
ATOM     14  C   UNL     1      25.363   1.397   3.801  0.00  0.00    +0.000 C 
ENDBRANCH  11  12
ENDBRANCH   9  10
ENDBRANCH   8   9
ENDBRANCH   6   7
ENDBRANCH   4   5
ENDBRANCH   1   3
BRANCH   2  15
ATOM     15  C   UNL     1       4.400   2.542   1.573  0.00  0.00    +0.000 C 
BRANCH  15  16
ATOM     16  C   UNL     1       2.986   2.620   1.420  0.00  0.00    +0.000 A 
ATOM     17  C   UNL     1       2.157   1.837   2.222  0.00  0.00    +0.000 A 
ATOM     18  C   UNL     1       2.438   3.479   0.470  0.00  0.00    +0.000 A 
ATOM     19  C   UNL     1       1.054   3.548   0.328  0.00  0.00    +0.000 A 
ATOM     20  C   UNL     1       0.776   1.921   2.064  0.00  0.00    +0.000 A 
ATOM     21  C   UNL     1       0.213   2.773   1.120  0.00  0.00    +0.000 A 
BRANCH  20  22
ATOM     22  O   UNL     1      -0.057   1.164   2.837  0.00  0.00    +0.000 OA
ATOM     23  H   UNL     1      -0.949   1.550   2.797  0.00  0.00    +0.000 HD
ENDBRANCH  20  22
BRANCH  19  24
ATOM     24  O   UNL     1       0.491   4.381  -0.596  0.00  0.00    +0.000 OA
ATOM     25  H   UNL     1       0.358   5.252  -0.182  0.00  0.00    +0.000 HD
ENDBRANCH  19  24
ENDBRANCH  15  16
ENDBRANCH   2  15
TORSDOF 10
ENDMDL
MODEL 6
REMARK VINA RESULT:      -3.5     11.150     15.769
REMARK  Name = 76617_Cardol.pdbqt.pdb
REMARK  10 active torsions:
REMARK  status: ('A' for Active; 'I' for Inactive)
REMARK    1  A    between atoms: C_1  and  C_2
REMARK    2  A    between atoms: C_3  and  C_4
REMARK    3  A    between atoms: C_5  and  C_6
REMARK    4  A    between atoms: C_7  and  C_8
REMARK    5  A    between atoms: C_8  and  C_9
REMARK    6  A    between atoms: C_10  and  C_11
REMARK    7  A    between atoms: C_14  and  C_15
REMARK    8  A    between atoms: C_15  and  C_16
REMARK    9  A    between atoms: C_19  and  O_24
REMARK   10  A    between atoms: C_20  and  O_22
REMARK                            x       y       z     vdW  Elec       q    Type
REMARK                         _______ _______ _______ _____ _____    ______ ____
ROOT
ATOM      1  C   UNL     1      -1.952   3.044 -21.011  0.00  0.00    +0.000 C 
ATOM      2  C   UNL     1      -2.390   2.200 -20.280  0.00  0.00    +0.000 C 
ENDROOT
BRANCH   1   3
ATOM      3  C   UNL     1      -1.393   4.122 -21.945  0.00  0.00    +0.000 C 
ATOM      4  C   UNL     1      -0.835   5.199 -22.880  0.00  0.00    +0.000 C 
BRANCH   4   5
ATOM      5  C   UNL     1      -0.279   6.277 -23.815  0.00  0.00    +0.000 C 
ATOM      6  C   UNL     1       0.277   7.355 -24.750  0.00  0.00    +0.000 C 
BRANCH   6   7
ATOM      7  C   UNL     1       0.833   8.433 -25.686  0.00  0.00    +0.000 C 
ATOM      8  C   UNL     1       1.388   9.511 -26.620  0.00  0.00    +0.000 C 
BRANCH   8   9
ATOM      9  C   UNL     1       1.943  10.590 -27.555  0.00  0.00    +0.000 C 
BRANCH   9  10
ATOM     10  C   UNL     1       2.499  11.668 -28.491  0.00  0.00    +0.000 C 
ATOM     11  C   UNL     1       3.054  12.746 -29.426  0.00  0.00    +0.000 C 
BRANCH  11  12
ATOM     12  C   UNL     1       3.610  13.823 -30.363  0.00  0.00    +0.000 C 
ATOM     13  C   UNL     1       4.166  14.901 -31.298  0.00  0.00    +0.000 C 
ATOM     14  C   UNL     1       4.722  15.979 -32.234  0.00  0.00    +0.000 C 
ENDBRANCH  11  12
ENDBRANCH   9  10
ENDBRANCH   8   9
ENDBRANCH   6   7
ENDBRANCH   4   5
ENDBRANCH   1   3
BRANCH   2  15
ATOM     15  C   UNL     1      -2.948   1.121 -19.345  0.00  0.00    +0.000 C 
BRANCH  15  16
ATOM     16  C   UNL     1      -3.467   0.119 -18.477  0.00  0.00    +0.000 A 
ATOM     17  C   UNL     1      -3.784  -1.141 -18.981  0.00  0.00    +0.000 A 
ATOM     18  C   UNL     1      -3.656   0.403 -17.126  0.00  0.00    +0.000 A 
ATOM     19  C   UNL     1      -4.165  -0.584 -16.284  0.00  0.00    +0.000 A 
ATOM     20  C   UNL     1      -4.290  -2.114 -18.123  0.00  0.00    +0.000 A 
ATOM     21  C   UNL     1      -4.485  -1.847 -16.773  0.00  0.00    +0.000 A 
BRANCH  20  22
ATOM     22  O   UNL     1      -4.607  -3.356 -18.594  0.00  0.00    +0.000 OA
ATOM     23  H   UNL     1      -5.555  -3.369 -18.814  0.00  0.00    +0.000 HD
ENDBRANCH  20  22
BRANCH  19  24
ATOM     24  O   UNL     1      -4.360  -0.332 -14.956  0.00  0.00    +0.000 OA
ATOM     25  H   UNL     1      -5.299  -0.485 -14.751  0.00  0.00    +0.000 HD
ENDBRANCH  19  24
ENDBRANCH  15  16
ENDBRANCH   2  15
TORSDOF 10
ENDMDL
MODEL 7
REMARK VINA RESULT:      -3.5     17.723     19.570
REMARK  Name = 76617_Cardol.pdbqt.pdb
REMARK  10 active torsions:
REMARK  status: ('A' for Active; 'I' for Inactive)
REMARK    1  A    between atoms: C_1  and  C_2
REMARK    2  A    between atoms: C_3  and  C_4
REMARK    3  A    between atoms: C_5  and  C_6
REMARK    4  A    between atoms: C_7  and  C_8
REMARK    5  A    between atoms: C_8  and  C_9
REMARK    6  A    between atoms: C_10  and  C_11
REMARK    7  A    between atoms: C_14  and  C_15
REMARK    8  A    between atoms: C_15  and  C_16
REMARK    9  A    between atoms: C_19  and  O_24
REMARK   10  A    between atoms: C_20  and  O_22
REMARK                            x       y       z     vdW  Elec       q    Type
REMARK                         _______ _______ _______ _____ _____    ______ ____
ROOT
ATOM      1  C   UNL     1      10.781  10.883 -11.141  0.00  0.00    +0.000 C 
ATOM      2  C   UNL     1      10.990  11.471 -12.165  0.00  0.00    +0.000 C 
ENDROOT
BRANCH   1   3
ATOM      3  C   UNL     1      10.513  10.134  -9.832  0.00  0.00    +0.000 C 
ATOM      4  C   UNL     1      10.246   9.385  -8.523  0.00  0.00    +0.000 C 
BRANCH   4   5
ATOM      5  C   UNL     1       9.978   8.637  -7.213  0.00  0.00    +0.000 C 
ATOM      6  C   UNL     1       9.709   7.890  -5.904  0.00  0.00    +0.000 C 
BRANCH   6   7
ATOM      7  C   UNL     1       9.440   7.142  -4.594  0.00  0.00    +0.000 C 
ATOM      8  C   UNL     1       9.171   6.394  -3.285  0.00  0.00    +0.000 C 
BRANCH   8   9
ATOM      9  C   UNL     1       8.902   5.646  -1.976  0.00  0.00    +0.000 C 
BRANCH   9  10
ATOM     10  C   UNL     1       8.632   4.897  -0.668  0.00  0.00    +0.000 C 
ATOM     11  C   UNL     1       8.361   4.148   0.640  0.00  0.00    +0.000 C 
BRANCH  11  12
ATOM     12  C   UNL     1       8.090   3.399   1.949  0.00  0.00    +0.000 C 
ATOM     13  C   UNL     1       7.819   2.649   3.257  0.00  0.00    +0.000 C 
ATOM     14  C   UNL     1       7.548   1.900   4.565  0.00  0.00    +0.000 C 
ENDBRANCH  11  12
ENDBRANCH   9  10
ENDBRANCH   8   9
ENDBRANCH   6   7
ENDBRANCH   4   5
ENDBRANCH   1   3
BRANCH   2  15
ATOM     15  C   UNL     1      11.258  12.221 -13.475  0.00  0.00    +0.000 C 
BRANCH  15  16
ATOM     16  C   UNL     1      11.508  12.918 -14.691  0.00  0.00    +0.000 A 
ATOM     17  C   UNL     1      12.676  13.665 -14.837  0.00  0.00    +0.000 A 
ATOM     18  C   UNL     1      10.583  12.849 -15.732  0.00  0.00    +0.000 A 
ATOM     19  C   UNL     1      10.837  13.534 -16.918  0.00  0.00    +0.000 A 
ATOM     20  C   UNL     1      12.910  14.342 -16.031  0.00  0.00    +0.000 A 
ATOM     21  C   UNL     1      11.997  14.284 -17.078  0.00  0.00    +0.000 A 
BRANCH  20  22
ATOM     22  O   UNL     1      14.046  15.080 -16.197  0.00  0.00    +0.000 OA
ATOM     23  H   UNL     1      14.800  14.565 -15.860  0.00  0.00    +0.000 HD
ENDBRANCH  20  22
BRANCH  19  24
ATOM     24  O   UNL     1       9.947  13.484 -17.952  0.00  0.00    +0.000 OA
ATOM     25  H   UNL     1       9.105  13.130 -17.616  0.00  0.00    +0.000 HD
ENDBRANCH  19  24
ENDBRANCH  15  16
ENDBRANCH   2  15
TORSDOF 10
ENDMDL
MODEL 8
REMARK VINA RESULT:      -3.5     15.141     19.689
REMARK  Name = 76617_Cardol.pdbqt.pdb
REMARK  10 active torsions:
REMARK  status: ('A' for Active; 'I' for Inactive)
REMARK    1  A    between atoms: C_1  and  C_2
REMARK    2  A    between atoms: C_3  and  C_4
REMARK    3  A    between atoms: C_5  and  C_6
REMARK    4  A    between atoms: C_7  and  C_8
REMARK    5  A    between atoms: C_8  and  C_9
REMARK    6  A    between atoms: C_10  and  C_11
REMARK    7  A    between atoms: C_14  and  C_15
REMARK    8  A    between atoms: C_15  and  C_16
REMARK    9  A    between atoms: C_19  and  O_24
REMARK   10  A    between atoms: C_20  and  O_22
REMARK                            x       y       z     vdW  Elec       q    Type
REMARK                         _______ _______ _______ _____ _____    ______ ____
ROOT
ATOM      1  C   UNL     1     -12.065   2.662 -20.797  0.00  0.00    +0.000 C 
ATOM      2  C   UNL     1     -11.714   1.646 -20.263  0.00  0.00    +0.000 C 
ENDROOT
BRANCH   1   3
ATOM      3  C   UNL     1     -12.514   3.958 -21.478  0.00  0.00    +0.000 C 
ATOM      4  C   UNL     1     -12.962   5.256 -22.158  0.00  0.00    +0.000 C 
BRANCH   4   5
ATOM      5  C   UNL     1     -13.409   6.553 -22.838  0.00  0.00    +0.000 C 
ATOM      6  C   UNL     1     -13.856   7.850 -23.518  0.00  0.00    +0.000 C 
BRANCH   6   7
ATOM      7  C   UNL     1     -14.302   9.149 -24.198  0.00  0.00    +0.000 C 
ATOM      8  C   UNL     1     -14.748  10.446 -24.878  0.00  0.00    +0.000 C 
BRANCH   8   9
ATOM      9  C   UNL     1     -15.194  11.744 -25.557  0.00  0.00    +0.000 C 
BRANCH   9  10
ATOM     10  C   UNL     1     -15.641  13.043 -26.236  0.00  0.00    +0.000 C 
ATOM     11  C   UNL     1     -16.089  14.340 -26.915  0.00  0.00    +0.000 C 
BRANCH  11  12
ATOM     12  C   UNL     1     -16.537  15.638 -27.595  0.00  0.00    +0.000 C 
ATOM     13  C   UNL     1     -16.985  16.935 -28.273  0.00  0.00    +0.000 C 
ATOM     14  C   UNL     1     -17.433  18.233 -28.953  0.00  0.00    +0.000 C 
ENDBRANCH  11  12
ENDBRANCH   9  10
ENDBRANCH   8   9
ENDBRANCH   6   7
ENDBRANCH   4   5
ENDBRANCH   1   3
BRANCH   2  15
ATOM     15  C   UNL     1     -11.264   0.349 -19.582  0.00  0.00    +0.000 C 
BRANCH  15  16
ATOM     16  C   UNL     1     -10.846  -0.856 -18.950  0.00  0.00    +0.000 A 
ATOM     17  C   UNL     1     -10.961  -0.991 -17.567  0.00  0.00    +0.000 A 
ATOM     18  C   UNL     1     -10.326  -1.897 -19.716  0.00  0.00    +0.000 A 
ATOM     19  C   UNL     1      -9.920  -3.072 -19.089  0.00  0.00    +0.000 A 
ATOM     20  C   UNL     1     -10.550  -2.175 -16.959  0.00  0.00    +0.000 A 
ATOM     21  C   UNL     1     -10.028  -3.222 -17.710  0.00  0.00    +0.000 A 
BRANCH  20  22
ATOM     22  O   UNL     1     -10.652  -2.331 -15.607  0.00  0.00    +0.000 OA
ATOM     23  H   UNL     1     -10.831  -3.268 -15.418  0.00  0.00    +0.000 HD
ENDBRANCH  20  22
BRANCH  19  24
ATOM     24  O   UNL     1      -9.406  -4.107 -19.817  0.00  0.00    +0.000 OA
ATOM     25  H   UNL     1      -8.815  -4.623 -19.240  0.00  0.00    +0.000 HD
ENDBRANCH  19  24
ENDBRANCH  15  16
ENDBRANCH   2  15
TORSDOF 10
ENDMDL
MODEL 9
REMARK VINA RESULT:      -3.5     18.076     21.196
REMARK  Name = 76617_Cardol.pdbqt.pdb
REMARK  10 active torsions:
REMARK  status: ('A' for Active; 'I' for Inactive)
REMARK    1  A    between atoms: C_1  and  C_2
REMARK    2  A    between atoms: C_3  and  C_4
REMARK    3  A    between atoms: C_5  and  C_6
REMARK    4  A    between atoms: C_7  and  C_8
REMARK    5  A    between atoms: C_8  and  C_9
REMARK    6  A    between atoms: C_10  and  C_11
REMARK    7  A    between atoms: C_14  and  C_15
REMARK    8  A    between atoms: C_15  and  C_16
REMARK    9  A    between atoms: C_19  and  O_24
REMARK   10  A    between atoms: C_20  and  O_22
REMARK                            x       y       z     vdW  Elec       q    Type
REMARK                         _______ _______ _______ _____ _____    ______ ____
ROOT
ATOM      1  C   UNL     1       1.520 -14.491 -18.042  0.00  0.00    +0.000 C 
ATOM      2  C   UNL     1       1.138 -14.122 -19.117  0.00  0.00    +0.000 C 
ENDROOT
BRANCH   1   3
ATOM      3  C   UNL     1       2.009 -14.963 -16.669  0.00  0.00    +0.000 C 
ATOM      4  C   UNL     1       2.497 -15.435 -15.295  0.00  0.00    +0.000 C 
BRANCH   4   5
ATOM      5  C   UNL     1       2.983 -15.907 -13.922  0.00  0.00    +0.000 C 
ATOM      6  C   UNL     1       3.469 -16.379 -12.549  0.00  0.00    +0.000 C 
BRANCH   6   7
ATOM      7  C   UNL     1       3.955 -16.851 -11.175  0.00  0.00    +0.000 C 
ATOM      8  C   UNL     1       4.441 -17.322  -9.801  0.00  0.00    +0.000 C 
BRANCH   8   9
ATOM      9  C   UNL     1       4.927 -17.793  -8.428  0.00  0.00    +0.000 C 
BRANCH   9  10
ATOM     10  C   UNL     1       5.412 -18.263  -7.053  0.00  0.00    +0.000 C 
ATOM     11  C   UNL     1       5.896 -18.734  -5.679  0.00  0.00    +0.000 C 
BRANCH  11  12
ATOM     12  C   UNL     1       6.381 -19.205  -4.303  0.00  0.00    +0.000 C 
ATOM     13  C   UNL     1       6.865 -19.674  -2.929  0.00  0.00    +0.000 C 
ATOM     14  C   UNL     1       7.349 -20.145  -1.553  0.00  0.00    +0.000 C 
ENDBRANCH  11  12
ENDBRANCH   9  10
ENDBRANCH   8   9
ENDBRANCH   6   7
ENDBRANCH   4   5
ENDBRANCH   1   3
BRANCH   2  15
ATOM     15  C   UNL     1       0.648 -13.649 -20.490  0.00  0.00    +0.000 C 
BRANCH  15  16
ATOM     16  C   UNL     1       0.193 -13.209 -21.766  0.00  0.00    +0.000 A 
ATOM     17  C   UNL     1      -1.172 -13.059 -22.002  0.00  0.00    +0.000 A 
ATOM     18  C   UNL     1       1.116 -12.929 -22.772  0.00  0.00    +0.000 A 
ATOM     19  C   UNL     1       0.661 -12.498 -24.016  0.00  0.00    +0.000 A 
ATOM     20  C   UNL     1      -1.606 -12.627 -23.253  0.00  0.00    +0.000 A 
ATOM     21  C   UNL     1      -0.699 -12.344 -24.268  0.00  0.00    +0.000 A 
BRANCH  20  22
ATOM     22  O   UNL     1      -2.938 -12.473 -23.509  0.00  0.00    +0.000 OA
ATOM     23  H   UNL     1      -3.215 -13.169 -24.130  0.00  0.00    +0.000 HD
ENDBRANCH  20  22
BRANCH  19  24
ATOM     24  O   UNL     1       1.544 -12.218 -25.020  0.00  0.00    +0.000 OA
ATOM     25  H   UNL     1       2.439 -12.191 -24.641  0.00  0.00    +0.000 HD
ENDBRANCH  19  24
ENDBRANCH  15  16
ENDBRANCH   2  15
TORSDOF 10
ENDMDL
