MODEL 1
REMARK VINA RESULT:      -5.6      0.000      0.000
REMARK  Name = 85668777_Hyaluronidase.pdbqt.pdb
REMARK  5 active torsions:
REMARK  status: ('A' for Active; 'I' for Inactive)
REMARK    1  A    between atoms: N_1  and  C_13
REMARK    2  A    between atoms: C_14  and  C_15
REMARK    3  A    between atoms: C_15  and  C_16
REMARK    4  A    between atoms: C_17  and  C_19
REMARK    5  A    between atoms: C_19  and  O_20
REMARK                            x       y       z     vdW  Elec       q    Type
REMARK                         _______ _______ _______ _____ _____    ______ ____
ROOT
ATOM      1  N   UNL     1       5.845   4.085   0.713  0.00  0.00    +0.000 N 
ATOM      2  C   UNL     1       7.982   4.974   1.421  0.00  0.00    +0.000 C 
ATOM      3  C   UNL     1       7.806   5.011  -0.097  0.00  0.00    +0.000 A 
ATOM      4  C   UNL     1       6.606   4.335   1.856  0.00  0.00    +0.000 C 
ATOM      5  C   UNL     1       6.545   4.480  -0.439  0.00  0.00    +0.000 A 
ATOM      6  C   UNL     1       9.199   4.061   1.773  0.00  0.00    +0.000 C 
ATOM      7  C   UNL     1       8.153   6.433   1.951  0.00  0.00    +0.000 C 
ATOM      8  C   UNL     1       8.678   5.469  -1.076  0.00  0.00    +0.000 A 
ATOM      9  C   UNL     1       6.141   4.402  -1.760  0.00  0.00    +0.000 A 
ATOM     10  C   UNL     1       6.142   4.038   3.087  0.00  0.00    +0.000 C 
ATOM     11  C   UNL     1       8.270   5.389  -2.406  0.00  0.00    +0.000 A 
ATOM     12  C   UNL     1       7.015   4.862  -2.744  0.00  0.00    +0.000 A 
ENDROOT
BRANCH   1  13
ATOM     13  C   UNL     1       4.524   3.506   0.685  0.00  0.00    +0.000 C 
ATOM     14  C   UNL     1       3.120   2.892   0.649  0.00  0.00    +0.000 C 
BRANCH  14  15
ATOM     15  C   UNL     1       1.717   2.279   0.613  0.00  0.00    +0.000 C 
BRANCH  15  16
ATOM     16  C   UNL     1       0.314   1.667   0.576  0.00  0.00    +0.000 C 
ATOM     17  C   UNL     1      -1.089   1.055   0.538  0.00  0.00    +0.000 C 
BRANCH  17  19
ATOM     18  O   UNL     1      -3.370   0.990   1.040  0.00  0.00    +0.000 OA
ATOM     19  C   UNL     1      -2.401   0.483   0.501  0.00  0.00    +0.000 C 
BRANCH  19  20
ATOM     20  O   UNL     1      -2.477  -0.671  -0.185  0.00  0.00    +0.000 OA
ATOM     21  H   UNL     1      -1.555  -0.830  -0.473  0.00  0.00    +0.000 HD
ENDBRANCH  19  20
ENDBRANCH  17  19
ENDBRANCH  15  16
ENDBRANCH  14  15
ENDBRANCH   1  13
TORSDOF 5
ENDMDL
MODEL 2
REMARK VINA RESULT:      -5.5      7.336     15.040
REMARK  Name = 85668777_Hyaluronidase.pdbqt.pdb
REMARK  5 active torsions:
REMARK  status: ('A' for Active; 'I' for Inactive)
REMARK    1  A    between atoms: N_1  and  C_13
REMARK    2  A    between atoms: C_14  and  C_15
REMARK    3  A    between atoms: C_15  and  C_16
REMARK    4  A    between atoms: C_17  and  C_19
REMARK    5  A    between atoms: C_19  and  O_20
REMARK                            x       y       z     vdW  Elec       q    Type
REMARK                         _______ _______ _______ _____ _____    ______ ____
ROOT
ATOM      1  N   UNL     1      -8.114  -1.919   0.253  0.00  0.00    +0.000 N 
ATOM      2  C   UNL     1     -10.343  -2.724   0.745  0.00  0.00    +0.000 C 
ATOM      3  C   UNL     1      -9.930  -2.993  -0.701  0.00  0.00    +0.000 A 
ATOM      4  C   UNL     1      -9.048  -2.003   1.287  0.00  0.00    +0.000 C 
ATOM      5  C   UNL     1      -8.627  -2.500  -0.919  0.00  0.00    +0.000 A 
ATOM      6  C   UNL     1     -11.593  -1.789   0.756  0.00  0.00    +0.000 C 
ATOM      7  C   UNL     1     -10.607  -4.087   1.463  0.00  0.00    +0.000 C 
ATOM      8  C   UNL     1     -10.640  -3.610  -1.721  0.00  0.00    +0.000 A 
ATOM      9  C   UNL     1      -8.019  -2.620  -2.156  0.00  0.00    +0.000 A 
ATOM     10  C   UNL     1      -8.781  -1.511   2.514  0.00  0.00    +0.000 C 
ATOM     11  C   UNL     1     -10.026  -3.731  -2.968  0.00  0.00    +0.000 A 
ATOM     12  C   UNL     1      -8.730  -3.242  -3.182  0.00  0.00    +0.000 A 
ENDROOT
BRANCH   1  13
ATOM     13  C   UNL     1      -6.800  -1.330   0.343  0.00  0.00    +0.000 C 
ATOM     14  C   UNL     1      -5.404  -0.705   0.433  0.00  0.00    +0.000 C 
BRANCH  14  15
ATOM     15  C   UNL     1      -4.009  -0.080   0.522  0.00  0.00    +0.000 C 
BRANCH  15  16
ATOM     16  C   UNL     1      -2.613   0.544   0.611  0.00  0.00    +0.000 C 
ATOM     17  C   UNL     1      -1.218   1.169   0.698  0.00  0.00    +0.000 C 
BRANCH  17  19
ATOM     18  O   UNL     1       0.891   1.481   1.654  0.00  0.00    +0.000 OA
ATOM     19  C   UNL     1       0.086   1.755   0.781  0.00  0.00    +0.000 C 
BRANCH  19  20
ATOM     20  O   UNL     1       0.350   2.643  -0.194  0.00  0.00    +0.000 OA
ATOM     21  H   UNL     1       0.712   3.415   0.287  0.00  0.00    +0.000 HD
ENDBRANCH  19  20
ENDBRANCH  17  19
ENDBRANCH  15  16
ENDBRANCH  14  15
ENDBRANCH   1  13
TORSDOF 5
ENDMDL
MODEL 3
REMARK VINA RESULT:      -5.4     17.872     19.896
REMARK  Name = 85668777_Hyaluronidase.pdbqt.pdb
REMARK  5 active torsions:
REMARK  status: ('A' for Active; 'I' for Inactive)
REMARK    1  A    between atoms: N_1  and  C_13
REMARK    2  A    between atoms: C_14  and  C_15
REMARK    3  A    between atoms: C_15  and  C_16
REMARK    4  A    between atoms: C_17  and  C_19
REMARK    5  A    between atoms: C_19  and  O_20
REMARK                            x       y       z     vdW  Elec       q    Type
REMARK                         _______ _______ _______ _____ _____    ______ ____
ROOT
ATOM      1  N   UNL     1       9.166   0.840 -19.225  0.00  0.00    +0.000 N 
ATOM      2  C   UNL     1      11.438   1.138 -20.004  0.00  0.00    +0.000 C 
ATOM      3  C   UNL     1      11.322   1.251 -18.484  0.00  0.00    +0.000 A 
ATOM      4  C   UNL     1       9.933   0.861 -20.391  0.00  0.00    +0.000 C 
ATOM      5  C   UNL     1       9.977   1.069 -18.100  0.00  0.00    +0.000 A 
ATOM      6  C   UNL     1      11.961   2.492 -20.580  0.00  0.00    +0.000 C 
ATOM      7  C   UNL     1      12.372  -0.065 -20.357  0.00  0.00    +0.000 C 
ATOM      8  C   UNL     1      12.308   1.492 -17.539  0.00  0.00    +0.000 A 
ATOM      9  C   UNL     1       9.604   1.125 -16.769  0.00  0.00    +0.000 A 
ATOM     10  C   UNL     1       9.373   0.665 -21.602  0.00  0.00    +0.000 C 
ATOM     11  C   UNL     1      11.931   1.549 -16.198  0.00  0.00    +0.000 A 
ATOM     12  C   UNL     1      10.595   1.366 -15.817  0.00  0.00    +0.000 A 
ENDROOT
BRANCH   1  13
ATOM     13  C   UNL     1       7.742   0.617 -19.150  0.00  0.00    +0.000 C 
ATOM     14  C   UNL     1       6.231   0.381 -19.077  0.00  0.00    +0.000 C 
BRANCH  14  15
ATOM     15  C   UNL     1       4.719   0.145 -19.004  0.00  0.00    +0.000 C 
BRANCH  15  16
ATOM     16  C   UNL     1       3.208  -0.089 -18.931  0.00  0.00    +0.000 C 
ATOM     17  C   UNL     1       1.696  -0.324 -18.858  0.00  0.00    +0.000 C 
BRANCH  17  19
ATOM     18  O   UNL     1      -0.228  -1.648 -18.808  0.00  0.00    +0.000 OA
ATOM     19  C   UNL     1       0.282  -0.542 -18.788  0.00  0.00    +0.000 C 
BRANCH  19  20
ATOM     20  O   UNL     1      -0.442   0.587 -18.699  0.00  0.00    +0.000 OA
ATOM     21  H   UNL     1      -1.156   0.355 -18.071  0.00  0.00    +0.000 HD
ENDBRANCH  19  20
ENDBRANCH  17  19
ENDBRANCH  15  16
ENDBRANCH  14  15
ENDBRANCH   1  13
TORSDOF 5
ENDMDL
MODEL 4
REMARK VINA RESULT:      -5.3      4.589     10.268
REMARK  Name = 85668777_Hyaluronidase.pdbqt.pdb
REMARK  5 active torsions:
REMARK  status: ('A' for Active; 'I' for Inactive)
REMARK    1  A    between atoms: N_1  and  C_13
REMARK    2  A    between atoms: C_14  and  C_15
REMARK    3  A    between atoms: C_15  and  C_16
REMARK    4  A    between atoms: C_17  and  C_19
REMARK    5  A    between atoms: C_19  and  O_20
REMARK                            x       y       z     vdW  Elec       q    Type
REMARK                         _______ _______ _______ _____ _____    ______ ____
ROOT
ATOM      1  N   UNL     1      -0.978   1.209   1.553  0.00  0.00    +0.000 N 
ATOM      2  C   UNL     1      -3.211   0.302   1.337  0.00  0.00    +0.000 C 
ATOM      3  C   UNL     1      -2.946   0.879   2.727  0.00  0.00    +0.000 A 
ATOM      4  C   UNL     1      -1.824   0.580   0.638  0.00  0.00    +0.000 C 
ATOM      5  C   UNL     1      -1.632   1.388   2.783  0.00  0.00    +0.000 A 
ATOM      6  C   UNL     1      -3.518  -1.223   1.465  0.00  0.00    +0.000 C 
ATOM      7  C   UNL     1      -4.381   1.094   0.669  0.00  0.00    +0.000 C 
ATOM      8  C   UNL     1      -3.785   0.945   3.830  0.00  0.00    +0.000 A 
ATOM      9  C   UNL     1      -1.143   1.968   3.940  0.00  0.00    +0.000 A 
ATOM     10  C   UNL     1      -1.417   0.301  -0.617  0.00  0.00    +0.000 C 
ATOM     11  C   UNL     1      -3.291   1.529   4.996  0.00  0.00    +0.000 A 
ATOM     12  C   UNL     1      -1.985   2.035   5.050  0.00  0.00    +0.000 A 
ENDROOT
BRANCH   1  13
ATOM     13  C   UNL     1       0.379   1.630   1.301  0.00  0.00    +0.000 C 
ATOM     14  C   UNL     1       1.818   2.080   1.031  0.00  0.00    +0.000 C 
BRANCH  14  15
ATOM     15  C   UNL     1       3.257   2.530   0.759  0.00  0.00    +0.000 C 
BRANCH  15  16
ATOM     16  C   UNL     1       4.695   2.981   0.487  0.00  0.00    +0.000 C 
ATOM     17  C   UNL     1       6.133   3.431   0.215  0.00  0.00    +0.000 C 
BRANCH  17  19
ATOM     18  O   UNL     1       7.919   4.936   0.295  0.00  0.00    +0.000 OA
ATOM     19  C   UNL     1       7.478   3.850  -0.041  0.00  0.00    +0.000 C 
BRANCH  19  20
ATOM     20  O   UNL     1       8.222   2.937  -0.690  0.00  0.00    +0.000 OA
ATOM     21  H   UNL     1       7.566   2.281  -1.000  0.00  0.00    +0.000 HD
ENDBRANCH  19  20
ENDBRANCH  17  19
ENDBRANCH  15  16
ENDBRANCH  14  15
ENDBRANCH   1  13
TORSDOF 5
ENDMDL
MODEL 5
REMARK VINA RESULT:      -5.3      6.032      8.625
REMARK  Name = 85668777_Hyaluronidase.pdbqt.pdb
REMARK  5 active torsions:
REMARK  status: ('A' for Active; 'I' for Inactive)
REMARK    1  A    between atoms: N_1  and  C_13
REMARK    2  A    between atoms: C_14  and  C_15
REMARK    3  A    between atoms: C_15  and  C_16
REMARK    4  A    between atoms: C_17  and  C_19
REMARK    5  A    between atoms: C_19  and  O_20
REMARK                            x       y       z     vdW  Elec       q    Type
REMARK                         _______ _______ _______ _____ _____    ______ ____
ROOT
ATOM      1  N   UNL     1      -1.428   1.204   1.565  0.00  0.00    +0.000 N 
ATOM      2  C   UNL     1       0.809   2.126   1.497  0.00  0.00    +0.000 C 
ATOM      3  C   UNL     1       0.359   1.786   2.917  0.00  0.00    +0.000 A 
ATOM      4  C   UNL     1      -0.468   1.693   0.677  0.00  0.00    +0.000 C 
ATOM      5  C   UNL     1      -0.947   1.256   2.884  0.00  0.00    +0.000 A 
ATOM      6  C   UNL     1       1.085   3.660   1.401  0.00  0.00    +0.000 C 
ATOM      7  C   UNL     1       2.064   1.267   1.138  0.00  0.00    +0.000 C 
ATOM      8  C   UNL     1       1.040   1.933   4.118  0.00  0.00    +0.000 A 
ATOM      9  C   UNL     1      -1.586   0.866   4.048  0.00  0.00    +0.000 A 
ATOM     10  C   UNL     1      -0.702   1.743  -0.651  0.00  0.00    +0.000 C 
ATOM     11  C   UNL     1       0.395   1.540   5.289  0.00  0.00    +0.000 A 
ATOM     12  C   UNL     1      -0.903   1.012   5.255  0.00  0.00    +0.000 A 
ENDROOT
BRANCH   1  13
ATOM     13  C   UNL     1      -2.735   0.707   1.210  0.00  0.00    +0.000 C 
ATOM     14  C   UNL     1      -4.123   0.182   0.830  0.00  0.00    +0.000 C 
BRANCH  14  15
ATOM     15  C   UNL     1      -5.511  -0.342   0.449  0.00  0.00    +0.000 C 
BRANCH  15  16
ATOM     16  C   UNL     1      -6.898  -0.866   0.067  0.00  0.00    +0.000 C 
ATOM     17  C   UNL     1      -8.285  -1.391  -0.316  0.00  0.00    +0.000 C 
BRANCH  17  19
ATOM     18  O   UNL     1     -10.203  -2.689  -0.005  0.00  0.00    +0.000 OA
ATOM     19  C   UNL     1      -9.581  -1.882  -0.675  0.00  0.00    +0.000 C 
BRANCH  19  20
ATOM     20  O   UNL     1     -10.060  -1.375  -1.824  0.00  0.00    +0.000 OA
ATOM     21  H   UNL     1     -10.942  -1.031  -1.576  0.00  0.00    +0.000 HD
ENDBRANCH  19  20
ENDBRANCH  17  19
ENDBRANCH  15  16
ENDBRANCH  14  15
ENDBRANCH   1  13
TORSDOF 5
ENDMDL
MODEL 6
REMARK VINA RESULT:      -5.1      1.081      3.163
REMARK  Name = 85668777_Hyaluronidase.pdbqt.pdb
REMARK  5 active torsions:
REMARK  status: ('A' for Active; 'I' for Inactive)
REMARK    1  A    between atoms: N_1  and  C_13
REMARK    2  A    between atoms: C_14  and  C_15
REMARK    3  A    between atoms: C_15  and  C_16
REMARK    4  A    between atoms: C_17  and  C_19
REMARK    5  A    between atoms: C_19  and  O_20
REMARK                            x       y       z     vdW  Elec       q    Type
REMARK                         _______ _______ _______ _____ _____    ______ ____
ROOT
ATOM      1  N   UNL     1       5.412   4.042   0.861  0.00  0.00    +0.000 N 
ATOM      2  C   UNL     1       7.554   5.049   0.355  0.00  0.00    +0.000 C 
ATOM      3  C   UNL     1       7.337   4.858   1.856  0.00  0.00    +0.000 A 
ATOM      4  C   UNL     1       6.201   4.465  -0.210  0.00  0.00    +0.000 C 
ATOM      5  C   UNL     1       6.075   4.270   2.079  0.00  0.00    +0.000 A 
ATOM      6  C   UNL     1       7.719   6.571   0.050  0.00  0.00    +0.000 C 
ATOM      7  C   UNL     1       8.794   4.210  -0.092  0.00  0.00    +0.000 C 
ATOM      8  C   UNL     1       8.174   5.177   2.916  0.00  0.00    +0.000 A 
ATOM      9  C   UNL     1       5.636   3.993   3.361  0.00  0.00    +0.000 A 
ATOM     10  C   UNL     1       5.775   4.348  -1.484  0.00  0.00    +0.000 C 
ATOM     11  C   UNL     1       7.731   4.897   4.208  0.00  0.00    +0.000 A 
ATOM     12  C   UNL     1       6.477   4.311   4.428  0.00  0.00    +0.000 A 
ENDROOT
BRANCH   1  13
ATOM     13  C   UNL     1       4.100   3.448   0.765  0.00  0.00    +0.000 C 
ATOM     14  C   UNL     1       2.710   2.814   0.665  0.00  0.00    +0.000 C 
BRANCH  14  15
ATOM     15  C   UNL     1       1.319   2.179   0.566  0.00  0.00    +0.000 C 
BRANCH  15  16
ATOM     16  C   UNL     1      -0.070   1.543   0.465  0.00  0.00    +0.000 C 
ATOM     17  C   UNL     1      -1.460   0.907   0.366  0.00  0.00    +0.000 C 
BRANCH  17  19
ATOM     18  O   UNL     1      -3.795   0.955   0.316  0.00  0.00    +0.000 OA
ATOM     19  C   UNL     1      -2.759   0.313   0.274  0.00  0.00    +0.000 C 
BRANCH  19  20
ATOM     20  O   UNL     1      -2.742  -1.024   0.138  0.00  0.00    +0.000 OA
ATOM     21  H   UNL     1      -3.006  -1.165  -0.794  0.00  0.00    +0.000 HD
ENDBRANCH  19  20
ENDBRANCH  17  19
ENDBRANCH  15  16
ENDBRANCH  14  15
ENDBRANCH   1  13
TORSDOF 5
ENDMDL
MODEL 7
REMARK VINA RESULT:      -5.1      1.513      2.222
REMARK  Name = 85668777_Hyaluronidase.pdbqt.pdb
REMARK  5 active torsions:
REMARK  status: ('A' for Active; 'I' for Inactive)
REMARK    1  A    between atoms: N_1  and  C_13
REMARK    2  A    between atoms: C_14  and  C_15
REMARK    3  A    between atoms: C_15  and  C_16
REMARK    4  A    between atoms: C_17  and  C_19
REMARK    5  A    between atoms: C_19  and  O_20
REMARK                            x       y       z     vdW  Elec       q    Type
REMARK                         _______ _______ _______ _____ _____    ______ ____
ROOT
ATOM      1  N   UNL     1       7.813   3.743   1.046  0.00  0.00    +0.000 N 
ATOM      2  C   UNL     1      10.138   4.009   1.665  0.00  0.00    +0.000 C 
ATOM      3  C   UNL     1       9.758   4.845   0.443  0.00  0.00    +0.000 A 
ATOM      4  C   UNL     1       8.756   3.316   1.982  0.00  0.00    +0.000 C 
ATOM      5  C   UNL     1       8.396   4.643   0.138  0.00  0.00    +0.000 A 
ATOM      6  C   UNL     1      11.241   2.981   1.260  0.00  0.00    +0.000 C 
ATOM      7  C   UNL     1      10.601   4.963   2.813  0.00  0.00    +0.000 C 
ATOM      8  C   UNL     1      10.543   5.697  -0.322  0.00  0.00    +0.000 A 
ATOM      9  C   UNL     1       7.803   5.290  -0.932  0.00  0.00    +0.000 A 
ATOM     10  C   UNL     1       8.430   2.445   2.959  0.00  0.00    +0.000 C 
ATOM     11  C   UNL     1       9.944   6.348  -1.400  0.00  0.00    +0.000 A 
ATOM     12  C   UNL     1       8.590   6.147  -1.701  0.00  0.00    +0.000 A 
ENDROOT
BRANCH   1  13
ATOM     13  C   UNL     1       6.429   3.340   0.993  0.00  0.00    +0.000 C 
ATOM     14  C   UNL     1       4.959   2.914   0.931  0.00  0.00    +0.000 C 
BRANCH  14  15
ATOM     15  C   UNL     1       3.489   2.488   0.868  0.00  0.00    +0.000 C 
BRANCH  15  16
ATOM     16  C   UNL     1       2.019   2.062   0.805  0.00  0.00    +0.000 C 
ATOM     17  C   UNL     1       0.549   1.637   0.741  0.00  0.00    +0.000 C 
BRANCH  17  19
ATOM     18  O   UNL     1      -1.365   0.844  -0.338  0.00  0.00    +0.000 OA
ATOM     19  C   UNL     1      -0.825   1.241   0.680  0.00  0.00    +0.000 C 
BRANCH  19  20
ATOM     20  O   UNL     1      -1.478   1.346   1.851  0.00  0.00    +0.000 OA
ATOM     21  H   UNL     1      -0.805   1.093   2.515  0.00  0.00    +0.000 HD
ENDBRANCH  19  20
ENDBRANCH  17  19
ENDBRANCH  15  16
ENDBRANCH  14  15
ENDBRANCH   1  13
TORSDOF 5
ENDMDL
MODEL 8
REMARK VINA RESULT:      -5.0     22.548     24.910
REMARK  Name = 85668777_Hyaluronidase.pdbqt.pdb
REMARK  5 active torsions:
REMARK  status: ('A' for Active; 'I' for Inactive)
REMARK    1  A    between atoms: N_1  and  C_13
REMARK    2  A    between atoms: C_14  and  C_15
REMARK    3  A    between atoms: C_15  and  C_16
REMARK    4  A    between atoms: C_17  and  C_19
REMARK    5  A    between atoms: C_19  and  O_20
REMARK                            x       y       z     vdW  Elec       q    Type
REMARK                         _______ _______ _______ _____ _____    ______ ____
ROOT
ATOM      1  N   UNL     1      -4.258  15.154 -18.536  0.00  0.00    +0.000 N 
ATOM      2  C   UNL     1      -6.369  16.168 -17.925  0.00  0.00    +0.000 C 
ATOM      3  C   UNL     1      -5.596  15.649 -16.712  0.00  0.00    +0.000 A 
ATOM      4  C   UNL     1      -5.375  15.783 -19.089  0.00  0.00    +0.000 C 
ATOM      5  C   UNL     1      -4.382  15.072 -17.139  0.00  0.00    +0.000 A 
ATOM      6  C   UNL     1      -7.730  15.409 -18.028  0.00  0.00    +0.000 C 
ATOM      7  C   UNL     1      -6.553  17.713 -17.789  0.00  0.00    +0.000 C 
ATOM      8  C   UNL     1      -5.937  15.682 -15.368  0.00  0.00    +0.000 A 
ATOM      9  C   UNL     1      -3.495  14.526 -16.228  0.00  0.00    +0.000 A 
ATOM     10  C   UNL     1      -5.485  15.977 -20.419  0.00  0.00    +0.000 C 
ATOM     11  C   UNL     1      -5.043  15.131 -14.451  0.00  0.00    +0.000 A 
ATOM     12  C   UNL     1      -3.836  14.560 -14.876  0.00  0.00    +0.000 A 
ENDROOT
BRANCH   1  13
ATOM     13  C   UNL     1      -3.120  14.651 -19.268  0.00  0.00    +0.000 C 
ATOM     14  C   UNL     1      -1.916  14.116 -20.048  0.00  0.00    +0.000 C 
BRANCH  14  15
ATOM     15  C   UNL     1      -0.712  13.581 -20.830  0.00  0.00    +0.000 C 
BRANCH  15  16
ATOM     16  C   UNL     1       0.492  13.047 -21.610  0.00  0.00    +0.000 C 
ATOM     17  C   UNL     1       1.697  12.512 -22.390  0.00  0.00    +0.000 C 
BRANCH  17  19
ATOM     18  O   UNL     1       3.804  12.687 -23.385  0.00  0.00    +0.000 OA
ATOM     19  C   UNL     1       2.825  12.012 -23.118  0.00  0.00    +0.000 C 
BRANCH  19  20
ATOM     20  O   UNL     1       2.711  10.724 -23.486  0.00  0.00    +0.000 OA
ATOM     21  H   UNL     1       3.392  10.269 -22.949  0.00  0.00    +0.000 HD
ENDBRANCH  19  20
ENDBRANCH  17  19
ENDBRANCH  15  16
ENDBRANCH  14  15
ENDBRANCH   1  13
TORSDOF 5
ENDMDL
MODEL 9
REMARK VINA RESULT:      -4.9      4.652     10.049
REMARK  Name = 85668777_Hyaluronidase.pdbqt.pdb
REMARK  5 active torsions:
REMARK  status: ('A' for Active; 'I' for Inactive)
REMARK    1  A    between atoms: N_1  and  C_13
REMARK    2  A    between atoms: C_14  and  C_15
REMARK    3  A    between atoms: C_15  and  C_16
REMARK    4  A    between atoms: C_17  and  C_19
REMARK    5  A    between atoms: C_19  and  O_20
REMARK                            x       y       z     vdW  Elec       q    Type
REMARK                         _______ _______ _______ _____ _____    ______ ____
ROOT
ATOM      1  N   UNL     1      -0.871   1.232   2.873  0.00  0.00    +0.000 N 
ATOM      2  C   UNL     1      -2.586   0.515   4.423  0.00  0.00    +0.000 C 
ATOM      3  C   UNL     1      -2.999   0.324   2.963  0.00  0.00    +0.000 A 
ATOM      4  C   UNL     1      -1.144   1.128   4.238  0.00  0.00    +0.000 C 
ATOM      5  C   UNL     1      -1.958   0.761   2.118  0.00  0.00    +0.000 A 
ATOM      6  C   UNL     1      -3.573   1.513   5.108  0.00  0.00    +0.000 C 
ATOM      7  C   UNL     1      -2.553  -0.877   5.131  0.00  0.00    +0.000 C 
ATOM      8  C   UNL     1      -4.179  -0.184   2.440  0.00  0.00    +0.000 A 
ATOM      9  C   UNL     1      -2.084   0.693   0.742  0.00  0.00    +0.000 A 
ATOM     10  C   UNL     1      -0.245   1.521   5.164  0.00  0.00    +0.000 C 
ATOM     11  C   UNL     1      -4.305  -0.252   1.053  0.00  0.00    +0.000 A 
ATOM     12  C   UNL     1      -3.269   0.181   0.214  0.00  0.00    +0.000 A 
ENDROOT
BRANCH   1  13
ATOM     13  C   UNL     1       0.345   1.744   2.288  0.00  0.00    +0.000 C 
ATOM     14  C   UNL     1       1.638   2.288   1.672  0.00  0.00    +0.000 C 
BRANCH  14  15
ATOM     15  C   UNL     1       2.930   2.833   1.056  0.00  0.00    +0.000 C 
BRANCH  15  16
ATOM     16  C   UNL     1       4.222   3.378   0.442  0.00  0.00    +0.000 C 
ATOM     17  C   UNL     1       5.515   3.922  -0.173  0.00  0.00    +0.000 C 
BRANCH  17  19
ATOM     18  O   UNL     1       7.788   3.837  -0.707  0.00  0.00    +0.000 OA
ATOM     19  C   UNL     1       6.724   4.430  -0.749  0.00  0.00    +0.000 C 
BRANCH  19  20
ATOM     20  O   UNL     1       6.587   5.628  -1.343  0.00  0.00    +0.000 OA
ATOM     21  H   UNL     1       5.663   5.882  -1.142  0.00  0.00    +0.000 HD
ENDBRANCH  19  20
ENDBRANCH  17  19
ENDBRANCH  15  16
ENDBRANCH  14  15
ENDBRANCH   1  13
TORSDOF 5
ENDMDL
