MODEL 1
REMARK VINA RESULT:      -5.0      0.000      0.000
REMARK  Name = 86311066_OplopantriolA.pdbqt.pdb
REMARK  12 active torsions:
REMARK  status: ('A' for Active; 'I' for Inactive)
REMARK    1  A    between atoms: C_1  and  C_3
REMARK    2  A    between atoms: C_2  and  C_13
REMARK    3  A    between atoms: C_4  and  C_5
REMARK    4  A    between atoms: C_6  and  C_7
REMARK    5  A    between atoms: C_8  and  C_9
REMARK    6  A    between atoms: C_10  and  O_11
REMARK    7  A    between atoms: C_13  and  O_14
REMARK    8  A    between atoms: C_13  and  C_16
REMARK    9  A    between atoms: C_17  and  C_18
REMARK   10  A    between atoms: C_19  and  C_20
REMARK   11  A    between atoms: C_20  and  C_21
REMARK   12  A    between atoms: C_20  and  O_23
REMARK                            x       y       z     vdW  Elec       q    Type
REMARK                         _______ _______ _______ _____ _____    ______ ____
ROOT
ATOM      1  C   UNL     1      -6.848  -1.500   0.052  0.00  0.00    +0.000 C 
ATOM      2  C   UNL     1      -7.943  -1.986  -0.038  0.00  0.00    +0.000 C 
ENDROOT
BRANCH   1   3
ATOM      3  C   UNL     1      -5.453  -0.880   0.168  0.00  0.00    +0.000 C 
ATOM      4  C   UNL     1      -4.058  -0.259   0.283  0.00  0.00    +0.000 C 
BRANCH   4   5
ATOM      5  C   UNL     1      -2.661   0.360   0.398  0.00  0.00    +0.000 C 
ATOM      6  C   UNL     1      -1.266   0.982   0.513  0.00  0.00    +0.000 C 
BRANCH   6   7
ATOM      7  C   UNL     1       0.129   1.602   0.628  0.00  0.00    +0.000 C 
ATOM      8  C   UNL     1       1.525   2.223   0.742  0.00  0.00    +0.000 C 
BRANCH   8   9
ATOM      9  C   UNL     1       2.921   2.842   0.858  0.00  0.00    +0.000 C 
ATOM     10  C   UNL     1       4.317   3.461   0.973  0.00  0.00    +0.000 C 
BRANCH  10  11
ATOM     11  O   UNL     1       5.527   3.998   1.073  0.00  0.00    +0.000 OA
ATOM     12  H   UNL     1       5.803   4.040   2.004  0.00  0.00    +0.000 HD
ENDBRANCH  10  11
ENDBRANCH   8   9
ENDBRANCH   6   7
ENDBRANCH   4   5
ENDBRANCH   1   3
BRANCH   2  13
ATOM     13  C   UNL     1      -9.234  -2.558  -0.144  0.00  0.00    +0.000 C 
BRANCH  13  14
ATOM     14  O   UNL     1     -10.092  -2.396   0.920  0.00  0.00    +0.000 OA
ATOM     15  H   UNL     1      -9.938  -1.553   1.378  0.00  0.00    +0.000 HD
ENDBRANCH  13  14
BRANCH  13  16
ATOM     16  C   UNL     1      -9.683  -3.281  -1.280  0.00  0.00    +0.000 C 
ATOM     17  C   UNL     1     -10.062  -3.892  -2.241  0.00  0.00    +0.000 C 
BRANCH  17  18
ATOM     18  C   UNL     1     -10.546  -4.670  -3.468  0.00  0.00    +0.000 C 
ATOM     19  C   UNL     1     -10.925  -5.280  -4.430  0.00  0.00    +0.000 C 
BRANCH  19  20
ATOM     20  C   UNL     1     -11.373  -6.002  -5.568  0.00  0.00    +0.000 C 
BRANCH  20  21
ATOM     21  C   UNL     1     -11.095  -7.382  -5.776  0.00  0.00    +0.000 C 
ATOM     22  C   UNL     1     -10.847  -8.677  -5.982  0.00  0.00    +0.000 C 
ENDBRANCH  20  21
BRANCH  20  23
ATOM     23  O   UNL     1     -12.113  -5.330  -6.520  0.00  0.00    +0.000 OA
ATOM     24  H   UNL     1     -11.577  -5.099  -7.298  0.00  0.00    +0.000 HD
ENDBRANCH  20  23
ENDBRANCH  19  20
ENDBRANCH  17  18
ENDBRANCH  13  16
ENDBRANCH   2  13
TORSDOF 12
ENDMDL
MODEL 2
REMARK VINA RESULT:      -4.6      2.875      3.156
REMARK  Name = 86311066_OplopantriolA.pdbqt.pdb
REMARK  12 active torsions:
REMARK  status: ('A' for Active; 'I' for Inactive)
REMARK    1  A    between atoms: C_1  and  C_3
REMARK    2  A    between atoms: C_2  and  C_13
REMARK    3  A    between atoms: C_4  and  C_5
REMARK    4  A    between atoms: C_6  and  C_7
REMARK    5  A    between atoms: C_8  and  C_9
REMARK    6  A    between atoms: C_10  and  O_11
REMARK    7  A    between atoms: C_13  and  O_14
REMARK    8  A    between atoms: C_13  and  C_16
REMARK    9  A    between atoms: C_17  and  C_18
REMARK   10  A    between atoms: C_19  and  C_20
REMARK   11  A    between atoms: C_20  and  C_21
REMARK   12  A    between atoms: C_20  and  O_23
REMARK                            x       y       z     vdW  Elec       q    Type
REMARK                         _______ _______ _______ _____ _____    ______ ____
ROOT
ATOM      1  C   UNL     1      -8.253   0.147   0.104  0.00  0.00    +0.000 C 
ATOM      2  C   UNL     1      -9.443  -0.001   0.028  0.00  0.00    +0.000 C 
ENDROOT
BRANCH   1   3
ATOM      3  C   UNL     1      -6.737   0.336   0.203  0.00  0.00    +0.000 C 
ATOM      4  C   UNL     1      -5.220   0.526   0.302  0.00  0.00    +0.000 C 
BRANCH   4   5
ATOM      5  C   UNL     1      -3.703   0.715   0.399  0.00  0.00    +0.000 C 
ATOM      6  C   UNL     1      -2.186   0.902   0.496  0.00  0.00    +0.000 C 
BRANCH   6   7
ATOM      7  C   UNL     1      -0.669   1.090   0.593  0.00  0.00    +0.000 C 
ATOM      8  C   UNL     1       0.848   1.278   0.691  0.00  0.00    +0.000 C 
BRANCH   8   9
ATOM      9  C   UNL     1       2.364   1.466   0.789  0.00  0.00    +0.000 C 
ATOM     10  C   UNL     1       3.881   1.653   0.889  0.00  0.00    +0.000 C 
BRANCH  10  11
ATOM     11  O   UNL     1       5.196   1.815   0.974  0.00  0.00    +0.000 OA
ATOM     12  H   UNL     1       5.517   1.523   1.845  0.00  0.00    +0.000 HD
ENDBRANCH  10  11
ENDBRANCH   8   9
ENDBRANCH   6   7
ENDBRANCH   4   5
ENDBRANCH   1   3
BRANCH   2  13
ATOM     13  C   UNL     1     -10.846  -0.174  -0.063  0.00  0.00    +0.000 C 
BRANCH  13  14
ATOM     14  O   UNL     1     -11.641   0.906   0.247  0.00  0.00    +0.000 OA
ATOM     15  H   UNL     1     -12.526   0.823  -0.146  0.00  0.00    +0.000 HD
ENDBRANCH  13  14
BRANCH  13  16
ATOM     16  C   UNL     1     -11.465  -1.390  -0.452  0.00  0.00    +0.000 C 
ATOM     17  C   UNL     1     -11.989  -2.418  -0.782  0.00  0.00    +0.000 C 
BRANCH  17  18
ATOM     18  C   UNL     1     -12.658  -3.729  -1.206  0.00  0.00    +0.000 C 
ATOM     19  C   UNL     1     -13.182  -4.756  -1.537  0.00  0.00    +0.000 C 
BRANCH  19  20
ATOM     20  C   UNL     1     -13.803  -5.972  -1.929  0.00  0.00    +0.000 C 
BRANCH  20  21
ATOM     21  C   UNL     1     -14.263  -6.949  -1.002  0.00  0.00    +0.000 C 
ATOM     22  C   UNL     1     -14.707  -7.858  -0.133  0.00  0.00    +0.000 C 
ENDBRANCH  20  21
BRANCH  20  23
ATOM     23  O   UNL     1     -13.969  -6.218  -3.277  0.00  0.00    +0.000 OA
ATOM     24  H   UNL     1     -14.017  -7.170  -3.468  0.00  0.00    +0.000 HD
ENDBRANCH  20  23
ENDBRANCH  19  20
ENDBRANCH  17  18
ENDBRANCH  13  16
ENDBRANCH   2  13
TORSDOF 12
ENDMDL
MODEL 3
REMARK VINA RESULT:      -4.4     20.532     25.485
REMARK  Name = 86311066_OplopantriolA.pdbqt.pdb
REMARK  12 active torsions:
REMARK  status: ('A' for Active; 'I' for Inactive)
REMARK    1  A    between atoms: C_1  and  C_3
REMARK    2  A    between atoms: C_2  and  C_13
REMARK    3  A    between atoms: C_4  and  C_5
REMARK    4  A    between atoms: C_6  and  C_7
REMARK    5  A    between atoms: C_8  and  C_9
REMARK    6  A    between atoms: C_10  and  O_11
REMARK    7  A    between atoms: C_13  and  O_14
REMARK    8  A    between atoms: C_13  and  C_16
REMARK    9  A    between atoms: C_17  and  C_18
REMARK   10  A    between atoms: C_19  and  C_20
REMARK   11  A    between atoms: C_20  and  C_21
REMARK   12  A    between atoms: C_20  and  O_23
REMARK                            x       y       z     vdW  Elec       q    Type
REMARK                         _______ _______ _______ _____ _____    ______ ____
ROOT
ATOM      1  C   UNL     1       6.468   1.967 -18.537  0.00  0.00    +0.000 C 
ATOM      2  C   UNL     1       7.579   2.424 -18.522  0.00  0.00    +0.000 C 
ENDROOT
BRANCH   1   3
ATOM      3  C   UNL     1       5.053   1.384 -18.556  0.00  0.00    +0.000 C 
ATOM      4  C   UNL     1       3.637   0.801 -18.576  0.00  0.00    +0.000 C 
BRANCH   4   5
ATOM      5  C   UNL     1       2.220   0.218 -18.596  0.00  0.00    +0.000 C 
ATOM      6  C   UNL     1       0.803  -0.362 -18.616  0.00  0.00    +0.000 C 
BRANCH   6   7
ATOM      7  C   UNL     1      -0.614  -0.944 -18.636  0.00  0.00    +0.000 C 
ATOM      8  C   UNL     1      -2.031  -1.525 -18.655  0.00  0.00    +0.000 C 
BRANCH   8   9
ATOM      9  C   UNL     1      -3.448  -2.107 -18.676  0.00  0.00    +0.000 C 
ATOM     10  C   UNL     1      -4.865  -2.688 -18.697  0.00  0.00    +0.000 C 
BRANCH  10  11
ATOM     11  O   UNL     1      -6.093  -3.192 -18.715  0.00  0.00    +0.000 OA
ATOM     12  H   UNL     1      -6.389  -3.393 -17.812  0.00  0.00    +0.000 HD
ENDBRANCH  10  11
ENDBRANCH   8   9
ENDBRANCH   6   7
ENDBRANCH   4   5
ENDBRANCH   1   3
BRANCH   2  13
ATOM     13  C   UNL     1       8.889   2.963 -18.505  0.00  0.00    +0.000 C 
BRANCH  13  14
ATOM     14  O   UNL     1       9.087   4.131 -17.806  0.00  0.00    +0.000 OA
ATOM     15  H   UNL     1       8.370   4.294 -17.171  0.00  0.00    +0.000 HD
ENDBRANCH  13  14
BRANCH  13  16
ATOM     16  C   UNL     1       9.993   2.366 -19.166  0.00  0.00    +0.000 C 
ATOM     17  C   UNL     1      10.928   1.862 -19.725  0.00  0.00    +0.000 C 
BRANCH  17  18
ATOM     18  C   UNL     1      12.122   1.221 -20.439  0.00  0.00    +0.000 C 
ATOM     19  C   UNL     1      13.057   0.718 -20.999  0.00  0.00    +0.000 C 
BRANCH  19  20
ATOM     20  C   UNL     1      14.164   0.125 -21.661  0.00  0.00    +0.000 C 
BRANCH  20  21
ATOM     21  C   UNL     1      14.486  -1.258 -21.561  0.00  0.00    +0.000 C 
ATOM     22  C   UNL     1      14.795  -2.552 -21.454  0.00  0.00    +0.000 C 
ENDBRANCH  20  21
BRANCH  20  23
ATOM     23  O   UNL     1      14.970   0.931 -22.441  0.00  0.00    +0.000 OA
ATOM     24  H   UNL     1      14.499   1.724 -22.749  0.00  0.00    +0.000 HD
ENDBRANCH  20  23
ENDBRANCH  19  20
ENDBRANCH  17  18
ENDBRANCH  13  16
ENDBRANCH   2  13
TORSDOF 12
ENDMDL
MODEL 4
REMARK VINA RESULT:      -4.2      5.166      6.722
REMARK  Name = 86311066_OplopantriolA.pdbqt.pdb
REMARK  12 active torsions:
REMARK  status: ('A' for Active; 'I' for Inactive)
REMARK    1  A    between atoms: C_1  and  C_3
REMARK    2  A    between atoms: C_2  and  C_13
REMARK    3  A    between atoms: C_4  and  C_5
REMARK    4  A    between atoms: C_6  and  C_7
REMARK    5  A    between atoms: C_8  and  C_9
REMARK    6  A    between atoms: C_10  and  O_11
REMARK    7  A    between atoms: C_13  and  O_14
REMARK    8  A    between atoms: C_13  and  C_16
REMARK    9  A    between atoms: C_17  and  C_18
REMARK   10  A    between atoms: C_19  and  C_20
REMARK   11  A    between atoms: C_20  and  C_21
REMARK   12  A    between atoms: C_20  and  O_23
REMARK                            x       y       z     vdW  Elec       q    Type
REMARK                         _______ _______ _______ _____ _____    ______ ____
ROOT
ATOM      1  C   UNL     1      -8.434  -0.330   0.053  0.00  0.00    +0.000 C 
ATOM      2  C   UNL     1      -9.609  -0.566  -0.026  0.00  0.00    +0.000 C 
ENDROOT
BRANCH   1   3
ATOM      3  C   UNL     1      -6.936  -0.029   0.156  0.00  0.00    +0.000 C 
ATOM      4  C   UNL     1      -5.438   0.274   0.259  0.00  0.00    +0.000 C 
BRANCH   4   5
ATOM      5  C   UNL     1      -3.940   0.576   0.361  0.00  0.00    +0.000 C 
ATOM      6  C   UNL     1      -2.443   0.880   0.464  0.00  0.00    +0.000 C 
BRANCH   6   7
ATOM      7  C   UNL     1      -0.945   1.184   0.566  0.00  0.00    +0.000 C 
ATOM      8  C   UNL     1       0.553   1.488   0.669  0.00  0.00    +0.000 C 
BRANCH   8   9
ATOM      9  C   UNL     1       2.051   1.793   0.770  0.00  0.00    +0.000 C 
ATOM     10  C   UNL     1       3.548   2.098   0.871  0.00  0.00    +0.000 C 
BRANCH  10  11
ATOM     11  O   UNL     1       4.846   2.363   0.960  0.00  0.00    +0.000 OA
ATOM     12  H   UNL     1       5.264   1.787   1.622  0.00  0.00    +0.000 HD
ENDBRANCH  10  11
ENDBRANCH   8   9
ENDBRANCH   6   7
ENDBRANCH   4   5
ENDBRANCH   1   3
BRANCH   2  13
ATOM     13  C   UNL     1     -10.995  -0.843  -0.121  0.00  0.00    +0.000 C 
BRANCH  13  14
ATOM     14  O   UNL     1     -11.390  -2.156  -0.005  0.00  0.00    +0.000 OA
ATOM     15  H   UNL     1     -10.818  -2.650   0.606  0.00  0.00    +0.000 HD
ENDBRANCH  13  14
BRANCH  13  16
ATOM     16  C   UNL     1     -11.984   0.153  -0.326  0.00  0.00    +0.000 C 
ATOM     17  C   UNL     1     -12.822   0.995  -0.499  0.00  0.00    +0.000 C 
BRANCH  17  18
ATOM     18  C   UNL     1     -13.891   2.069  -0.717  0.00  0.00    +0.000 C 
ATOM     19  C   UNL     1     -14.729   2.912  -0.889  0.00  0.00    +0.000 C 
BRANCH  19  20
ATOM     20  C   UNL     1     -15.720   3.908  -1.092  0.00  0.00    +0.000 C 
BRANCH  20  21
ATOM     21  C   UNL     1     -15.765   4.741  -2.245  0.00  0.00    +0.000 C 
ATOM     22  C   UNL     1     -15.822   5.527  -3.322  0.00  0.00    +0.000 C 
ENDBRANCH  20  21
BRANCH  20  23
ATOM     23  O   UNL     1     -16.688   4.077  -0.122  0.00  0.00    +0.000 OA
ATOM     24  H   UNL     1     -16.540   3.493   0.642  0.00  0.00    +0.000 HD
ENDBRANCH  20  23
ENDBRANCH  19  20
ENDBRANCH  17  18
ENDBRANCH  13  16
ENDBRANCH   2  13
TORSDOF 12
ENDMDL
MODEL 5
REMARK VINA RESULT:      -4.2      7.760      8.665
REMARK  Name = 86311066_OplopantriolA.pdbqt.pdb
REMARK  12 active torsions:
REMARK  status: ('A' for Active; 'I' for Inactive)
REMARK    1  A    between atoms: C_1  and  C_3
REMARK    2  A    between atoms: C_2  and  C_13
REMARK    3  A    between atoms: C_4  and  C_5
REMARK    4  A    between atoms: C_6  and  C_7
REMARK    5  A    between atoms: C_8  and  C_9
REMARK    6  A    between atoms: C_10  and  O_11
REMARK    7  A    between atoms: C_13  and  O_14
REMARK    8  A    between atoms: C_13  and  C_16
REMARK    9  A    between atoms: C_17  and  C_18
REMARK   10  A    between atoms: C_19  and  C_20
REMARK   11  A    between atoms: C_20  and  C_21
REMARK   12  A    between atoms: C_20  and  O_23
REMARK                            x       y       z     vdW  Elec       q    Type
REMARK                         _______ _______ _______ _____ _____    ______ ____
ROOT
ATOM      1  C   UNL     1      -1.363   0.923   3.123  0.00  0.00    +0.000 C 
ATOM      2  C   UNL     1      -2.336   0.436   3.633  0.00  0.00    +0.000 C 
ENDROOT
BRANCH   1   3
ATOM      3  C   UNL     1      -0.124   1.543   2.472  0.00  0.00    +0.000 C 
ATOM      4  C   UNL     1       1.115   2.164   1.819  0.00  0.00    +0.000 C 
BRANCH   4   5
ATOM      5  C   UNL     1       2.354   2.784   1.167  0.00  0.00    +0.000 C 
ATOM      6  C   UNL     1       3.595   3.402   0.515  0.00  0.00    +0.000 C 
BRANCH   6   7
ATOM      7  C   UNL     1       4.835   4.021  -0.137  0.00  0.00    +0.000 C 
ATOM      8  C   UNL     1       6.075   4.640  -0.789  0.00  0.00    +0.000 C 
BRANCH   8   9
ATOM      9  C   UNL     1       7.315   5.260  -1.440  0.00  0.00    +0.000 C 
ATOM     10  C   UNL     1       8.555   5.881  -2.090  0.00  0.00    +0.000 C 
BRANCH  10  11
ATOM     11  O   UNL     1       9.630   6.418  -2.654  0.00  0.00    +0.000 OA
ATOM     12  H   UNL     1       9.787   7.310  -2.301  0.00  0.00    +0.000 HD
ENDBRANCH  10  11
ENDBRANCH   8   9
ENDBRANCH   6   7
ENDBRANCH   4   5
ENDBRANCH   1   3
BRANCH   2  13
ATOM     13  C   UNL     1      -3.481  -0.139   4.236  0.00  0.00    +0.000 C 
BRANCH  13  14
ATOM     14  O   UNL     1      -4.426   0.718   4.752  0.00  0.00    +0.000 OA
ATOM     15  H   UNL     1      -4.771   0.400   5.603  0.00  0.00    +0.000 HD
ENDBRANCH  13  14
BRANCH  13  16
ATOM     16  C   UNL     1      -3.701  -1.537   4.333  0.00  0.00    +0.000 C 
ATOM     17  C   UNL     1      -3.888  -2.720   4.415  0.00  0.00    +0.000 C 
BRANCH  17  18
ATOM     18  C   UNL     1      -4.128  -4.229   4.519  0.00  0.00    +0.000 C 
ATOM     19  C   UNL     1      -4.317  -5.412   4.601  0.00  0.00    +0.000 C 
BRANCH  19  20
ATOM     20  C   UNL     1      -4.540  -6.811   4.700  0.00  0.00    +0.000 C 
BRANCH  20  21
ATOM     21  C   UNL     1      -3.518  -7.744   5.029  0.00  0.00    +0.000 C 
ATOM     22  C   UNL     1      -2.570  -8.629   5.344  0.00  0.00    +0.000 C 
ENDBRANCH  20  21
BRANCH  20  23
ATOM     23  O   UNL     1      -5.813  -7.289   4.462  0.00  0.00    +0.000 OA
ATOM     24  H   UNL     1      -5.840  -8.261   4.460  0.00  0.00    +0.000 HD
ENDBRANCH  20  23
ENDBRANCH  19  20
ENDBRANCH  17  18
ENDBRANCH  13  16
ENDBRANCH   2  13
TORSDOF 12
ENDMDL
MODEL 6
REMARK VINA RESULT:      -4.1      2.868      3.636
REMARK  Name = 86311066_OplopantriolA.pdbqt.pdb
REMARK  12 active torsions:
REMARK  status: ('A' for Active; 'I' for Inactive)
REMARK    1  A    between atoms: C_1  and  C_3
REMARK    2  A    between atoms: C_2  and  C_13
REMARK    3  A    between atoms: C_4  and  C_5
REMARK    4  A    between atoms: C_6  and  C_7
REMARK    5  A    between atoms: C_8  and  C_9
REMARK    6  A    between atoms: C_10  and  O_11
REMARK    7  A    between atoms: C_13  and  O_14
REMARK    8  A    between atoms: C_13  and  C_16
REMARK    9  A    between atoms: C_17  and  C_18
REMARK   10  A    between atoms: C_19  and  C_20
REMARK   11  A    between atoms: C_20  and  C_21
REMARK   12  A    between atoms: C_20  and  O_23
REMARK                            x       y       z     vdW  Elec       q    Type
REMARK                         _______ _______ _______ _____ _____    ______ ____
ROOT
ATOM      1  C   UNL     1     -10.137  -2.263   0.561  0.00  0.00    +0.000 C 
ATOM      2  C   UNL     1     -11.263  -2.680   0.564  0.00  0.00    +0.000 C 
ENDROOT
BRANCH   1   3
ATOM      3  C   UNL     1      -8.701  -1.731   0.559  0.00  0.00    +0.000 C 
ATOM      4  C   UNL     1      -7.265  -1.199   0.558  0.00  0.00    +0.000 C 
BRANCH   4   5
ATOM      5  C   UNL     1      -5.829  -0.666   0.557  0.00  0.00    +0.000 C 
ATOM      6  C   UNL     1      -4.393  -0.133   0.558  0.00  0.00    +0.000 C 
BRANCH   6   7
ATOM      7  C   UNL     1      -2.957   0.400   0.558  0.00  0.00    +0.000 C 
ATOM      8  C   UNL     1      -1.521   0.933   0.558  0.00  0.00    +0.000 C 
BRANCH   8   9
ATOM      9  C   UNL     1      -0.085   1.465   0.557  0.00  0.00    +0.000 C 
ATOM     10  C   UNL     1       1.351   1.998   0.555  0.00  0.00    +0.000 C 
BRANCH  10  11
ATOM     11  O   UNL     1       2.596   2.460   0.555  0.00  0.00    +0.000 OA
ATOM     12  H   UNL     1       2.601   3.419   0.400  0.00  0.00    +0.000 HD
ENDBRANCH  10  11
ENDBRANCH   8   9
ENDBRANCH   6   7
ENDBRANCH   4   5
ENDBRANCH   1   3
BRANCH   2  13
ATOM     13  C   UNL     1     -12.592  -3.171   0.567  0.00  0.00    +0.000 C 
BRANCH  13  14
ATOM     14  O   UNL     1     -13.438  -2.710   1.550  0.00  0.00    +0.000 OA
ATOM     15  H   UNL     1     -13.241  -1.789   1.788  0.00  0.00    +0.000 HD
ENDBRANCH  13  14
BRANCH  13  16
ATOM     16  C   UNL     1     -13.089  -4.103  -0.381  0.00  0.00    +0.000 C 
ATOM     17  C   UNL     1     -13.510  -4.890  -1.183  0.00  0.00    +0.000 C 
BRANCH  17  18
ATOM     18  C   UNL     1     -14.049  -5.894  -2.205  0.00  0.00    +0.000 C 
ATOM     19  C   UNL     1     -14.473  -6.681  -3.007  0.00  0.00    +0.000 C 
BRANCH  19  20
ATOM     20  C   UNL     1     -14.973  -7.613  -3.955  0.00  0.00    +0.000 C 
BRANCH  20  21
ATOM     21  C   UNL     1     -14.435  -8.919  -4.125  0.00  0.00    +0.000 C 
ATOM     22  C   UNL     1     -13.943 -10.149  -4.294  0.00  0.00    +0.000 C 
ENDBRANCH  20  21
BRANCH  20  23
ATOM     23  O   UNL     1     -16.034  -7.232  -4.751  0.00  0.00    +0.000 OA
ATOM     24  H   UNL     1     -16.630  -6.616  -4.290  0.00  0.00    +0.000 HD
ENDBRANCH  20  23
ENDBRANCH  19  20
ENDBRANCH  17  18
ENDBRANCH  13  16
ENDBRANCH   2  13
TORSDOF 12
ENDMDL
MODEL 7
REMARK VINA RESULT:      -4.0      3.937      4.401
REMARK  Name = 86311066_OplopantriolA.pdbqt.pdb
REMARK  12 active torsions:
REMARK  status: ('A' for Active; 'I' for Inactive)
REMARK    1  A    between atoms: C_1  and  C_3
REMARK    2  A    between atoms: C_2  and  C_13
REMARK    3  A    between atoms: C_4  and  C_5
REMARK    4  A    between atoms: C_6  and  C_7
REMARK    5  A    between atoms: C_8  and  C_9
REMARK    6  A    between atoms: C_10  and  O_11
REMARK    7  A    between atoms: C_13  and  O_14
REMARK    8  A    between atoms: C_13  and  C_16
REMARK    9  A    between atoms: C_17  and  C_18
REMARK   10  A    between atoms: C_19  and  C_20
REMARK   11  A    between atoms: C_20  and  C_21
REMARK   12  A    between atoms: C_20  and  O_23
REMARK                            x       y       z     vdW  Elec       q    Type
REMARK                         _______ _______ _______ _____ _____    ______ ____
ROOT
ATOM      1  C   UNL     1      -9.265  -2.199   0.467  0.00  0.00    +0.000 C 
ATOM      2  C   UNL     1     -10.377  -2.653   0.443  0.00  0.00    +0.000 C 
ENDROOT
BRANCH   1   3
ATOM      3  C   UNL     1      -7.847  -1.622   0.499  0.00  0.00    +0.000 C 
ATOM      4  C   UNL     1      -6.429  -1.044   0.532  0.00  0.00    +0.000 C 
BRANCH   4   5
ATOM      5  C   UNL     1      -5.011  -0.465   0.564  0.00  0.00    +0.000 C 
ATOM      6  C   UNL     1      -3.594   0.115   0.596  0.00  0.00    +0.000 C 
BRANCH   6   7
ATOM      7  C   UNL     1      -2.177   0.695   0.627  0.00  0.00    +0.000 C 
ATOM      8  C   UNL     1      -0.760   1.275   0.659  0.00  0.00    +0.000 C 
BRANCH   8   9
ATOM      9  C   UNL     1       0.657   1.855   0.692  0.00  0.00    +0.000 C 
ATOM     10  C   UNL     1       2.075   2.434   0.725  0.00  0.00    +0.000 C 
BRANCH  10  11
ATOM     11  O   UNL     1       3.303   2.937   0.753  0.00  0.00    +0.000 OA
ATOM     12  H   UNL     1       3.387   3.661   0.110  0.00  0.00    +0.000 HD
ENDBRANCH  10  11
ENDBRANCH   8   9
ENDBRANCH   6   7
ENDBRANCH   4   5
ENDBRANCH   1   3
BRANCH   2  13
ATOM     13  C   UNL     1     -11.689  -3.186   0.414  0.00  0.00    +0.000 C 
BRANCH  13  14
ATOM     14  O   UNL     1     -12.736  -2.295   0.338  0.00  0.00    +0.000 OA
ATOM     15  H   UNL     1     -12.500  -1.509  -0.183  0.00  0.00    +0.000 HD
ENDBRANCH  13  14
BRANCH  13  16
ATOM     16  C   UNL     1     -11.976  -4.574   0.460  0.00  0.00    +0.000 C 
ATOM     17  C   UNL     1     -12.217  -5.750   0.498  0.00  0.00    +0.000 C 
BRANCH  17  18
ATOM     18  C   UNL     1     -12.523  -7.249   0.545  0.00  0.00    +0.000 C 
ATOM     19  C   UNL     1     -12.763  -8.425   0.583  0.00  0.00    +0.000 C 
BRANCH  19  20
ATOM     20  C   UNL     1     -13.046  -9.816   0.627  0.00  0.00    +0.000 C 
BRANCH  20  21
ATOM     21  C   UNL     1     -12.155 -10.811   0.137  0.00  0.00    +0.000 C 
ATOM     22  C   UNL     1     -11.327 -11.755  -0.315  0.00  0.00    +0.000 C 
ENDBRANCH  20  21
BRANCH  20  23
ATOM     23  O   UNL     1     -14.247 -10.222   1.173  0.00  0.00    +0.000 OA
ATOM     24  H   UNL     1     -14.542  -9.627   1.883  0.00  0.00    +0.000 HD
ENDBRANCH  20  23
ENDBRANCH  19  20
ENDBRANCH  17  18
ENDBRANCH  13  16
ENDBRANCH   2  13
TORSDOF 12
ENDMDL
MODEL 8
REMARK VINA RESULT:      -3.9     22.285     27.106
REMARK  Name = 86311066_OplopantriolA.pdbqt.pdb
REMARK  12 active torsions:
REMARK  status: ('A' for Active; 'I' for Inactive)
REMARK    1  A    between atoms: C_1  and  C_3
REMARK    2  A    between atoms: C_2  and  C_13
REMARK    3  A    between atoms: C_4  and  C_5
REMARK    4  A    between atoms: C_6  and  C_7
REMARK    5  A    between atoms: C_8  and  C_9
REMARK    6  A    between atoms: C_10  and  O_11
REMARK    7  A    between atoms: C_13  and  O_14
REMARK    8  A    between atoms: C_13  and  C_16
REMARK    9  A    between atoms: C_17  and  C_18
REMARK   10  A    between atoms: C_19  and  C_20
REMARK   11  A    between atoms: C_20  and  C_21
REMARK   12  A    between atoms: C_20  and  O_23
REMARK                            x       y       z     vdW  Elec       q    Type
REMARK                         _______ _______ _______ _____ _____    ______ ____
ROOT
ATOM      1  C   UNL     1       8.573   1.612 -19.053  0.00  0.00    +0.000 C 
ATOM      2  C   UNL     1       9.738   1.899 -19.103  0.00  0.00    +0.000 C 
ENDROOT
BRANCH   1   3
ATOM      3  C   UNL     1       7.088   1.244 -18.990  0.00  0.00    +0.000 C 
ATOM      4  C   UNL     1       5.603   0.875 -18.925  0.00  0.00    +0.000 C 
BRANCH   4   5
ATOM      5  C   UNL     1       4.118   0.505 -18.862  0.00  0.00    +0.000 C 
ATOM      6  C   UNL     1       2.633   0.134 -18.796  0.00  0.00    +0.000 C 
BRANCH   6   7
ATOM      7  C   UNL     1       1.149  -0.237 -18.732  0.00  0.00    +0.000 C 
ATOM      8  C   UNL     1      -0.336  -0.607 -18.667  0.00  0.00    +0.000 C 
BRANCH   8   9
ATOM      9  C   UNL     1      -1.821  -0.978 -18.604  0.00  0.00    +0.000 C 
ATOM     10  C   UNL     1      -3.306  -1.348 -18.540  0.00  0.00    +0.000 C 
BRANCH  10  11
ATOM     11  O   UNL     1      -4.593  -1.669 -18.485  0.00  0.00    +0.000 OA
ATOM     12  H   UNL     1      -5.004  -1.282 -17.693  0.00  0.00    +0.000 HD
ENDBRANCH  10  11
ENDBRANCH   8   9
ENDBRANCH   6   7
ENDBRANCH   4   5
ENDBRANCH   1   3
BRANCH   2  13
ATOM     13  C   UNL     1      11.112   2.240 -19.163  0.00  0.00    +0.000 C 
BRANCH  13  14
ATOM     14  O   UNL     1      11.693   2.743 -18.021  0.00  0.00    +0.000 OA
ATOM     15  H   UNL     1      11.192   3.497 -17.667  0.00  0.00    +0.000 HD
ENDBRANCH  13  14
BRANCH  13  16
ATOM     16  C   UNL     1      11.910   2.089 -20.326  0.00  0.00    +0.000 C 
ATOM     17  C   UNL     1      12.584   1.963 -21.311  0.00  0.00    +0.000 C 
BRANCH  17  18
ATOM     18  C   UNL     1      13.445   1.804 -22.568  0.00  0.00    +0.000 C 
ATOM     19  C   UNL     1      14.120   1.680 -23.553  0.00  0.00    +0.000 C 
BRANCH  19  20
ATOM     20  C   UNL     1      14.917   1.534 -24.719  0.00  0.00    +0.000 C 
BRANCH  20  21
ATOM     21  C   UNL     1      15.644   2.606 -25.307  0.00  0.00    +0.000 C 
ATOM     22  C   UNL     1      16.313   3.620 -25.861  0.00  0.00    +0.000 C 
ENDBRANCH  20  21
BRANCH  20  23
ATOM     23  O   UNL     1      14.990   0.289 -25.311  0.00  0.00    +0.000 OA
ATOM     24  H   UNL     1      14.108  -0.061 -25.526  0.00  0.00    +0.000 HD
ENDBRANCH  20  23
ENDBRANCH  19  20
ENDBRANCH  17  18
ENDBRANCH  13  16
ENDBRANCH   2  13
TORSDOF 12
ENDMDL
MODEL 9
REMARK VINA RESULT:      -3.9     21.066     22.816
REMARK  Name = 86311066_OplopantriolA.pdbqt.pdb
REMARK  12 active torsions:
REMARK  status: ('A' for Active; 'I' for Inactive)
REMARK    1  A    between atoms: C_1  and  C_3
REMARK    2  A    between atoms: C_2  and  C_13
REMARK    3  A    between atoms: C_4  and  C_5
REMARK    4  A    between atoms: C_6  and  C_7
REMARK    5  A    between atoms: C_8  and  C_9
REMARK    6  A    between atoms: C_10  and  O_11
REMARK    7  A    between atoms: C_13  and  O_14
REMARK    8  A    between atoms: C_13  and  C_16
REMARK    9  A    between atoms: C_17  and  C_18
REMARK   10  A    between atoms: C_19  and  C_20
REMARK   11  A    between atoms: C_20  and  C_21
REMARK   12  A    between atoms: C_20  and  O_23
REMARK                            x       y       z     vdW  Elec       q    Type
REMARK                         _______ _______ _______ _____ _____    ______ ____
ROOT
ATOM      1  C   UNL     1       0.741 -13.922 -20.019  0.00  0.00    +0.000 C 
ATOM      2  C   UNL     1       0.274 -13.640 -21.089  0.00  0.00    +0.000 C 
ENDROOT
BRANCH   1   3
ATOM      3  C   UNL     1       1.335 -14.281 -18.654  0.00  0.00    +0.000 C 
ATOM      4  C   UNL     1       1.928 -14.641 -17.289  0.00  0.00    +0.000 C 
BRANCH   4   5
ATOM      5  C   UNL     1       2.521 -15.000 -15.923  0.00  0.00    +0.000 C 
ATOM      6  C   UNL     1       3.116 -15.358 -14.557  0.00  0.00    +0.000 C 
BRANCH   6   7
ATOM      7  C   UNL     1       3.710 -15.716 -13.192  0.00  0.00    +0.000 C 
ATOM      8  C   UNL     1       4.304 -16.074 -11.826  0.00  0.00    +0.000 C 
BRANCH   8   9
ATOM      9  C   UNL     1       4.898 -16.434 -10.461  0.00  0.00    +0.000 C 
ATOM     10  C   UNL     1       5.493 -16.793  -9.096  0.00  0.00    +0.000 C 
BRANCH  10  11
ATOM     11  O   UNL     1       6.007 -17.104  -7.913  0.00  0.00    +0.000 OA
ATOM     12  H   UNL     1       6.283 -16.300  -7.441  0.00  0.00    +0.000 HD
ENDBRANCH  10  11
ENDBRANCH   8   9
ENDBRANCH   6   7
ENDBRANCH   4   5
ENDBRANCH   1   3
BRANCH   2  13
ATOM     13  C   UNL     1      -0.276 -13.306 -22.351  0.00  0.00    +0.000 C 
BRANCH  13  14
ATOM     14  O   UNL     1       0.480 -13.584 -23.467  0.00  0.00    +0.000 OA
ATOM     15  H   UNL     1      -0.036 -13.477 -24.284  0.00  0.00    +0.000 HD
ENDBRANCH  13  14
BRANCH  13  16
ATOM     16  C   UNL     1      -1.551 -12.707 -22.520  0.00  0.00    +0.000 C 
ATOM     17  C   UNL     1      -2.629 -12.200 -22.663  0.00  0.00    +0.000 C 
BRANCH  17  18
ATOM     18  C   UNL     1      -4.005 -11.553 -22.842  0.00  0.00    +0.000 C 
ATOM     19  C   UNL     1      -5.084 -11.045 -22.983  0.00  0.00    +0.000 C 
BRANCH  19  20
ATOM     20  C   UNL     1      -6.361 -10.446 -23.150  0.00  0.00    +0.000 C 
BRANCH  20  21
ATOM     21  C   UNL     1      -6.694  -9.610 -24.252  0.00  0.00    +0.000 C 
ATOM     22  C   UNL     1      -6.991  -8.820 -25.286  0.00  0.00    +0.000 C 
ENDBRANCH  20  21
BRANCH  20  23
ATOM     23  O   UNL     1      -7.327 -10.687 -22.194  0.00  0.00    +0.000 OA
ATOM     24  H   UNL     1      -7.001 -11.272 -21.489  0.00  0.00    +0.000 HD
ENDBRANCH  20  23
ENDBRANCH  19  20
ENDBRANCH  17  18
ENDBRANCH  13  16
ENDBRANCH   2  13
TORSDOF 12
ENDMDL
