MODEL 1
REMARK VINA RESULT:      -8.1      0.000      0.000
REMARK  Name = 91746246_sitosterol.pdbqt.pdb
REMARK  10 active torsions:
REMARK  status: ('A' for Active; 'I' for Inactive)
REMARK    1  A    between atoms: C_5  and  C_20
REMARK    2  A    between atoms: C_19  and  O_30
REMARK    3  A    between atoms: C_20  and  C_22
REMARK    4  A    between atoms: C_23  and  C_24
REMARK    5  A    between atoms: C_24  and  C_28
REMARK    6  A    between atoms: O_30  and  C_32
REMARK    7  A    between atoms: C_32  and  C_33
REMARK    8  A    between atoms: C_34  and  C_35
REMARK    9  A    between atoms: C_38  and  O_41
REMARK   10  A    between atoms: C_40  and  O_43
REMARK                            x       y       z     vdW  Elec       q    Type
REMARK                         _______ _______ _______ _____ _____    ______ ____
ROOT
ATOM      1  C   UNL     1       3.699   2.370   1.227  0.00  0.00    +0.000 C 
ATOM      2  C   UNL     1       4.756   2.681   2.415  0.00  0.00    +0.000 C 
ATOM      3  C   UNL     1       6.177   2.983   2.149  0.00  0.00    +0.000 C 
ATOM      4  C   UNL     1       6.778   3.294   0.801  0.00  0.00    +0.000 C 
ATOM      5  C   UNL     1       2.467   3.161   1.647  0.00  0.00    +0.000 C 
ATOM      6  C   UNL     1       4.358   2.850   0.013  0.00  0.00    +0.000 C 
ATOM      7  C   UNL     1       8.290   3.551   0.572  0.00  0.00    +0.000 C 
ATOM      8  C   UNL     1       4.049   3.390   3.438  0.00  0.00    +0.000 C 
ATOM      9  C   UNL     1       5.791   3.260  -0.220  0.00  0.00    +0.000 C 
ATOM     10  C   UNL     1       2.661   3.705   2.951  0.00  0.00    +0.000 C 
ATOM     11  C   UNL     1       7.098   3.159   3.210  0.00  0.00    +0.000 C 
ATOM     12  C   UNL     1       3.423   0.843   1.255  0.00  0.00    +0.000 C 
ATOM     13  C   UNL     1       9.127   3.909   1.949  0.00  0.00    +0.000 C 
ATOM     14  C   UNL     1       8.490   4.756  -0.286  0.00  0.00    +0.000 C 
ATOM     15  C   UNL     1       8.519   3.612   3.056  0.00  0.00    +0.000 C 
ATOM     16  C   UNL     1       8.940   2.278  -0.045  0.00  0.00    +0.000 C 
ATOM     17  C   UNL     1       9.886   5.138   1.909  0.00  0.00    +0.000 C 
ATOM     18  C   UNL     1       9.319   6.043  -0.140  0.00  0.00    +0.000 C 
ATOM     19  C   UNL     1      10.100   6.269   1.044  0.00  0.00    +0.000 C 
ENDROOT
BRANCH   5  20
ATOM     20  C   UNL     1       1.220   3.135   0.951  0.00  0.00    +0.000 C 
ATOM     21  C   UNL     1       0.859   4.159  -0.091  0.00  0.00    +0.000 C 
BRANCH  20  22
ATOM     22  C   UNL     1       0.157   2.293   1.383  0.00  0.00    +0.000 C 
ATOM     23  C   UNL     1      -0.991   1.386   1.852  0.00  0.00    +0.000 C 
BRANCH  23  24
ATOM     24  C   UNL     1      -2.050   0.542   2.304  0.00  0.00    +0.000 C 
ATOM     25  C   UNL     1      -2.736  -0.352   1.395  0.00  0.00    +0.000 C 
ATOM     26  C   UNL     1      -3.891  -1.236   1.811  0.00  0.00    +0.000 C 
ATOM     27  C   UNL     1      -2.353  -0.486  -0.065  0.00  0.00    +0.000 C 
BRANCH  24  28
ATOM     28  C   UNL     1      -2.440   0.580   3.669  0.00  0.00    +0.000 C 
ATOM     29  C   UNL     1      -2.866   0.552   5.141  0.00  0.00    +0.000 C 
ENDBRANCH  24  28
ENDBRANCH  23  24
ENDBRANCH  20  22
ENDBRANCH   5  20
BRANCH  19  30
ATOM     30  O   UNL     1      11.382   6.804   0.960  0.00  0.00    +0.000 OA
BRANCH  30  32
ATOM     31  O   UNL     1      10.930   9.084   1.045  0.00  0.00    +0.000 OA
ATOM     32  C   UNL     1      11.361   8.085   0.489  0.00  0.00    +0.000 C 
BRANCH  32  33
ATOM     33  C   UNL     1      11.969   8.178  -0.816  0.00  0.00    +0.000 C 
ATOM     34  C   UNL     1      12.479   8.237  -1.902  0.00  0.00    +0.000 C 
BRANCH  34  35
ATOM     35  C   UNL     1      13.090   8.288  -3.190  0.00  0.00    +0.000 A 
ATOM     36  C   UNL     1      12.351   8.722  -4.289  0.00  0.00    +0.000 A 
ATOM     37  C   UNL     1      14.417   7.899  -3.349  0.00  0.00    +0.000 A 
ATOM     38  C   UNL     1      12.930   8.775  -5.560  0.00  0.00    +0.000 A 
ATOM     39  C   UNL     1      15.007   7.945  -4.610  0.00  0.00    +0.000 A 
ATOM     40  C   UNL     1      14.262   8.380  -5.706  0.00  0.00    +0.000 A 
BRANCH  38  41
ATOM     41  O   UNL     1      12.273   9.188  -6.693  0.00  0.00    +0.000 OA
ATOM     42  C   UNL     1      11.579  10.404  -6.581  0.00  0.00    +0.000 C 
ENDBRANCH  38  41
BRANCH  40  43
ATOM     43  O   UNL     1      14.846   8.422  -6.942  0.00  0.00    +0.000 OA
ATOM     44  H   UNL     1      14.529   7.660  -7.463  0.00  0.00    +0.000 HD
ENDBRANCH  40  43
ENDBRANCH  34  35
ENDBRANCH  32  33
ENDBRANCH  30  32
ENDBRANCH  19  30
TORSDOF 10
ENDMDL
MODEL 2
REMARK VINA RESULT:      -7.8     10.388     19.659
REMARK  Name = 91746246_sitosterol.pdbqt.pdb
REMARK  10 active torsions:
REMARK  status: ('A' for Active; 'I' for Inactive)
REMARK    1  A    between atoms: C_5  and  C_20
REMARK    2  A    between atoms: C_19  and  O_30
REMARK    3  A    between atoms: C_20  and  C_22
REMARK    4  A    between atoms: C_23  and  C_24
REMARK    5  A    between atoms: C_24  and  C_28
REMARK    6  A    between atoms: O_30  and  C_32
REMARK    7  A    between atoms: C_32  and  C_33
REMARK    8  A    between atoms: C_34  and  C_35
REMARK    9  A    between atoms: C_38  and  O_41
REMARK   10  A    between atoms: C_40  and  O_43
REMARK                            x       y       z     vdW  Elec       q    Type
REMARK                         _______ _______ _______ _____ _____    ______ ____
ROOT
ATOM      1  C   UNL     1      -4.519  -0.638   2.491  0.00  0.00    +0.000 C 
ATOM      2  C   UNL     1      -5.065  -1.080   1.031  0.00  0.00    +0.000 C 
ATOM      3  C   UNL     1      -6.503  -1.260   0.747  0.00  0.00    +0.000 C 
ATOM      4  C   UNL     1      -7.642  -0.831   1.638  0.00  0.00    +0.000 C 
ATOM      5  C   UNL     1      -3.455   0.401   2.160  0.00  0.00    +0.000 C 
ATOM      6  C   UNL     1      -5.698  -0.117   3.183  0.00  0.00    +0.000 C 
ATOM      7  C   UNL     1      -9.136  -1.096   1.314  0.00  0.00    +0.000 C 
ATOM      8  C   UNL     1      -4.210  -0.475   0.056  0.00  0.00    +0.000 C 
ATOM      9  C   UNL     1      -7.160  -0.216   2.824  0.00  0.00    +0.000 C 
ATOM     10  C   UNL     1      -3.248   0.450   0.750  0.00  0.00    +0.000 C 
ATOM     11  C   UNL     1      -6.946  -1.738  -0.511  0.00  0.00    +0.000 C 
ATOM     12  C   UNL     1      -3.891  -1.899   3.141  0.00  0.00    +0.000 C 
ATOM     13  C   UNL     1      -9.423  -1.468  -0.268  0.00  0.00    +0.000 C 
ATOM     14  C   UNL     1      -9.944   0.139   1.539  0.00  0.00    +0.000 C 
ATOM     15  C   UNL     1      -8.376  -1.815  -0.953  0.00  0.00    +0.000 C 
ATOM     16  C   UNL     1      -9.643  -2.293   2.169  0.00  0.00    +0.000 C 
ATOM     17  C   UNL     1     -10.412  -0.645  -0.928  0.00  0.00    +0.000 C 
ATOM     18  C   UNL     1     -10.936   0.935   0.675  0.00  0.00    +0.000 C 
ATOM     19  C   UNL     1     -11.218   0.520  -0.671  0.00  0.00    +0.000 C 
ENDROOT
BRANCH   5  20
ATOM     20  C   UNL     1      -2.617   1.030   3.131  0.00  0.00    +0.000 C 
ATOM     21  C   UNL     1      -3.163   1.622   4.402  0.00  0.00    +0.000 C 
BRANCH  20  22
ATOM     22  C   UNL     1      -1.264   1.350   2.832  0.00  0.00    +0.000 C 
ATOM     23  C   UNL     1       0.199   1.694   2.509  0.00  0.00    +0.000 C 
BRANCH  23  24
ATOM     24  C   UNL     1       1.563   2.006   2.225  0.00  0.00    +0.000 C 
ATOM     25  C   UNL     1       1.918   2.892   1.137  0.00  0.00    +0.000 C 
ATOM     26  C   UNL     1       3.347   3.223   0.766  0.00  0.00    +0.000 C 
ATOM     27  C   UNL     1       0.883   3.575   0.267  0.00  0.00    +0.000 C 
BRANCH  24  28
ATOM     28  C   UNL     1       2.591   1.436   3.023  0.00  0.00    +0.000 C 
ATOM     29  C   UNL     1       3.701   0.767   3.840  0.00  0.00    +0.000 C 
ENDBRANCH  24  28
ENDBRANCH  23  24
ENDBRANCH  20  22
ENDBRANCH   5  20
BRANCH  19  30
ATOM     30  O   UNL     1     -12.518   0.548  -1.166  0.00  0.00    +0.000 OA
BRANCH  30  32
ATOM     31  O   UNL     1     -14.282   0.572   0.348  0.00  0.00    +0.000 OA
ATOM     32  C   UNL     1     -13.404   0.003  -0.283  0.00  0.00    +0.000 C 
BRANCH  32  33
ATOM     33  C   UNL     1     -13.227  -1.424  -0.168  0.00  0.00    +0.000 C 
ATOM     34  C   UNL     1     -13.076  -2.610  -0.053  0.00  0.00    +0.000 C 
BRANCH  34  35
ATOM     35  C   UNL     1     -12.892  -4.016   0.101  0.00  0.00    +0.000 A 
ATOM     36  C   UNL     1     -11.938  -4.494   0.998  0.00  0.00    +0.000 A 
ATOM     37  C   UNL     1     -13.657  -4.907  -0.647  0.00  0.00    +0.000 A 
ATOM     38  C   UNL     1     -11.738  -5.868   1.160  0.00  0.00    +0.000 A 
ATOM     39  C   UNL     1     -13.469  -6.278  -0.496  0.00  0.00    +0.000 A 
ATOM     40  C   UNL     1     -12.513  -6.750   0.402  0.00  0.00    +0.000 A 
BRANCH  38  41
ATOM     41  O   UNL     1     -10.820  -6.421   2.018  0.00  0.00    +0.000 OA
ATOM     42  C   UNL     1     -11.046  -6.179   3.383  0.00  0.00    +0.000 C 
ENDBRANCH  38  41
BRANCH  40  43
ATOM     43  O   UNL     1     -12.331  -8.099   0.544  0.00  0.00    +0.000 OA
ATOM     44  H   UNL     1     -11.625  -8.385  -0.066  0.00  0.00    +0.000 HD
ENDBRANCH  40  43
ENDBRANCH  34  35
ENDBRANCH  32  33
ENDBRANCH  30  32
ENDBRANCH  19  30
TORSDOF 10
ENDMDL
MODEL 3
REMARK VINA RESULT:      -7.3      1.583      2.291
REMARK  Name = 91746246_sitosterol.pdbqt.pdb
REMARK  10 active torsions:
REMARK  status: ('A' for Active; 'I' for Inactive)
REMARK    1  A    between atoms: C_5  and  C_20
REMARK    2  A    between atoms: C_19  and  O_30
REMARK    3  A    between atoms: C_20  and  C_22
REMARK    4  A    between atoms: C_23  and  C_24
REMARK    5  A    between atoms: C_24  and  C_28
REMARK    6  A    between atoms: O_30  and  C_32
REMARK    7  A    between atoms: C_32  and  C_33
REMARK    8  A    between atoms: C_34  and  C_35
REMARK    9  A    between atoms: C_38  and  O_41
REMARK   10  A    between atoms: C_40  and  O_43
REMARK                            x       y       z     vdW  Elec       q    Type
REMARK                         _______ _______ _______ _____ _____    ______ ____
ROOT
ATOM      1  C   UNL     1       3.478   2.356   1.373  0.00  0.00    +0.000 C 
ATOM      2  C   UNL     1       4.429   2.797   2.609  0.00  0.00    +0.000 C 
ATOM      3  C   UNL     1       5.860   3.116   2.428  0.00  0.00    +0.000 C 
ATOM      4  C   UNL     1       6.560   3.331   1.109  0.00  0.00    +0.000 C 
ATOM      5  C   UNL     1       2.199   3.144   1.626  0.00  0.00    +0.000 C 
ATOM      6  C   UNL     1       4.220   2.752   0.177  0.00  0.00    +0.000 C 
ATOM      7  C   UNL     1       8.079   3.611   0.977  0.00  0.00    +0.000 C 
ATOM      8  C   UNL     1       3.628   3.569   3.508  0.00  0.00    +0.000 C 
ATOM      9  C   UNL     1       5.658   3.182   0.021  0.00  0.00    +0.000 C 
ATOM     10  C   UNL     1       2.276   3.801   2.890  0.00  0.00    +0.000 C 
ATOM     11  C   UNL     1       6.690   3.407   3.539  0.00  0.00    +0.000 C 
ATOM     12  C   UNL     1       3.234   0.830   1.511  0.00  0.00    +0.000 C 
ATOM     13  C   UNL     1       8.795   4.107   2.378  0.00  0.00    +0.000 C 
ATOM     14  C   UNL     1       8.320   4.745   0.037  0.00  0.00    +0.000 C 
ATOM     15  C   UNL     1       8.108   3.887   3.457  0.00  0.00    +0.000 C 
ATOM     16  C   UNL     1       8.805   2.310   0.524  0.00  0.00    +0.000 C 
ATOM     17  C   UNL     1       9.528   5.351   2.293  0.00  0.00    +0.000 C 
ATOM     18  C   UNL     1       9.106   6.063   0.135  0.00  0.00    +0.000 C 
ATOM     19  C   UNL     1       9.785   6.410   1.353  0.00  0.00    +0.000 C 
ENDROOT
BRANCH   5  20
ATOM     20  C   UNL     1       1.012   3.024   0.841  0.00  0.00    +0.000 C 
ATOM     21  C   UNL     1       0.726   3.928  -0.328  0.00  0.00    +0.000 C 
BRANCH  20  22
ATOM     22  C   UNL     1      -0.073   2.212   1.274  0.00  0.00    +0.000 C 
ATOM     23  C   UNL     1      -1.244   1.334   1.742  0.00  0.00    +0.000 C 
BRANCH  23  24
ATOM     24  C   UNL     1      -2.323   0.504   2.170  0.00  0.00    +0.000 C 
ATOM     25  C   UNL     1      -2.912  -0.478   1.284  0.00  0.00    +0.000 C 
ATOM     26  C   UNL     1      -4.083  -1.354   1.672  0.00  0.00    +0.000 C 
ATOM     27  C   UNL     1      -2.402  -0.720  -0.122  0.00  0.00    +0.000 C 
BRANCH  24  28
ATOM     28  C   UNL     1      -2.830   0.642   3.490  0.00  0.00    +0.000 C 
ATOM     29  C   UNL     1      -3.418   0.736   4.903  0.00  0.00    +0.000 C 
ENDBRANCH  24  28
ENDBRANCH  23  24
ENDBRANCH  20  22
ENDBRANCH   5  20
BRANCH  19  30
ATOM     30  O   UNL     1      11.057   6.973   1.322  0.00  0.00    +0.000 OA
BRANCH  30  32
ATOM     31  O   UNL     1      10.251   9.065   0.704  0.00  0.00    +0.000 OA
ATOM     32  C   UNL     1      11.066   8.157   0.643  0.00  0.00    +0.000 C 
BRANCH  32  33
ATOM     33  C   UNL     1      12.230   8.272  -0.202  0.00  0.00    +0.000 C 
ATOM     34  C   UNL     1      13.193   8.354  -0.915  0.00  0.00    +0.000 C 
BRANCH  34  35
ATOM     35  C   UNL     1      14.331   8.434  -1.771  0.00  0.00    +0.000 A 
ATOM     36  C   UNL     1      15.541   8.912  -1.271  0.00  0.00    +0.000 A 
ATOM     37  C   UNL     1      14.231   8.044  -3.104  0.00  0.00    +0.000 A 
ATOM     38  C   UNL     1      16.666   9.004  -2.095  0.00  0.00    +0.000 A 
ATOM     39  C   UNL     1      15.343   8.130  -3.937  0.00  0.00    +0.000 A 
ATOM     40  C   UNL     1      16.551   8.609  -3.430  0.00  0.00    +0.000 A 
BRANCH  38  41
ATOM     41  O   UNL     1      17.892   9.464  -1.682  0.00  0.00    +0.000 OA
ATOM     42  C   UNL     1      18.494   8.735  -0.644  0.00  0.00    +0.000 C 
ENDBRANCH  38  41
BRANCH  40  43
ATOM     43  O   UNL     1      17.640   8.694  -4.254  0.00  0.00    +0.000 OA
ATOM     44  H   UNL     1      17.871   7.796  -4.559  0.00  0.00    +0.000 HD
ENDBRANCH  40  43
ENDBRANCH  34  35
ENDBRANCH  32  33
ENDBRANCH  30  32
ENDBRANCH  19  30
TORSDOF 10
ENDMDL
MODEL 4
REMARK VINA RESULT:      -7.2      4.060      6.637
REMARK  Name = 91746246_sitosterol.pdbqt.pdb
REMARK  10 active torsions:
REMARK  status: ('A' for Active; 'I' for Inactive)
REMARK    1  A    between atoms: C_5  and  C_20
REMARK    2  A    between atoms: C_19  and  O_30
REMARK    3  A    between atoms: C_20  and  C_22
REMARK    4  A    between atoms: C_23  and  C_24
REMARK    5  A    between atoms: C_24  and  C_28
REMARK    6  A    between atoms: O_30  and  C_32
REMARK    7  A    between atoms: C_32  and  C_33
REMARK    8  A    between atoms: C_34  and  C_35
REMARK    9  A    between atoms: C_38  and  O_41
REMARK   10  A    between atoms: C_40  and  O_43
REMARK                            x       y       z     vdW  Elec       q    Type
REMARK                         _______ _______ _______ _____ _____    ______ ____
ROOT
ATOM      1  C   UNL     1       3.495   2.770   1.245  0.00  0.00    +0.000 C 
ATOM      2  C   UNL     1       4.297   3.212   2.583  0.00  0.00    +0.000 C 
ATOM      3  C   UNL     1       5.651   3.798   2.534  0.00  0.00    +0.000 C 
ATOM      4  C   UNL     1       6.355   4.299   1.297  0.00  0.00    +0.000 C 
ATOM      5  C   UNL     1       2.084   3.282   1.506  0.00  0.00    +0.000 C 
ATOM      6  C   UNL     1       4.203   3.439   0.155  0.00  0.00    +0.000 C 
ATOM      7  C   UNL     1       7.802   4.857   1.297  0.00  0.00    +0.000 C 
ATOM      8  C   UNL     1       3.331   3.709   3.513  0.00  0.00    +0.000 C 
ATOM      9  C   UNL     1       5.544   4.132   0.144  0.00  0.00    +0.000 C 
ATOM     10  C   UNL     1       1.986   3.776   2.840  0.00  0.00    +0.000 C 
ATOM     11  C   UNL     1       6.366   4.087   3.723  0.00  0.00    +0.000 C 
ATOM     12  C   UNL     1       3.530   1.220   1.187  0.00  0.00    +0.000 C 
ATOM     13  C   UNL     1       8.355   5.289   2.791  0.00  0.00    +0.000 C 
ATOM     14  C   UNL     1       7.871   6.126   0.514  0.00  0.00    +0.000 C 
ATOM     15  C   UNL     1       7.674   4.816   3.790  0.00  0.00    +0.000 C 
ATOM     16  C   UNL     1       8.772   3.772   0.743  0.00  0.00    +0.000 C 
ATOM     17  C   UNL     1       8.851   6.643   2.899  0.00  0.00    +0.000 C 
ATOM     18  C   UNL     1       8.398   7.538   0.818  0.00  0.00    +0.000 C 
ATOM     19  C   UNL     1       8.949   7.842   2.109  0.00  0.00    +0.000 C 
ENDROOT
BRANCH   5  20
ATOM     20  C   UNL     1       0.974   3.055   0.637  0.00  0.00    +0.000 C 
ATOM     21  C   UNL     1       0.737   3.882  -0.598  0.00  0.00    +0.000 C 
BRANCH  20  22
ATOM     22  C   UNL     1      -0.099   2.205   1.025  0.00  0.00    +0.000 C 
ATOM     23  C   UNL     1      -1.255   1.285   1.446  0.00  0.00    +0.000 C 
BRANCH  23  24
ATOM     24  C   UNL     1      -2.321   0.417   1.832  0.00  0.00    +0.000 C 
ATOM     25  C   UNL     1      -2.795  -0.627   0.948  0.00  0.00    +0.000 C 
ATOM     26  C   UNL     1      -3.946  -1.547   1.290  0.00  0.00    +0.000 C 
ATOM     27  C   UNL     1      -2.174  -0.895  -0.407  0.00  0.00    +0.000 C 
BRANCH  24  28
ATOM     28  C   UNL     1      -2.928   0.579   3.106  0.00  0.00    +0.000 C 
ATOM     29  C   UNL     1      -3.598   0.820   4.464  0.00  0.00    +0.000 C 
ENDBRANCH  24  28
ENDBRANCH  23  24
ENDBRANCH  20  22
ENDBRANCH   5  20
BRANCH  19  30
ATOM     30  O   UNL     1      10.097   8.620   2.227  0.00  0.00    +0.000 OA
BRANCH  30  32
ATOM     31  O   UNL     1      10.458  10.496   0.901  0.00  0.00    +0.000 OA
ATOM     32  C   UNL     1       9.884   9.898   1.799  0.00  0.00    +0.000 C 
BRANCH  32  33
ATOM     33  C   UNL     1       8.815  10.530   2.532  0.00  0.00    +0.000 C 
ATOM     34  C   UNL     1       7.937  11.063   3.157  0.00  0.00    +0.000 C 
BRANCH  34  35
ATOM     35  C   UNL     1       6.909  11.699   3.911  0.00  0.00    +0.000 A 
ATOM     36  C   UNL     1       5.790  10.969   4.309  0.00  0.00    +0.000 A 
ATOM     37  C   UNL     1       7.018  13.047   4.243  0.00  0.00    +0.000 A 
ATOM     38  C   UNL     1       4.768  11.576   5.044  0.00  0.00    +0.000 A 
ATOM     39  C   UNL     1       6.007  13.665   4.975  0.00  0.00    +0.000 A 
ATOM     40  C   UNL     1       4.890  12.930   5.370  0.00  0.00    +0.000 A 
BRANCH  38  41
ATOM     41  O   UNL     1       3.634  10.931   5.473  0.00  0.00    +0.000 OA
ATOM     42  C   UNL     1       3.821  10.003   6.510  0.00  0.00    +0.000 C 
ENDBRANCH  38  41
BRANCH  40  43
ATOM     43  O   UNL     1       3.900  13.543   6.087  0.00  0.00    +0.000 OA
ATOM     44  H   UNL     1       3.614  12.943   6.801  0.00  0.00    +0.000 HD
ENDBRANCH  40  43
ENDBRANCH  34  35
ENDBRANCH  32  33
ENDBRANCH  30  32
ENDBRANCH  19  30
TORSDOF 10
ENDMDL
MODEL 5
REMARK VINA RESULT:      -7.2     23.063     26.979
REMARK  Name = 91746246_sitosterol.pdbqt.pdb
REMARK  10 active torsions:
REMARK  status: ('A' for Active; 'I' for Inactive)
REMARK    1  A    between atoms: C_5  and  C_20
REMARK    2  A    between atoms: C_19  and  O_30
REMARK    3  A    between atoms: C_20  and  C_22
REMARK    4  A    between atoms: C_23  and  C_24
REMARK    5  A    between atoms: C_24  and  C_28
REMARK    6  A    between atoms: O_30  and  C_32
REMARK    7  A    between atoms: C_32  and  C_33
REMARK    8  A    between atoms: C_34  and  C_35
REMARK    9  A    between atoms: C_38  and  O_41
REMARK   10  A    between atoms: C_40  and  O_43
REMARK                            x       y       z     vdW  Elec       q    Type
REMARK                         _______ _______ _______ _____ _____    ______ ____
ROOT
ATOM      1  C   UNL     1     -11.511  -2.523 -22.349  0.00  0.00    +0.000 C 
ATOM      2  C   UNL     1     -11.185  -1.857 -20.909  0.00  0.00    +0.000 C 
ATOM      3  C   UNL     1      -9.974  -2.200 -20.136  0.00  0.00    +0.000 C 
ATOM      4  C   UNL     1      -8.786  -2.974 -20.650  0.00  0.00    +0.000 C 
ATOM      5  C   UNL     1     -11.988  -1.337 -23.177  0.00  0.00    +0.000 C 
ATOM      6  C   UNL     1     -10.241  -3.107 -22.781  0.00  0.00    +0.000 C 
ATOM      7  C   UNL     1      -7.562  -3.353 -19.776  0.00  0.00    +0.000 C 
ATOM      8  C   UNL     1     -11.654  -0.506 -20.949  0.00  0.00    +0.000 C 
ATOM      9  C   UNL     1      -8.970  -3.354 -22.006  0.00  0.00    +0.000 C 
ATOM     10  C   UNL     1     -12.117  -0.186 -22.345  0.00  0.00    +0.000 C 
ATOM     11  C   UNL     1      -9.761  -1.674 -18.838  0.00  0.00    +0.000 C 
ATOM     12  C   UNL     1     -12.654  -3.549 -22.126  0.00  0.00    +0.000 C 
ATOM     13  C   UNL     1      -7.432  -2.474 -18.385  0.00  0.00    +0.000 C 
ATOM     14  C   UNL     1      -6.292  -3.055 -20.501  0.00  0.00    +0.000 C 
ATOM     15  C   UNL     1      -8.506  -1.835 -18.034  0.00  0.00    +0.000 C 
ATOM     16  C   UNL     1      -7.666  -4.851 -19.367  0.00  0.00    +0.000 C 
ATOM     17  C   UNL     1      -6.163  -1.809 -18.189  0.00  0.00    +0.000 C 
ATOM     18  C   UNL     1      -5.027  -2.254 -20.151  0.00  0.00    +0.000 C 
ATOM     19  C   UNL     1      -4.928  -1.575 -18.889  0.00  0.00    +0.000 C 
ENDROOT
BRANCH   5  20
ATOM     20  C   UNL     1     -12.479  -1.435 -24.514  0.00  0.00    +0.000 C 
ATOM     21  C   UNL     1     -11.562  -1.540 -25.703  0.00  0.00    +0.000 C 
BRANCH  20  22
ATOM     22  C   UNL     1     -13.848  -1.187 -24.812  0.00  0.00    +0.000 C 
ATOM     23  C   UNL     1     -15.327  -0.922 -25.134  0.00  0.00    +0.000 C 
BRANCH  23  24
ATOM     24  C   UNL     1     -16.697  -0.678 -25.451  0.00  0.00    +0.000 C 
ATOM     25  C   UNL     1     -17.091  -0.211 -26.763  0.00  0.00    +0.000 C 
ATOM     26  C   UNL     1     -18.523   0.103 -27.140  0.00  0.00    +0.000 C 
ATOM     27  C   UNL     1     -16.098   0.005 -27.887  0.00  0.00    +0.000 C 
BRANCH  24  28
ATOM     28  C   UNL     1     -17.693  -0.897 -24.462  0.00  0.00    +0.000 C 
ATOM     29  C   UNL     1     -18.804  -1.079 -23.421  0.00  0.00    +0.000 C 
ENDBRANCH  24  28
ENDBRANCH  23  24
ENDBRANCH  20  22
ENDBRANCH   5  20
BRANCH  19  30
ATOM     30  O   UNL     1      -3.742  -1.595 -18.162  0.00  0.00    +0.000 OA
BRANCH  30  32
ATOM     31  O   UNL     1      -3.879   0.043 -16.516  0.00  0.00    +0.000 OA
ATOM     32  C   UNL     1      -3.482  -0.382 -17.591  0.00  0.00    +0.000 C 
BRANCH  32  33
ATOM     33  C   UNL     1      -2.601   0.411 -18.412  0.00  0.00    +0.000 C 
ATOM     34  C   UNL     1      -1.875   1.088 -19.089  0.00  0.00    +0.000 C 
BRANCH  34  35
ATOM     35  C   UNL     1      -1.022   1.907 -19.886  0.00  0.00    +0.000 A 
ATOM     36  C   UNL     1       0.214   1.416 -20.305  0.00  0.00    +0.000 A 
ATOM     37  C   UNL     1      -1.418   3.194 -20.237  0.00  0.00    +0.000 A 
ATOM     38  C   UNL     1       1.067   2.204 -21.082  0.00  0.00    +0.000 A 
ATOM     39  C   UNL     1      -0.578   3.992 -21.010  0.00  0.00    +0.000 A 
ATOM     40  C   UNL     1       0.657   3.495 -21.426  0.00  0.00    +0.000 A 
BRANCH  38  41
ATOM     41  O   UNL     1       2.299   1.799 -21.534  0.00  0.00    +0.000 OA
ATOM     42  C   UNL     1       2.863   0.707 -20.855  0.00  0.00    +0.000 C 
ENDBRANCH  38  41
BRANCH  40  43
ATOM     43  O   UNL     1       1.478   4.284 -22.184  0.00  0.00    +0.000 OA
ATOM     44  H   UNL     1       1.465   5.189 -21.820  0.00  0.00    +0.000 HD
ENDBRANCH  40  43
ENDBRANCH  34  35
ENDBRANCH  32  33
ENDBRANCH  30  32
ENDBRANCH  19  30
TORSDOF 10
ENDMDL
MODEL 6
REMARK VINA RESULT:      -7.1     19.533     21.301
REMARK  Name = 91746246_sitosterol.pdbqt.pdb
REMARK  10 active torsions:
REMARK  status: ('A' for Active; 'I' for Inactive)
REMARK    1  A    between atoms: C_5  and  C_20
REMARK    2  A    between atoms: C_19  and  O_30
REMARK    3  A    between atoms: C_20  and  C_22
REMARK    4  A    between atoms: C_23  and  C_24
REMARK    5  A    between atoms: C_24  and  C_28
REMARK    6  A    between atoms: O_30  and  C_32
REMARK    7  A    between atoms: C_32  and  C_33
REMARK    8  A    between atoms: C_34  and  C_35
REMARK    9  A    between atoms: C_38  and  O_41
REMARK   10  A    between atoms: C_40  and  O_43
REMARK                            x       y       z     vdW  Elec       q    Type
REMARK                         _______ _______ _______ _____ _____    ______ ____
ROOT
ATOM      1  C   UNL     1       4.926  -0.764 -20.059  0.00  0.00    +0.000 C 
ATOM      2  C   UNL     1       5.498  -2.278 -20.138  0.00  0.00    +0.000 C 
ATOM      3  C   UNL     1       6.942  -2.572 -20.228  0.00  0.00    +0.000 C 
ATOM      4  C   UNL     1       8.062  -1.587 -20.004  0.00  0.00    +0.000 C 
ATOM      5  C   UNL     1       3.849  -0.859 -18.986  0.00  0.00    +0.000 C 
ATOM      6  C   UNL     1       6.086   0.050 -19.700  0.00  0.00    +0.000 C 
ATOM      7  C   UNL     1       9.564  -1.940 -20.165  0.00  0.00    +0.000 C 
ATOM      8  C   UNL     1       4.646  -3.097 -19.332  0.00  0.00    +0.000 C 
ATOM      9  C   UNL     1       7.555  -0.298 -19.692  0.00  0.00    +0.000 C 
ATOM     10  C   UNL     1       3.658  -2.221 -18.610  0.00  0.00    +0.000 C 
ATOM     11  C   UNL     1       7.409  -3.900 -20.390  0.00  0.00    +0.000 C 
ATOM     12  C   UNL     1       4.310  -0.440 -21.447  0.00  0.00    +0.000 C 
ATOM     13  C   UNL     1       9.878  -3.560 -20.151  0.00  0.00    +0.000 C 
ATOM     14  C   UNL     1      10.349  -1.418 -19.007  0.00  0.00    +0.000 C 
ATOM     15  C   UNL     1       8.846  -4.324 -20.342  0.00  0.00    +0.000 C 
ATOM     16  C   UNL     1      10.081  -1.381 -21.523  0.00  0.00    +0.000 C 
ATOM     17  C   UNL     1      10.862  -3.991 -19.183  0.00  0.00    +0.000 C 
ATOM     18  C   UNL     1      11.338  -2.054 -18.017  0.00  0.00    +0.000 C 
ATOM     19  C   UNL     1      11.644  -3.455 -18.100  0.00  0.00    +0.000 C 
ENDROOT
BRANCH   5  20
ATOM     20  C   UNL     1       2.988   0.218 -18.615  0.00  0.00    +0.000 C 
ATOM     21  C   UNL     1       3.473   1.396 -17.814  0.00  0.00    +0.000 C 
BRANCH  20  22
ATOM     22  C   UNL     1       1.577   0.113 -18.765  0.00  0.00    +0.000 C 
ATOM     23  C   UNL     1       0.053   0.002 -18.929  0.00  0.00    +0.000 C 
BRANCH  23  24
ATOM     24  C   UNL     1      -1.364  -0.085 -19.076  0.00  0.00    +0.000 C 
ATOM     25  C   UNL     1      -2.145   1.058 -19.502  0.00  0.00    +0.000 C 
ATOM     26  C   UNL     1      -3.651   1.033 -19.635  0.00  0.00    +0.000 C 
ATOM     27  C   UNL     1      -1.517   2.389 -19.860  0.00  0.00    +0.000 C 
BRANCH  24  28
ATOM     28  C   UNL     1      -2.022  -1.313 -18.799  0.00  0.00    +0.000 C 
ATOM     29  C   UNL     1      -2.767  -2.606 -18.448  0.00  0.00    +0.000 C 
ENDBRANCH  24  28
ENDBRANCH  23  24
ENDBRANCH  20  22
ENDBRANCH   5  20
BRANCH  19  30
ATOM     30  O   UNL     1      12.950  -3.908 -17.940  0.00  0.00    +0.000 OA
BRANCH  30  32
ATOM     31  O   UNL     1      13.770  -5.416 -19.510  0.00  0.00    +0.000 OA
ATOM     32  C   UNL     1      13.501  -4.285 -19.130  0.00  0.00    +0.000 C 
BRANCH  32  33
ATOM     33  C   UNL     1      13.732  -3.150 -19.989  0.00  0.00    +0.000 C 
ATOM     34  C   UNL     1      13.915  -2.193 -20.692  0.00  0.00    +0.000 C 
BRANCH  34  35
ATOM     35  C   UNL     1      14.121  -1.047 -21.515  0.00  0.00    +0.000 A 
ATOM     36  C   UNL     1      13.469   0.147 -21.213  0.00  0.00    +0.000 A 
ATOM     37  C   UNL     1      14.965  -1.123 -22.620  0.00  0.00    +0.000 A 
ATOM     38  C   UNL     1      13.653   1.280 -22.010  0.00  0.00    +0.000 A 
ATOM     39  C   UNL     1      15.157  -0.002 -23.424  0.00  0.00    +0.000 A 
ATOM     40  C   UNL     1      14.502   1.189 -23.117  0.00  0.00    +0.000 A 
BRANCH  38  41
ATOM     41  O   UNL     1      13.049   2.493 -21.784  0.00  0.00    +0.000 OA
ATOM     42  C   UNL     1      12.050   2.496 -20.797  0.00  0.00    +0.000 C 
ENDBRANCH  38  41
BRANCH  40  43
ATOM     43  O   UNL     1      14.694   2.287 -23.911  0.00  0.00    +0.000 OA
ATOM     44  H   UNL     1      15.573   2.221 -24.328  0.00  0.00    +0.000 HD
ENDBRANCH  40  43
ENDBRANCH  34  35
ENDBRANCH  32  33
ENDBRANCH  30  32
ENDBRANCH  19  30
TORSDOF 10
ENDMDL
MODEL 7
REMARK VINA RESULT:      -7.0     23.947     28.138
REMARK  Name = 91746246_sitosterol.pdbqt.pdb
REMARK  10 active torsions:
REMARK  status: ('A' for Active; 'I' for Inactive)
REMARK    1  A    between atoms: C_5  and  C_20
REMARK    2  A    between atoms: C_19  and  O_30
REMARK    3  A    between atoms: C_20  and  C_22
REMARK    4  A    between atoms: C_23  and  C_24
REMARK    5  A    between atoms: C_24  and  C_28
REMARK    6  A    between atoms: O_30  and  C_32
REMARK    7  A    between atoms: C_32  and  C_33
REMARK    8  A    between atoms: C_34  and  C_35
REMARK    9  A    between atoms: C_38  and  O_41
REMARK   10  A    between atoms: C_40  and  O_43
REMARK                            x       y       z     vdW  Elec       q    Type
REMARK                         _______ _______ _______ _____ _____    ______ ____
ROOT
ATOM      1  C   UNL     1     -11.763  -3.178 -23.058  0.00  0.00    +0.000 C 
ATOM      2  C   UNL     1     -11.491  -2.056 -21.920  0.00  0.00    +0.000 C 
ATOM      3  C   UNL     1     -10.582  -2.293 -20.781  0.00  0.00    +0.000 C 
ATOM      4  C   UNL     1      -9.614  -3.442 -20.643  0.00  0.00    +0.000 C 
ATOM      5  C   UNL     1     -11.720  -2.374 -24.351  0.00  0.00    +0.000 C 
ATOM      6  C   UNL     1     -10.676  -4.141 -22.892  0.00  0.00    +0.000 C 
ATOM      7  C   UNL     1      -8.720  -3.670 -19.397  0.00  0.00    +0.000 C 
ATOM      8  C   UNL     1     -11.519  -0.780 -22.566  0.00  0.00    +0.000 C 
ATOM      9  C   UNL     1      -9.681  -4.304 -21.770  0.00  0.00    +0.000 C 
ATOM     10  C   UNL     1     -11.630  -0.982 -24.053  0.00  0.00    +0.000 C 
ATOM     11  C   UNL     1     -10.435  -1.330 -19.751  0.00  0.00    +0.000 C 
ATOM     12  C   UNL     1     -13.182  -3.751 -22.799  0.00  0.00    +0.000 C 
ATOM     13  C   UNL     1      -8.560  -2.340 -18.433  0.00  0.00    +0.000 C 
ATOM     14  C   UNL     1      -7.319  -3.976 -19.810  0.00  0.00    +0.000 C 
ATOM     15  C   UNL     1      -9.435  -1.402 -18.636  0.00  0.00    +0.000 C 
ATOM     16  C   UNL     1      -9.335  -4.802 -18.522  0.00  0.00    +0.000 C 
ATOM     17  C   UNL     1      -7.200  -1.937 -18.153  0.00  0.00    +0.000 C 
ATOM     18  C   UNL     1      -5.946  -3.388 -19.443  0.00  0.00    +0.000 C 
ATOM     19  C   UNL     1      -5.855  -2.283 -18.530  0.00  0.00    +0.000 C 
ENDROOT
BRANCH   5  20
ATOM     20  C   UNL     1     -11.994  -2.915 -25.643  0.00  0.00    +0.000 C 
ATOM     21  C   UNL     1     -10.901  -3.372 -26.572  0.00  0.00    +0.000 C 
BRANCH  20  22
ATOM     22  C   UNL     1     -13.292  -2.819 -26.218  0.00  0.00    +0.000 C 
ATOM     23  C   UNL     1     -14.695  -2.714 -26.836  0.00  0.00    +0.000 C 
BRANCH  23  24
ATOM     24  C   UNL     1     -16.005  -2.624 -27.396  0.00  0.00    +0.000 C 
ATOM     25  C   UNL     1     -16.535  -3.677 -28.235  0.00  0.00    +0.000 C 
ATOM     26  C   UNL     1     -17.899  -3.615 -28.887  0.00  0.00    +0.000 C 
ATOM     27  C   UNL     1     -15.767  -4.948 -28.537  0.00  0.00    +0.000 C 
BRANCH  24  28
ATOM     28  C   UNL     1     -16.804  -1.481 -27.125  0.00  0.00    +0.000 C 
ATOM     29  C   UNL     1     -17.613  -0.222 -26.794  0.00  0.00    +0.000 C 
ENDBRANCH  24  28
ENDBRANCH  23  24
ENDBRANCH  20  22
ENDBRANCH   5  20
BRANCH  19  30
ATOM     30  O   UNL     1      -4.864  -2.247 -17.554  0.00  0.00    +0.000 OA
BRANCH  30  32
ATOM     31  O   UNL     1      -2.734  -3.065 -18.004  0.00  0.00    +0.000 OA
ATOM     32  C   UNL     1      -3.615  -2.225 -18.105  0.00  0.00    +0.000 C 
BRANCH  32  33
ATOM     33  C   UNL     1      -3.413  -1.045 -18.909  0.00  0.00    +0.000 C 
ATOM     34  C   UNL     1      -3.244  -0.051 -19.564  0.00  0.00    +0.000 C 
BRANCH  34  35
ATOM     35  C   UNL     1      -3.043   1.138 -20.324  0.00  0.00    +0.000 A 
ATOM     36  C   UNL     1      -1.840   1.834 -20.215  0.00  0.00    +0.000 A 
ATOM     37  C   UNL     1      -4.047   1.607 -21.166  0.00  0.00    +0.000 A 
ATOM     38  C   UNL     1      -1.625   3.004 -20.947  0.00  0.00    +0.000 A 
ATOM     39  C   UNL     1      -3.848   2.772 -21.902  0.00  0.00    +0.000 A 
ATOM     40  C   UNL     1      -2.642   3.464 -21.788  0.00  0.00    +0.000 A 
BRANCH  38  41
ATOM     41  O   UNL     1      -0.472   3.749 -20.897  0.00  0.00    +0.000 OA
ATOM     42  C   UNL     1       0.180   3.770 -19.654  0.00  0.00    +0.000 C 
ENDBRANCH  38  41
BRANCH  40  43
ATOM     43  O   UNL     1      -2.453   4.609 -22.512  0.00  0.00    +0.000 OA
ATOM     44  H   UNL     1      -1.600   5.006 -22.252  0.00  0.00    +0.000 HD
ENDBRANCH  40  43
ENDBRANCH  34  35
ENDBRANCH  32  33
ENDBRANCH  30  32
ENDBRANCH  19  30
TORSDOF 10
ENDMDL
MODEL 8
REMARK VINA RESULT:      -6.9      3.080      5.538
REMARK  Name = 91746246_sitosterol.pdbqt.pdb
REMARK  10 active torsions:
REMARK  status: ('A' for Active; 'I' for Inactive)
REMARK    1  A    between atoms: C_5  and  C_20
REMARK    2  A    between atoms: C_19  and  O_30
REMARK    3  A    between atoms: C_20  and  C_22
REMARK    4  A    between atoms: C_23  and  C_24
REMARK    5  A    between atoms: C_24  and  C_28
REMARK    6  A    between atoms: O_30  and  C_32
REMARK    7  A    between atoms: C_32  and  C_33
REMARK    8  A    between atoms: C_34  and  C_35
REMARK    9  A    between atoms: C_38  and  O_41
REMARK   10  A    between atoms: C_40  and  O_43
REMARK                            x       y       z     vdW  Elec       q    Type
REMARK                         _______ _______ _______ _____ _____    ______ ____
ROOT
ATOM      1  C   UNL     1       3.465   2.376   1.258  0.00  0.00    +0.000 C 
ATOM      2  C   UNL     1       4.424   2.814   2.489  0.00  0.00    +0.000 C 
ATOM      3  C   UNL     1       5.853   3.137   2.300  0.00  0.00    +0.000 C 
ATOM      4  C   UNL     1       6.543   3.360   0.977  0.00  0.00    +0.000 C 
ATOM      5  C   UNL     1       2.186   3.159   1.523  0.00  0.00    +0.000 C 
ATOM      6  C   UNL     1       4.199   2.779   0.059  0.00  0.00    +0.000 C 
ATOM      7  C   UNL     1       8.061   3.645   0.836  0.00  0.00    +0.000 C 
ATOM      8  C   UNL     1       3.627   3.578   3.397  0.00  0.00    +0.000 C 
ATOM      9  C   UNL     1       5.635   3.214  -0.105  0.00  0.00    +0.000 C 
ATOM     10  C   UNL     1       2.270   3.810   2.789  0.00  0.00    +0.000 C 
ATOM     11  C   UNL     1       6.689   3.425   3.406  0.00  0.00    +0.000 C 
ATOM     12  C   UNL     1       3.227   0.848   1.390  0.00  0.00    +0.000 C 
ATOM     13  C   UNL     1       8.785   4.137   2.235  0.00  0.00    +0.000 C 
ATOM     14  C   UNL     1       8.292   4.784  -0.101  0.00  0.00    +0.000 C 
ATOM     15  C   UNL     1       8.105   3.910   3.317  0.00  0.00    +0.000 C 
ATOM     16  C   UNL     1       8.787   2.348   0.372  0.00  0.00    +0.000 C 
ATOM     17  C   UNL     1       9.514   5.382   2.150  0.00  0.00    +0.000 C 
ATOM     18  C   UNL     1       9.075   6.104  -0.001  0.00  0.00    +0.000 C 
ATOM     19  C   UNL     1       9.761   6.447   1.214  0.00  0.00    +0.000 C 
ENDROOT
BRANCH   5  20
ATOM     20  C   UNL     1       0.995   3.039   0.746  0.00  0.00    +0.000 C 
ATOM     21  C   UNL     1       0.649   4.010  -0.351  0.00  0.00    +0.000 C 
BRANCH  20  22
ATOM     22  C   UNL     1      -0.045   2.148   1.131  0.00  0.00    +0.000 C 
ATOM     23  C   UNL     1      -1.170   1.187   1.547  0.00  0.00    +0.000 C 
BRANCH  23  24
ATOM     24  C   UNL     1      -2.222   0.307   1.944  0.00  0.00    +0.000 C 
ATOM     25  C   UNL     1      -2.816   0.396   3.261  0.00  0.00    +0.000 C 
ATOM     26  C   UNL     1      -3.903  -0.538   3.747  0.00  0.00    +0.000 C 
ATOM     27  C   UNL     1      -2.402   1.440   4.277  0.00  0.00    +0.000 C 
BRANCH  24  28
ATOM     28  C   UNL     1      -2.694  -0.674   1.031  0.00  0.00    +0.000 C 
ATOM     29  C   UNL     1      -3.139  -1.735   0.019  0.00  0.00    +0.000 C 
ENDBRANCH  24  28
ENDBRANCH  23  24
ENDBRANCH  20  22
ENDBRANCH   5  20
BRANCH  19  30
ATOM     30  O   UNL     1      11.031   7.014   1.177  0.00  0.00    +0.000 OA
BRANCH  30  32
ATOM     31  O   UNL     1      11.562   8.701  -0.333  0.00  0.00    +0.000 OA
ATOM     32  C   UNL     1      11.002   8.280   0.668  0.00  0.00    +0.000 C 
BRANCH  32  33
ATOM     33  C   UNL     1      10.162   9.147   1.456  0.00  0.00    +0.000 C 
ATOM     34  C   UNL     1       9.477   9.877   2.121  0.00  0.00    +0.000 C 
BRANCH  34  35
ATOM     35  C   UNL     1       8.679  10.749   2.919  0.00  0.00    +0.000 A 
ATOM     36  C   UNL     1       8.884  12.126   2.855  0.00  0.00    +0.000 A 
ATOM     37  C   UNL     1       7.705  10.226   3.765  0.00  0.00    +0.000 A 
ATOM     38  C   UNL     1       8.117  12.998   3.633  0.00  0.00    +0.000 A 
ATOM     39  C   UNL     1       6.934  11.083   4.547  0.00  0.00    +0.000 A 
ATOM     40  C   UNL     1       7.144  12.459   4.478  0.00  0.00    +0.000 A 
BRANCH  38  41
ATOM     41  O   UNL     1       8.256  14.364   3.631  0.00  0.00    +0.000 OA
ATOM     42  C   UNL     1       7.849  15.011   2.453  0.00  0.00    +0.000 C 
ENDBRANCH  38  41
BRANCH  40  43
ATOM     43  O   UNL     1       6.384  13.295   5.250  0.00  0.00    +0.000 OA
ATOM     44  H   UNL     1       6.526  14.212   4.950  0.00  0.00    +0.000 HD
ENDBRANCH  40  43
ENDBRANCH  34  35
ENDBRANCH  32  33
ENDBRANCH  30  32
ENDBRANCH  19  30
TORSDOF 10
ENDMDL
MODEL 9
REMARK VINA RESULT:      -6.9     17.452     22.782
REMARK  Name = 91746246_sitosterol.pdbqt.pdb
REMARK  10 active torsions:
REMARK  status: ('A' for Active; 'I' for Inactive)
REMARK    1  A    between atoms: C_5  and  C_20
REMARK    2  A    between atoms: C_19  and  O_30
REMARK    3  A    between atoms: C_20  and  C_22
REMARK    4  A    between atoms: C_23  and  C_24
REMARK    5  A    between atoms: C_24  and  C_28
REMARK    6  A    between atoms: O_30  and  C_32
REMARK    7  A    between atoms: C_32  and  C_33
REMARK    8  A    between atoms: C_34  and  C_35
REMARK    9  A    between atoms: C_38  and  O_41
REMARK   10  A    between atoms: C_40  and  O_43
REMARK                            x       y       z     vdW  Elec       q    Type
REMARK                         _______ _______ _______ _____ _____    ______ ____
ROOT
ATOM      1  C   UNL     1       0.866  15.833 -21.101  0.00  0.00    +0.000 C 
ATOM      2  C   UNL     1       1.079  14.420 -21.864  0.00  0.00    +0.000 C 
ATOM      3  C   UNL     1       2.412  13.941 -22.281  0.00  0.00    +0.000 C 
ATOM      4  C   UNL     1       3.736  14.525 -21.853  0.00  0.00    +0.000 C 
ATOM      5  C   UNL     1      -0.136  15.485 -20.007  0.00  0.00    +0.000 C 
ATOM      6  C   UNL     1       2.199  16.199 -20.625  0.00  0.00    +0.000 C 
ATOM      7  C   UNL     1       5.108  14.014 -22.366  0.00  0.00    +0.000 C 
ATOM      8  C   UNL     1       0.117  13.502 -21.336  0.00  0.00    +0.000 C 
ATOM      9  C   UNL     1       3.550  15.628 -20.978  0.00  0.00    +0.000 C 
ATOM     10  C   UNL     1      -0.601  14.149 -20.183  0.00  0.00    +0.000 C 
ATOM     11  C   UNL     1       2.559  12.747 -23.029  0.00  0.00    +0.000 C 
ATOM     12  C   UNL     1       0.252  16.818 -22.132  0.00  0.00    +0.000 C 
ATOM     13  C   UNL     1       5.052  12.512 -23.049  0.00  0.00    +0.000 C 
ATOM     14  C   UNL     1       6.060  13.849 -21.228  0.00  0.00    +0.000 C 
ATOM     15  C   UNL     1       3.866  12.096 -23.372  0.00  0.00    +0.000 C 
ATOM     16  C   UNL     1       5.650  14.993 -23.448  0.00  0.00    +0.000 C 
ATOM     17  C   UNL     1       5.973  11.546 -22.495  0.00  0.00    +0.000 C 
ATOM     18  C   UNL     1       6.943  12.690 -20.737  0.00  0.00    +0.000 C 
ATOM     19  C   UNL     1       6.922  11.426 -21.419  0.00  0.00    +0.000 C 
ENDROOT
BRANCH   5  20
ATOM     20  C   UNL     1      -0.709  16.437 -19.110  0.00  0.00    +0.000 C 
ATOM     21  C   UNL     1       0.050  17.642 -18.622  0.00  0.00    +0.000 C 
BRANCH  20  22
ATOM     22  C   UNL     1      -1.933  16.165 -18.438  0.00  0.00    +0.000 C 
ATOM     23  C   UNL     1      -3.256  15.870 -17.714  0.00  0.00    +0.000 C 
BRANCH  23  24
ATOM     24  C   UNL     1      -4.494  15.604 -17.055  0.00  0.00    +0.000 C 
ATOM     25  C   UNL     1      -4.551  15.390 -15.624  0.00  0.00    +0.000 C 
ATOM     26  C   UNL     1      -5.828  15.064 -14.882  0.00  0.00    +0.000 C 
ATOM     27  C   UNL     1      -3.328  15.478 -14.735  0.00  0.00    +0.000 C 
BRANCH  24  28
ATOM     28  C   UNL     1      -5.692  15.546 -17.815  0.00  0.00    +0.000 C 
ATOM     29  C   UNL     1      -6.964  15.422 -18.662  0.00  0.00    +0.000 C 
ENDBRANCH  24  28
ENDBRANCH  23  24
ENDBRANCH  20  22
ENDBRANCH   5  20
BRANCH  19  30
ATOM     30  O   UNL     1       8.101  10.724 -21.652  0.00  0.00    +0.000 OA
BRANCH  30  32
ATOM     31  O   UNL     1       9.413  12.441 -22.513  0.00  0.00    +0.000 OA
ATOM     32  C   UNL     1       9.181  11.557 -21.701  0.00  0.00    +0.000 C 
BRANCH  32  33
ATOM     33  C   UNL     1      10.088  11.312 -20.608  0.00  0.00    +0.000 C 
ATOM     34  C   UNL     1      10.830  11.108 -19.684  0.00  0.00    +0.000 C 
BRANCH  34  35
ATOM     35  C   UNL     1      11.695  10.869 -18.576  0.00  0.00    +0.000 A 
ATOM     36  C   UNL     1      11.165  10.404 -17.373  0.00  0.00    +0.000 A 
ATOM     37  C   UNL     1      13.062  11.104 -18.694  0.00  0.00    +0.000 A 
ATOM     38  C   UNL     1      11.995  10.168 -16.274  0.00  0.00    +0.000 A 
ATOM     39  C   UNL     1      13.901  10.874 -17.606  0.00  0.00    +0.000 A 
ATOM     40  C   UNL     1      13.365  10.410 -16.405  0.00  0.00    +0.000 A 
BRANCH  38  41
ATOM     41  O   UNL     1      11.555   9.714 -15.055  0.00  0.00    +0.000 OA
ATOM     42  C   UNL     1      11.211   8.353 -15.004  0.00  0.00    +0.000 C 
ENDBRANCH  38  41
BRANCH  40  43
ATOM     43  O   UNL     1      14.194  10.188 -15.340  0.00  0.00    +0.000 OA
ATOM     44  H   UNL     1      15.064   9.901 -15.676  0.00  0.00    +0.000 HD
ENDBRANCH  40  43
ENDBRANCH  34  35
ENDBRANCH  32  33
ENDBRANCH  30  32
ENDBRANCH  19  30
TORSDOF 10
ENDMDL
