MODEL 1
REMARK VINA RESULT:      -4.2      0.000      0.000
REMARK  Name = 92041_2Ethoxy5fluorouracil.pdbqt.pdb
REMARK  2 active torsions:
REMARK  status: ('A' for Active; 'I' for Inactive)
REMARK    1  A    between atoms: C_5  and  O_10
REMARK    2  A    between atoms: O_10  and  C_11
REMARK                            x       y       z     vdW  Elec       q    Type
REMARK                         _______ _______ _______ _____ _____    ______ ____
ROOT
ATOM      1  F   UNL     1     -14.539  -1.747  -8.496  0.00  0.00    +0.000 F 
ATOM      2  O   UNL     1     -14.500  -4.452  -9.401  0.00  0.00    +0.000 OA
ATOM      3  N   UNL     1     -15.890  -4.990  -7.652  0.00  0.00    +0.000 N 
ATOM      4  N   UNL     1     -16.805  -3.380  -6.181  0.00  0.00    +0.000 NA
ATOM      5  C   UNL     1     -16.637  -4.622  -6.536  0.00  0.00    +0.000 C 
ATOM      6  C   UNL     1     -15.221  -4.087  -8.482  0.00  0.00    +0.000 C 
ATOM      7  C   UNL     1     -15.457  -2.653  -8.121  0.00  0.00    +0.000 C 
ATOM      8  C   UNL     1     -16.167  -2.579  -7.044  0.00  0.00    +0.000 C 
ATOM      9  H   UNL     1     -15.760  -5.969  -7.859  0.00  0.00    +0.000 HD
ENDROOT
BRANCH   5  10
ATOM     10  O   UNL     1     -17.154  -5.688  -5.882  0.00  0.00    +0.000 OA
BRANCH  10  11
ATOM     11  C   UNL     1     -16.578  -6.001  -4.725  0.00  0.00    +0.000 C 
ATOM     12  C   UNL     1     -15.957  -6.406  -3.385  0.00  0.00    +0.000 C 
ENDBRANCH  10  11
ENDBRANCH   5  10
TORSDOF 2
ENDMDL
MODEL 2
REMARK VINA RESULT:      -4.2      6.741      7.430
REMARK  Name = 92041_2Ethoxy5fluorouracil.pdbqt.pdb
REMARK  2 active torsions:
REMARK  status: ('A' for Active; 'I' for Inactive)
REMARK    1  A    between atoms: C_5  and  O_10
REMARK    2  A    between atoms: O_10  and  C_11
REMARK                            x       y       z     vdW  Elec       q    Type
REMARK                         _______ _______ _______ _____ _____    ______ ____
ROOT
ATOM      1  F   UNL     1      -9.946  -9.215 -12.185  0.00  0.00    +0.000 F 
ATOM      2  O   UNL     1     -11.255 -11.128 -10.523  0.00  0.00    +0.000 OA
ATOM      3  N   UNL     1     -11.061  -9.648  -8.775  0.00  0.00    +0.000 N 
ATOM      4  N   UNL     1     -10.205  -7.458  -9.022  0.00  0.00    +0.000 NA
ATOM      5  C   UNL     1     -10.665  -8.415  -8.266  0.00  0.00    +0.000 C 
ATOM      6  C   UNL     1     -10.981 -10.004 -10.124  0.00  0.00    +0.000 C 
ATOM      7  C   UNL     1     -10.514  -8.892 -11.011  0.00  0.00    +0.000 C 
ATOM      8  C   UNL     1     -10.195  -7.863 -10.298  0.00  0.00    +0.000 C 
ATOM      9  H   UNL     1     -11.373 -10.369  -8.141  0.00  0.00    +0.000 HD
ENDROOT
BRANCH   5  10
ATOM     10  O   UNL     1     -10.812  -8.336  -6.923  0.00  0.00    +0.000 OA
BRANCH  10  11
ATOM     11  C   UNL     1     -11.918  -7.740  -6.490  0.00  0.00    +0.000 C 
ATOM     12  C   UNL     1     -13.203  -7.032  -6.048  0.00  0.00    +0.000 C 
ENDBRANCH  10  11
ENDBRANCH   5  10
TORSDOF 2
ENDMDL
MODEL 3
REMARK VINA RESULT:      -3.8     21.737     22.650
REMARK  Name = 92041_2Ethoxy5fluorouracil.pdbqt.pdb
REMARK  2 active torsions:
REMARK  status: ('A' for Active; 'I' for Inactive)
REMARK    1  A    between atoms: C_5  and  O_10
REMARK    2  A    between atoms: O_10  and  C_11
REMARK                            x       y       z     vdW  Elec       q    Type
REMARK                         _______ _______ _______ _____ _____    ______ ____
ROOT
ATOM      1  F   UNL     1       5.272   0.140 -18.890  0.00  0.00    +0.000 F 
ATOM      2  O   UNL     1       3.658  -0.172 -16.560  0.00  0.00    +0.000 OA
ATOM      3  N   UNL     1       2.698  -2.011 -17.549  0.00  0.00    +0.000 N 
ATOM      4  N   UNL     1       3.417  -2.890 -19.623  0.00  0.00    +0.000 NA
ATOM      5  C   UNL     1       2.596  -2.905 -18.612  0.00  0.00    +0.000 C 
ATOM      6  C   UNL     1       3.653  -0.996 -17.465  0.00  0.00    +0.000 C 
ATOM      7  C   UNL     1       4.641  -1.008 -18.591  0.00  0.00    +0.000 C 
ATOM      8  C   UNL     1       4.320  -1.917 -19.450  0.00  0.00    +0.000 C 
ATOM      9  H   UNL     1       2.011  -2.041 -16.809  0.00  0.00    +0.000 HD
ENDROOT
BRANCH   5  10
ATOM     10  O   UNL     1       1.563  -3.768 -18.467  0.00  0.00    +0.000 OA
BRANCH  10  11
ATOM     11  C   UNL     1       1.406  -4.660 -19.440  0.00  0.00    +0.000 C 
ATOM     12  C   UNL     1       1.184  -5.719 -20.525  0.00  0.00    +0.000 C 
ENDBRANCH  10  11
ENDBRANCH   5  10
TORSDOF 2
ENDMDL
MODEL 4
REMARK VINA RESULT:      -3.7     18.393     19.350
REMARK  Name = 92041_2Ethoxy5fluorouracil.pdbqt.pdb
REMARK  2 active torsions:
REMARK  status: ('A' for Active; 'I' for Inactive)
REMARK    1  A    between atoms: C_5  and  O_10
REMARK    2  A    between atoms: O_10  and  C_11
REMARK                            x       y       z     vdW  Elec       q    Type
REMARK                         _______ _______ _______ _____ _____    ______ ____
ROOT
ATOM      1  F   UNL     1      -4.064   1.125 -18.143  0.00  0.00    +0.000 F 
ATOM      2  O   UNL     1      -1.557   2.251 -18.904  0.00  0.00    +0.000 OA
ATOM      3  N   UNL     1      -0.703   0.119 -19.007  0.00  0.00    +0.000 N 
ATOM      4  N   UNL     1      -2.022  -1.820 -18.703  0.00  0.00    +0.000 NA
ATOM      5  C   UNL     1      -0.862  -1.259 -18.897  0.00  0.00    +0.000 C 
ATOM      6  C   UNL     1      -1.746   1.041 -18.891  0.00  0.00    +0.000 C 
ATOM      7  C   UNL     1      -3.093   0.407 -18.730  0.00  0.00    +0.000 C 
ATOM      8  C   UNL     1      -2.969  -0.876 -18.641  0.00  0.00    +0.000 C 
ATOM      9  H   UNL     1       0.223   0.504 -19.118  0.00  0.00    +0.000 HD
ENDROOT
BRANCH   5  10
ATOM     10  O   UNL     1       0.310  -1.928 -19.013  0.00  0.00    +0.000 OA
BRANCH  10  11
ATOM     11  C   UNL     1       0.223  -3.200 -19.390  0.00  0.00    +0.000 C 
ATOM     12  C   UNL     1       0.066  -4.668 -19.797  0.00  0.00    +0.000 C 
ENDBRANCH  10  11
ENDBRANCH   5  10
TORSDOF 2
ENDMDL
MODEL 5
REMARK VINA RESULT:      -3.7     21.042     22.615
REMARK  Name = 92041_2Ethoxy5fluorouracil.pdbqt.pdb
REMARK  2 active torsions:
REMARK  status: ('A' for Active; 'I' for Inactive)
REMARK    1  A    between atoms: C_5  and  O_10
REMARK    2  A    between atoms: O_10  and  C_11
REMARK                            x       y       z     vdW  Elec       q    Type
REMARK                         _______ _______ _______ _____ _____    ______ ____
ROOT
ATOM      1  F   UNL     1       1.565  -3.941 -18.841  0.00  0.00    +0.000 F 
ATOM      2  O   UNL     1      -0.014  -1.566 -18.859  0.00  0.00    +0.000 OA
ATOM      3  N   UNL     1       1.853  -0.395 -18.208  0.00  0.00    +0.000 N 
ATOM      4  N   UNL     1       3.995  -1.379 -18.009  0.00  0.00    +0.000 NA
ATOM      5  C   UNL     1       3.206  -0.350 -17.882  0.00  0.00    +0.000 C 
ATOM      6  C   UNL     1       1.194  -1.538 -18.668  0.00  0.00    +0.000 C 
ATOM      7  C   UNL     1       2.102  -2.710 -18.877  0.00  0.00    +0.000 C 
ATOM      8  C   UNL     1       3.298  -2.418 -18.488  0.00  0.00    +0.000 C 
ATOM      9  H   UNL     1       1.278   0.420 -18.053  0.00  0.00    +0.000 HD
ENDROOT
BRANCH   5  10
ATOM     10  O   UNL     1       3.590   0.866 -17.427  0.00  0.00    +0.000 OA
BRANCH  10  11
ATOM     11  C   UNL     1       4.758   1.316 -17.874  0.00  0.00    +0.000 C 
ATOM     12  C   UNL     1       6.084   1.826 -18.448  0.00  0.00    +0.000 C 
ENDBRANCH  10  11
ENDBRANCH   5  10
TORSDOF 2
ENDMDL
MODEL 6
REMARK VINA RESULT:      -3.6     11.269     12.378
REMARK  Name = 92041_2Ethoxy5fluorouracil.pdbqt.pdb
REMARK  2 active torsions:
REMARK  status: ('A' for Active; 'I' for Inactive)
REMARK    1  A    between atoms: C_5  and  O_10
REMARK    2  A    between atoms: O_10  and  C_11
REMARK                            x       y       z     vdW  Elec       q    Type
REMARK                         _______ _______ _______ _____ _____    ______ ____
ROOT
ATOM      1  F   UNL     1     -11.308   8.869  -5.683  0.00  0.00    +0.000 F 
ATOM      2  O   UNL     1      -9.135   7.687  -7.101  0.00  0.00    +0.000 OA
ATOM      3  N   UNL     1     -10.663   6.425  -8.265  0.00  0.00    +0.000 N 
ATOM      4  N   UNL     1     -13.002   6.686  -8.033  0.00  0.00    +0.000 NA
ATOM      5  C   UNL     1     -11.978   6.064  -8.545  0.00  0.00    +0.000 C 
ATOM      6  C   UNL     1     -10.300   7.455  -7.393  0.00  0.00    +0.000 C 
ATOM      7  C   UNL     1     -11.467   8.217  -6.846  0.00  0.00    +0.000 C 
ATOM      8  C   UNL     1     -12.572   7.678  -7.242  0.00  0.00    +0.000 C 
ATOM      9  H   UNL     1      -9.907   5.885  -8.658  0.00  0.00    +0.000 HD
ENDROOT
BRANCH   5  10
ATOM     10  O   UNL     1     -12.058   5.013  -9.394  0.00  0.00    +0.000 OA
BRANCH  10  11
ATOM     11  C   UNL     1     -12.755   5.213 -10.509  0.00  0.00    +0.000 C 
ATOM     12  C   UNL     1     -13.523   5.399 -11.821  0.00  0.00    +0.000 C 
ENDBRANCH  10  11
ENDBRANCH   5  10
TORSDOF 2
ENDMDL
MODEL 7
REMARK VINA RESULT:      -3.5     15.937     17.559
REMARK  Name = 92041_2Ethoxy5fluorouracil.pdbqt.pdb
REMARK  2 active torsions:
REMARK  status: ('A' for Active; 'I' for Inactive)
REMARK    1  A    between atoms: C_5  and  O_10
REMARK    2  A    between atoms: O_10  and  C_11
REMARK                            x       y       z     vdW  Elec       q    Type
REMARK                         _______ _______ _______ _____ _____    ______ ____
ROOT
ATOM      1  F   UNL     1      -2.192   1.805 -19.753  0.00  0.00    +0.000 F 
ATOM      2  O   UNL     1      -3.737   1.237 -17.424  0.00  0.00    +0.000 OA
ATOM      3  N   UNL     1      -4.104  -0.872 -18.260  0.00  0.00    +0.000 N 
ATOM      4  N   UNL     1      -3.091  -1.675 -20.241  0.00  0.00    +0.000 NA
ATOM      5  C   UNL     1      -3.911  -1.840 -19.241  0.00  0.00    +0.000 C 
ATOM      6  C   UNL     1      -3.476   0.376 -18.254  0.00  0.00    +0.000 C 
ATOM      7  C   UNL     1      -2.485   0.554 -19.362  0.00  0.00    +0.000 C 
ATOM      8  C   UNL     1      -2.505  -0.475 -20.142  0.00  0.00    +0.000 C 
ATOM      9  H   UNL     1      -4.780  -1.036 -17.529  0.00  0.00    +0.000 HD
ENDROOT
BRANCH   5  10
ATOM     10  O   UNL     1      -4.663  -2.947 -19.035  0.00  0.00    +0.000 OA
BRANCH  10  11
ATOM     11  C   UNL     1      -5.960  -2.742 -18.828  0.00  0.00    +0.000 C 
ATOM     12  C   UNL     1      -7.467  -2.554 -18.629  0.00  0.00    +0.000 C 
ENDBRANCH  10  11
ENDBRANCH   5  10
TORSDOF 2
ENDMDL
MODEL 8
REMARK VINA RESULT:      -3.4     13.601     15.016
REMARK  Name = 92041_2Ethoxy5fluorouracil.pdbqt.pdb
REMARK  2 active torsions:
REMARK  status: ('A' for Active; 'I' for Inactive)
REMARK    1  A    between atoms: C_5  and  O_10
REMARK    2  A    between atoms: O_10  and  C_11
REMARK                            x       y       z     vdW  Elec       q    Type
REMARK                         _______ _______ _______ _____ _____    ______ ____
ROOT
ATOM      1  F   UNL     1      -9.906  -5.249 -23.294  0.00  0.00    +0.000 F 
ATOM      2  O   UNL     1     -12.195  -4.221 -21.939  0.00  0.00    +0.000 OA
ATOM      3  N   UNL     1     -10.839  -3.737 -20.147  0.00  0.00    +0.000 N 
ATOM      4  N   UNL     1      -8.492  -4.030 -20.183  0.00  0.00    +0.000 NA
ATOM      5  C   UNL     1      -9.584  -3.714 -19.545  0.00  0.00    +0.000 C 
ATOM      6  C   UNL     1     -11.069  -4.127 -21.469  0.00  0.00    +0.000 C 
ATOM      7  C   UNL     1      -9.816  -4.432 -22.231  0.00  0.00    +0.000 C 
ATOM      8  C   UNL     1      -8.792  -4.354 -21.447  0.00  0.00    +0.000 C 
ATOM      9  H   UNL     1     -11.656  -3.521 -19.597  0.00  0.00    +0.000 HD
ENDROOT
BRANCH   5  10
ATOM     10  O   UNL     1      -9.637  -3.333 -18.248  0.00  0.00    +0.000 OA
BRANCH  10  11
ATOM     11  C   UNL     1     -10.214  -2.160 -18.006  0.00  0.00    +0.000 C 
ATOM     12  C   UNL     1     -10.879  -0.797 -17.789  0.00  0.00    +0.000 C 
ENDBRANCH  10  11
ENDBRANCH   5  10
TORSDOF 2
ENDMDL
MODEL 9
REMARK VINA RESULT:      -3.4      3.524      4.360
REMARK  Name = 92041_2Ethoxy5fluorouracil.pdbqt.pdb
REMARK  2 active torsions:
REMARK  status: ('A' for Active; 'I' for Inactive)
REMARK    1  A    between atoms: C_5  and  O_10
REMARK    2  A    between atoms: O_10  and  C_11
REMARK                            x       y       z     vdW  Elec       q    Type
REMARK                         _______ _______ _______ _____ _____    ______ ____
ROOT
ATOM      1  F   UNL     1     -15.649  -3.074  -7.141  0.00  0.00    +0.000 F 
ATOM      2  O   UNL     1     -14.666  -4.426  -9.452  0.00  0.00    +0.000 OA
ATOM      3  N   UNL     1     -16.809  -5.145  -9.866  0.00  0.00    +0.000 N 
ATOM      4  N   UNL     1     -18.676  -4.457  -8.587  0.00  0.00    +0.000 NA
ATOM      5  C   UNL     1     -18.162  -5.181  -9.540  0.00  0.00    +0.000 C 
ATOM      6  C   UNL     1     -15.861  -4.366  -9.197  0.00  0.00    +0.000 C 
ATOM      7  C   UNL     1     -16.448  -3.482  -8.141  0.00  0.00    +0.000 C 
ATOM      8  C   UNL     1     -17.714  -3.715  -8.023  0.00  0.00    +0.000 C 
ATOM      9  H   UNL     1     -16.457  -5.756 -10.587  0.00  0.00    +0.000 HD
ENDROOT
BRANCH   5  10
ATOM     10  O   UNL     1     -18.860  -6.042 -10.317  0.00  0.00    +0.000 OA
BRANCH  10  11
ATOM     11  C   UNL     1     -19.948  -5.552 -10.902  0.00  0.00    +0.000 C 
ATOM     12  C   UNL     1     -21.231  -5.041 -11.567  0.00  0.00    +0.000 C 
ENDBRANCH  10  11
ENDBRANCH   5  10
TORSDOF 2
ENDMDL
