MODEL 1
REMARK VINA RESULT:      -4.4      0.000      0.000
REMARK  Name = 95716_6Bromoisatin.pdbqt.pdb
REMARK  0 active torsions:
REMARK  status: ('A' for Active; 'I' for Inactive)
REMARK                            x       y       z     vdW  Elec       q    Type
REMARK                         _______ _______ _______ _____ _____    ______ ____
ROOT
ATOM      1 BR   UNL     1       8.278  -1.471 -20.137  0.00  0.00    +0.000 Br
ATOM      2  O   UNL     1      10.871   3.210 -15.653  0.00  0.00    +0.000 OA
ATOM      3  O   UNL     1      13.193   1.361 -15.142  0.00  0.00    +0.000 OA
ATOM      4  N   UNL     1      12.026   0.064 -16.690  0.00  0.00    +0.000 N 
ATOM      5  C   UNL     1      10.844   0.216 -17.409  0.00  0.00    +0.000 A 
ATOM      6  C   UNL     1      10.226   1.432 -17.125  0.00  0.00    +0.000 A 
ATOM      7  C   UNL     1      11.066   2.126 -16.149  0.00  0.00    +0.000 C 
ATOM      8  C   UNL     1      10.295  -0.678 -18.302  0.00  0.00    +0.000 A 
ATOM      9  C   UNL     1       9.039   1.822 -17.709  0.00  0.00    +0.000 A 
ATOM     10  C   UNL     1      12.263   1.166 -15.889  0.00  0.00    +0.000 C 
ATOM     11  C   UNL     1       9.092  -0.300 -18.903  0.00  0.00    +0.000 A 
ATOM     12  C   UNL     1       8.470   0.927 -18.616  0.00  0.00    +0.000 A 
ATOM     13  H   UNL     1      12.649  -0.730 -16.726  0.00  0.00    +0.000 HD
ENDROOT
TORSDOF 0
ENDMDL
MODEL 2
REMARK VINA RESULT:      -4.3     12.728     13.922
REMARK  Name = 95716_6Bromoisatin.pdbqt.pdb
REMARK  0 active torsions:
REMARK  status: ('A' for Active; 'I' for Inactive)
REMARK                            x       y       z     vdW  Elec       q    Type
REMARK                         _______ _______ _______ _____ _____    ______ ____
ROOT
ATOM      1 BR   UNL     1       0.219   4.032 -21.847  0.00  0.00    +0.000 Br
ATOM      2  O   UNL     1      -5.315   0.324 -19.758  0.00  0.00    +0.000 OA
ATOM      3  O   UNL     1      -3.926  -0.177 -17.133  0.00  0.00    +0.000 OA
ATOM      4  N   UNL     1      -2.286   1.114 -18.174  0.00  0.00    +0.000 N 
ATOM      5  C   UNL     1      -2.164   1.738 -19.412  0.00  0.00    +0.000 A 
ATOM      6  C   UNL     1      -3.293   1.533 -20.201  0.00  0.00    +0.000 A 
ATOM      7  C   UNL     1      -4.223   0.716 -19.422  0.00  0.00    +0.000 C 
ATOM      8  C   UNL     1      -1.093   2.478 -19.866  0.00  0.00    +0.000 A 
ATOM      9  C   UNL     1      -3.420   2.049 -21.474  0.00  0.00    +0.000 A 
ATOM     10  C   UNL     1      -3.500   0.460 -18.067  0.00  0.00    +0.000 C 
ATOM     11  C   UNL     1      -1.204   3.008 -21.154  0.00  0.00    +0.000 A 
ATOM     12  C   UNL     1      -2.344   2.801 -21.949  0.00  0.00    +0.000 A 
ATOM     13  H   UNL     1      -1.600   1.119 -17.432  0.00  0.00    +0.000 HD
ENDROOT
TORSDOF 0
ENDMDL
MODEL 3
REMARK VINA RESULT:      -4.2     24.016     25.054
REMARK  Name = 95716_6Bromoisatin.pdbqt.pdb
REMARK  0 active torsions:
REMARK  status: ('A' for Active; 'I' for Inactive)
REMARK                            x       y       z     vdW  Elec       q    Type
REMARK                         _______ _______ _______ _____ _____    ______ ____
ROOT
ATOM      1 BR   UNL     1     -13.072  10.519  -6.069  0.00  0.00    +0.000 Br
ATOM      2  O   UNL     1     -10.042   4.593  -8.178  0.00  0.00    +0.000 OA
ATOM      3  O   UNL     1     -11.127   5.081 -10.945  0.00  0.00    +0.000 OA
ATOM      4  N   UNL     1     -11.981   6.970  -9.878  0.00  0.00    +0.000 N 
ATOM      5  C   UNL     1     -11.926   7.480  -8.584  0.00  0.00    +0.000 A 
ATOM      6  C   UNL     1     -11.182   6.656  -7.742  0.00  0.00    +0.000 A 
ATOM      7  C   UNL     1     -10.717   5.525  -8.545  0.00  0.00    +0.000 C 
ATOM      8  C   UNL     1     -12.506   8.642  -8.123  0.00  0.00    +0.000 A 
ATOM      9  C   UNL     1     -10.976   6.940  -6.408  0.00  0.00    +0.000 A 
ATOM     10  C   UNL     1     -11.281   5.782  -9.972  0.00  0.00    +0.000 C 
ATOM     11  C   UNL     1     -12.309   8.946  -6.775  0.00  0.00    +0.000 A 
ATOM     12  C   UNL     1     -11.558   8.114  -5.926  0.00  0.00    +0.000 A 
ATOM     13  H   UNL     1     -12.460   7.388 -10.663  0.00  0.00    +0.000 HD
ENDROOT
TORSDOF 0
ENDMDL
MODEL 4
REMARK VINA RESULT:      -4.1     11.202     12.607
REMARK  Name = 95716_6Bromoisatin.pdbqt.pdb
REMARK  0 active torsions:
REMARK  status: ('A' for Active; 'I' for Inactive)
REMARK                            x       y       z     vdW  Elec       q    Type
REMARK                         _______ _______ _______ _____ _____    ______ ____
ROOT
ATOM      1 BR   UNL     1      -2.073   5.012 -25.617  0.00  0.00    +0.000 Br
ATOM      2  O   UNL     1      -1.182   2.752 -19.072  0.00  0.00    +0.000 OA
ATOM      3  O   UNL     1       1.686   3.664 -19.200  0.00  0.00    +0.000 OA
ATOM      4  N   UNL     1       1.007   4.288 -21.343  0.00  0.00    +0.000 N 
ATOM      5  C   UNL     1      -0.183   4.207 -22.061  0.00  0.00    +0.000 A 
ATOM      6  C   UNL     1      -1.194   3.613 -21.309  0.00  0.00    +0.000 A 
ATOM      7  C   UNL     1      -0.623   3.280 -20.004  0.00  0.00    +0.000 C 
ATOM      8  C   UNL     1      -0.405   4.638 -23.351  0.00  0.00    +0.000 A 
ATOM      9  C   UNL     1      -2.469   3.416 -21.795  0.00  0.00    +0.000 A 
ATOM     10  C   UNL     1       0.857   3.754 -20.076  0.00  0.00    +0.000 C 
ATOM     11  C   UNL     1      -1.691   4.448 -23.859  0.00  0.00    +0.000 A 
ATOM     12  C   UNL     1      -2.710   3.848 -23.100  0.00  0.00    +0.000 A 
ATOM     13  H   UNL     1       1.878   4.677 -21.673  0.00  0.00    +0.000 HD
ENDROOT
TORSDOF 0
ENDMDL
MODEL 5
REMARK VINA RESULT:      -4.0     11.653     12.579
REMARK  Name = 95716_6Bromoisatin.pdbqt.pdb
REMARK  0 active torsions:
REMARK  status: ('A' for Active; 'I' for Inactive)
REMARK                            x       y       z     vdW  Elec       q    Type
REMARK                         _______ _______ _______ _____ _____    ______ ____
ROOT
ATOM      1 BR   UNL     1       1.989   1.226 -21.516  0.00  0.00    +0.000 Br
ATOM      2  O   UNL     1      -3.972   1.371 -17.884  0.00  0.00    +0.000 OA
ATOM      3  O   UNL     1      -3.637  -1.567 -17.310  0.00  0.00    +0.000 OA
ATOM      4  N   UNL     1      -1.715  -1.221 -18.586  0.00  0.00    +0.000 N 
ATOM      5  C   UNL     1      -1.144  -0.126 -19.228  0.00  0.00    +0.000 A 
ATOM      6  C   UNL     1      -1.913   1.023 -19.060  0.00  0.00    +0.000 A 
ATOM      7  C   UNL     1      -3.072   0.653 -18.248  0.00  0.00    +0.000 C 
ATOM      8  C   UNL     1       0.028  -0.107 -19.954  0.00  0.00    +0.000 A 
ATOM      9  C   UNL     1      -1.562   2.243 -19.599  0.00  0.00    +0.000 A 
ATOM     10  C   UNL     1      -2.893  -0.865 -17.955  0.00  0.00    +0.000 C 
ATOM     11  C   UNL     1       0.398   1.120 -20.508  0.00  0.00    +0.000 A 
ATOM     12  C   UNL     1      -0.378   2.279 -20.338  0.00  0.00    +0.000 A 
ATOM     13  H   UNL     1      -1.344  -2.160 -18.564  0.00  0.00    +0.000 HD
ENDROOT
TORSDOF 0
ENDMDL
MODEL 6
REMARK VINA RESULT:      -4.0     23.941     24.930
REMARK  Name = 95716_6Bromoisatin.pdbqt.pdb
REMARK  0 active torsions:
REMARK  status: ('A' for Active; 'I' for Inactive)
REMARK                            x       y       z     vdW  Elec       q    Type
REMARK                         _______ _______ _______ _____ _____    ______ ____
ROOT
ATOM      1 BR   UNL     1     -15.630   9.246 -10.353  0.00  0.00    +0.000 Br
ATOM      2  O   UNL     1     -10.185   4.883 -10.597  0.00  0.00    +0.000 OA
ATOM      3  O   UNL     1     -10.110   4.886  -7.586  0.00  0.00    +0.000 OA
ATOM      4  N   UNL     1     -11.917   6.326  -7.909  0.00  0.00    +0.000 N 
ATOM      5  C   UNL     1     -12.583   6.835  -9.020  0.00  0.00    +0.000 A 
ATOM      6  C   UNL     1     -12.028   6.366 -10.208  0.00  0.00    +0.000 A 
ATOM      7  C   UNL     1     -10.917   5.485  -9.848  0.00  0.00    +0.000 C 
ATOM      8  C   UNL     1     -13.659   7.697  -9.020  0.00  0.00    +0.000 A 
ATOM      9  C   UNL     1     -12.508   6.724 -11.451  0.00  0.00    +0.000 A 
ATOM     10  C   UNL     1     -10.884   5.491  -8.292  0.00  0.00    +0.000 C 
ATOM     11  C   UNL     1     -14.158   8.070 -10.270  0.00  0.00    +0.000 A 
ATOM     12  C   UNL     1     -13.597   7.596 -11.468  0.00  0.00    +0.000 A 
ATOM     13  H   UNL     1     -12.134   6.520  -6.942  0.00  0.00    +0.000 HD
ENDROOT
TORSDOF 0
ENDMDL
MODEL 7
REMARK VINA RESULT:      -3.9     29.095     30.013
REMARK  Name = 95716_6Bromoisatin.pdbqt.pdb
REMARK  0 active torsions:
REMARK  status: ('A' for Active; 'I' for Inactive)
REMARK                            x       y       z     vdW  Elec       q    Type
REMARK                         _______ _______ _______ _____ _____    ______ ____
ROOT
ATOM      1 BR   UNL     1     -20.913  -7.355  -9.699  0.00  0.00    +0.000 Br
ATOM      2  O   UNL     1     -16.464  -2.622  -7.141  0.00  0.00    +0.000 OA
ATOM      3  O   UNL     1     -14.541  -3.305  -9.356  0.00  0.00    +0.000 OA
ATOM      4  N   UNL     1     -16.267  -4.775  -9.903  0.00  0.00    +0.000 N 
ATOM      5  C   UNL     1     -17.516  -5.071  -9.364  0.00  0.00    +0.000 A 
ATOM      6  C   UNL     1     -17.780  -4.299  -8.235  0.00  0.00    +0.000 A 
ATOM      7  C   UNL     1     -16.620  -3.436  -8.019  0.00  0.00    +0.000 C 
ATOM      8  C   UNL     1     -18.425  -5.994  -9.834  0.00  0.00    +0.000 A 
ATOM      9  C   UNL     1     -18.953  -4.403  -7.517  0.00  0.00    +0.000 A 
ATOM     10  C   UNL     1     -15.630  -3.793  -9.166  0.00  0.00    +0.000 C 
ATOM     11  C   UNL     1     -19.619  -6.113  -9.119  0.00  0.00    +0.000 A 
ATOM     12  C   UNL     1     -19.885  -5.334  -7.980  0.00  0.00    +0.000 A 
ATOM     13  H   UNL     1     -15.853  -5.201 -10.720  0.00  0.00    +0.000 HD
ENDROOT
TORSDOF 0
ENDMDL
MODEL 8
REMARK VINA RESULT:      -3.8      1.450      2.651
REMARK  Name = 95716_6Bromoisatin.pdbqt.pdb
REMARK  0 active torsions:
REMARK  status: ('A' for Active; 'I' for Inactive)
REMARK                            x       y       z     vdW  Elec       q    Type
REMARK                         _______ _______ _______ _____ _____    ______ ____
ROOT
ATOM      1 BR   UNL     1       9.527  -3.143 -20.212  0.00  0.00    +0.000 Br
ATOM      2  O   UNL     1      12.671   0.888 -15.457  0.00  0.00    +0.000 OA
ATOM      3  O   UNL     1      10.819   3.140 -16.214  0.00  0.00    +0.000 OA
ATOM      4  N   UNL     1      10.030   1.508 -17.682  0.00  0.00    +0.000 N 
ATOM      5  C   UNL     1      10.363   0.183 -17.952  0.00  0.00    +0.000 A 
ATOM      6  C   UNL     1      11.414  -0.253 -17.150  0.00  0.00    +0.000 A 
ATOM      7  C   UNL     1      11.798   0.868 -16.292  0.00  0.00    +0.000 C 
ATOM      8  C   UNL     1       9.772  -0.649 -18.879  0.00  0.00    +0.000 A 
ATOM      9  C   UNL     1      11.932  -1.529 -17.224  0.00  0.00    +0.000 A 
ATOM     10  C   UNL     1      10.838   2.027 -16.688  0.00  0.00    +0.000 C 
ATOM     11  C   UNL     1      10.283  -1.945 -18.968  0.00  0.00    +0.000 A 
ATOM     12  C   UNL     1      11.344  -2.384 -18.158  0.00  0.00    +0.000 A 
ATOM     13  H   UNL     1       9.303   2.044 -18.133  0.00  0.00    +0.000 HD
ENDROOT
TORSDOF 0
ENDMDL
MODEL 9
REMARK VINA RESULT:      -3.8     17.204     18.039
REMARK  Name = 95716_6Bromoisatin.pdbqt.pdb
REMARK  0 active torsions:
REMARK  status: ('A' for Active; 'I' for Inactive)
REMARK                            x       y       z     vdW  Elec       q    Type
REMARK                         _______ _______ _______ _____ _____    ______ ____
ROOT
ATOM      1 BR   UNL     1       9.743   1.178   2.654  0.00  0.00    +0.000 Br
ATOM      2  O   UNL     1       8.101   6.178  -1.934  0.00  0.00    +0.000 OA
ATOM      3  O   UNL     1       5.371   4.940  -2.231  0.00  0.00    +0.000 OA
ATOM      4  N   UNL     1       6.279   3.456  -0.678  0.00  0.00    +0.000 N 
ATOM      5  C   UNL     1       7.505   3.339  -0.028  0.00  0.00    +0.000 A 
ATOM      6  C   UNL     1       8.382   4.354  -0.405  0.00  0.00    +0.000 A 
ATOM      7  C   UNL     1       7.679   5.195  -1.372  0.00  0.00    +0.000 C 
ATOM      8  C   UNL     1       7.872   2.372   0.882  0.00  0.00    +0.000 A 
ATOM      9  C   UNL     1       9.661   4.461   0.098  0.00  0.00    +0.000 A 
ATOM     10  C   UNL     1       6.270   4.551  -1.522  0.00  0.00    +0.000 C 
ATOM     11  C   UNL     1       9.165   2.465   1.403  0.00  0.00    +0.000 A 
ATOM     12  C   UNL     1      10.049   3.489   1.021  0.00  0.00    +0.000 A 
ATOM     13  H   UNL     1       5.485   2.841  -0.569  0.00  0.00    +0.000 HD
ENDROOT
TORSDOF 0
ENDMDL
