REMARK  Name = 969516_Curcumin.pdbqt.pdb
REMARK  8 active torsions:
REMARK  status: ('A' for Active; 'I' for Inactive)
REMARK    1  A    between atoms: C_3  and  C_5
REMARK    2  A    between atoms: C_4  and  C_6
REMARK    3  A    between atoms: C_8  and  O_12
REMARK    4  A    between atoms: C_10  and  O_14
REMARK    5  A    between atoms: C_17  and  C_19
REMARK    6  A    between atoms: C_18  and  C_20
REMARK    7  A    between atoms: C_22  and  O_26
REMARK    8  A    between atoms: C_24  and  O_28
REMARK                            x       y       z     vdW  Elec       q    Type
REMARK                         _______ _______ _______ _____ _____    ______ ____
ROOT
ATOM      1  C   UNL     1       0.026   0.214   0.389  0.00  0.00    +0.000 C 
ATOM      2  O   UNL     1       0.585  -1.140   2.152  0.00  0.00    +0.000 OA
ATOM      3  C   UNL     1       0.948  -0.587   1.125  0.00  0.00    +0.000 C 
ATOM      4  O   UNL     1      -0.483   1.803  -1.182  0.00  0.00    +0.000 OA
ATOM      5  C   UNL     1      -0.896   1.017  -0.342  0.00  0.00    +0.000 C 
ENDROOT
BRANCH   3   7
ATOM      6  C   UNL     1       3.427  -0.868   0.254  0.00  0.00    +0.000 C 
ATOM      7  C   UNL     1       2.300  -0.741   0.650  0.00  0.00    +0.000 C 
BRANCH   6   8
ATOM      8  C   UNL     1       4.766  -1.018  -0.215  0.00  0.00    +0.000 A 
ATOM      9  C   UNL     1       5.749  -0.116   0.190  0.00  0.00    +0.000 A 
ATOM     10  C   UNL     1       7.066  -0.248  -0.260  0.00  0.00    +0.000 A 
ATOM     11  C   UNL     1       5.089  -2.063  -1.076  0.00  0.00    +0.000 A 
ATOM     12  C   UNL     1       7.379  -1.302  -1.124  0.00  0.00    +0.000 A 
ATOM     13  C   UNL     1       6.397  -2.205  -1.530  0.00  0.00    +0.000 A 
BRANCH  10  14
ATOM     14  O   UNL     1       8.086   0.599   0.096  0.00  0.00    +0.000 OA
ATOM     15  C   UNL     1       7.741   1.652   0.952  0.00  0.00    +0.000 C 
ENDBRANCH  10  14
BRANCH  12  16
ATOM     16  O   UNL     1       8.638  -1.512  -1.616  0.00  0.00    +0.000 OA
ATOM     17  H   UNL     1       9.253  -0.837  -1.283  0.00  0.00    +0.000 HD
ENDBRANCH  12  16
ENDBRANCH   6   8
ENDBRANCH   3   7
BRANCH   5  19
ATOM     18  C   UNL     1      -3.487   0.791   0.123  0.00  0.00    +0.000 C 
ATOM     19  C   UNL     1      -2.309   0.896  -0.088  0.00  0.00    +0.000 C 
BRANCH  18  20
ATOM     20  C   UNL     1      -4.886   0.664   0.369  0.00  0.00    +0.000 A 
ATOM     21  C   UNL     1      -5.573  -0.458  -0.092  0.00  0.00    +0.000 A 
ATOM     22  C   UNL     1      -6.944  -0.597   0.142  0.00  0.00    +0.000 A 
ATOM     23  C   UNL     1      -5.563   1.660   1.070  0.00  0.00    +0.000 A 
ATOM     24  C   UNL     1      -7.610   0.409   0.846  0.00  0.00    +0.000 A 
ATOM     25  C   UNL     1      -6.928   1.533   1.309  0.00  0.00    +0.000 A 
BRANCH  22  26
ATOM     26  O   UNL     1      -7.696  -1.668  -0.277  0.00  0.00    +0.000 OA
ATOM     27  C   UNL     1      -6.996  -2.660  -0.982  0.00  0.00    +0.000 C 
ENDBRANCH  22  26
BRANCH  24  28
ATOM     28  O   UNL     1      -8.952   0.291   1.085  0.00  0.00    +0.000 OA
ATOM     29  H   UNL     1      -9.251   1.075   1.583  0.00  0.00    +0.000 HD
ENDBRANCH  24  28
ENDBRANCH  18  20
ENDBRANCH   5  19
TORSDOF 8
