MODEL 1
REMARK VINA RESULT:      -6.6      0.000      0.000
REMARK  Name = 969516_Curcumin.pdbqt.pdb
REMARK  8 active torsions:
REMARK  status: ('A' for Active; 'I' for Inactive)
REMARK    1  A    between atoms: C_3  and  C_5
REMARK    2  A    between atoms: C_4  and  C_6
REMARK    3  A    between atoms: C_8  and  O_12
REMARK    4  A    between atoms: C_10  and  O_14
REMARK    5  A    between atoms: C_17  and  C_19
REMARK    6  A    between atoms: C_18  and  C_20
REMARK    7  A    between atoms: C_22  and  O_26
REMARK    8  A    between atoms: C_24  and  O_28
REMARK                            x       y       z     vdW  Elec       q    Type
REMARK                         _______ _______ _______ _____ _____    ______ ____
ROOT
ATOM      1  C   UNL     1      -4.591  -0.805   0.607  0.00  0.00    +0.000 C 
ATOM      2  O   UNL     1      -2.753  -1.930  -0.176  0.00  0.00    +0.000 OA
ATOM      3  C   UNL     1      -3.184  -0.968   0.442  0.00  0.00    +0.000 C 
ATOM      4  O   UNL     1      -6.424   0.120   1.623  0.00  0.00    +0.000 OA
ATOM      5  C   UNL     1      -5.996  -0.647   0.773  0.00  0.00    +0.000 C 
ENDROOT
BRANCH   3   7
ATOM      6  C   UNL     1      -1.528   0.818   1.468  0.00  0.00    +0.000 C 
ATOM      7  C   UNL     1      -2.280   0.006   1.002  0.00  0.00    +0.000 C 
BRANCH   6   8
ATOM      8  C   UNL     1      -0.636   1.783   2.024  0.00  0.00    +0.000 A 
ATOM      9  C   UNL     1       0.407   2.290   1.251  0.00  0.00    +0.000 A 
ATOM     10  C   UNL     1       1.290   3.236   1.779  0.00  0.00    +0.000 A 
ATOM     11  C   UNL     1      -0.808   2.215   3.336  0.00  0.00    +0.000 A 
ATOM     12  C   UNL     1       1.108   3.664   3.098  0.00  0.00    +0.000 A 
ATOM     13  C   UNL     1       0.065   3.157   3.873  0.00  0.00    +0.000 A 
BRANCH  10  14
ATOM     14  O   UNL     1       2.338   3.781   1.080  0.00  0.00    +0.000 OA
ATOM     15  C   UNL     1       3.432   2.937   0.853  0.00  0.00    +0.000 C 
ENDBRANCH  10  14
BRANCH  12  16
ATOM     16  O   UNL     1       1.920   4.585   3.701  0.00  0.00    +0.000 OA
ATOM     17  H   UNL     1       2.327   4.212   4.501  0.00  0.00    +0.000 HD
ENDBRANCH  12  16
ENDBRANCH   6   8
ENDBRANCH   3   7
BRANCH   5  19
ATOM     18  C   UNL     1      -7.659  -2.015  -0.759  0.00  0.00    +0.000 C 
ATOM     19  C   UNL     1      -6.905  -1.392  -0.062  0.00  0.00    +0.000 C 
BRANCH  18  20
ATOM     20  C   UNL     1      -8.551  -2.755  -1.589  0.00  0.00    +0.000 A 
ATOM     21  C   UNL     1      -8.585  -2.512  -2.962  0.00  0.00    +0.000 A 
ATOM     22  C   UNL     1      -9.453  -3.230  -3.789  0.00  0.00    +0.000 A 
ATOM     23  C   UNL     1      -9.385  -3.720  -1.029  0.00  0.00    +0.000 A 
ATOM     24  C   UNL     1     -10.284  -4.194  -3.214  0.00  0.00    +0.000 A 
ATOM     25  C   UNL     1     -10.254  -4.442  -1.843  0.00  0.00    +0.000 A 
BRANCH  22  26
ATOM     26  O   UNL     1      -9.550  -3.052  -5.148  0.00  0.00    +0.000 OA
ATOM     27  C   UNL     1      -8.530  -2.285  -5.733  0.00  0.00    +0.000 C 
ENDBRANCH  22  26
BRANCH  24  28
ATOM     28  O   UNL     1     -11.140  -4.907  -4.008  0.00  0.00    +0.000 OA
ATOM     29  H   UNL     1     -10.999  -5.859  -3.843  0.00  0.00    +0.000 HD
ENDBRANCH  24  28
ENDBRANCH  18  20
ENDBRANCH   5  19
TORSDOF 8
ENDMDL
MODEL 2
REMARK VINA RESULT:      -6.6      4.057     13.470
REMARK  Name = 969516_Curcumin.pdbqt.pdb
REMARK  8 active torsions:
REMARK  status: ('A' for Active; 'I' for Inactive)
REMARK    1  A    between atoms: C_3  and  C_5
REMARK    2  A    between atoms: C_4  and  C_6
REMARK    3  A    between atoms: C_8  and  O_12
REMARK    4  A    between atoms: C_10  and  O_14
REMARK    5  A    between atoms: C_17  and  C_19
REMARK    6  A    between atoms: C_18  and  C_20
REMARK    7  A    between atoms: C_22  and  O_26
REMARK    8  A    between atoms: C_24  and  O_28
REMARK                            x       y       z     vdW  Elec       q    Type
REMARK                         _______ _______ _______ _____ _____    ______ ____
ROOT
ATOM      1  C   UNL     1       2.273   3.120   0.793  0.00  0.00    +0.000 C 
ATOM      2  O   UNL     1       0.641   4.086  -0.495  0.00  0.00    +0.000 OA
ATOM      3  C   UNL     1       0.927   3.238   0.336  0.00  0.00    +0.000 C 
ATOM      4  O   UNL     1       3.859   2.388   2.276  0.00  0.00    +0.000 OA
ATOM      5  C   UNL     1       3.617   3.008   1.250  0.00  0.00    +0.000 C 
ENDROOT
BRANCH   3   7
ATOM      6  C   UNL     1      -0.928   1.614   1.287  0.00  0.00    +0.000 C 
ATOM      7  C   UNL     1      -0.085   2.353   0.855  0.00  0.00    +0.000 C 
BRANCH   6   8
ATOM      8  C   UNL     1      -1.928   0.735   1.801  0.00  0.00    +0.000 A 
ATOM      9  C   UNL     1      -2.873   0.180   0.940  0.00  0.00    +0.000 A 
ATOM     10  C   UNL     1      -3.860  -0.682   1.427  0.00  0.00    +0.000 A 
ATOM     11  C   UNL     1      -1.958   0.435   3.160  0.00  0.00    +0.000 A 
ATOM     12  C   UNL     1      -3.881  -0.978   2.794  0.00  0.00    +0.000 A 
ATOM     13  C   UNL     1      -2.935  -0.423   3.656  0.00  0.00    +0.000 A 
BRANCH  10  14
ATOM     14  O   UNL     1      -4.822  -1.267   0.641  0.00  0.00    +0.000 OA
ATOM     15  C   UNL     1      -5.966  -0.498   0.394  0.00  0.00    +0.000 C 
ENDBRANCH  10  14
BRANCH  12  16
ATOM     16  O   UNL     1      -4.806  -1.810   3.361  0.00  0.00    +0.000 OA
ATOM     17  H   UNL     1      -5.583  -1.306   3.658  0.00  0.00    +0.000 HD
ENDBRANCH  12  16
ENDBRANCH   6   8
ENDBRANCH   3   7
BRANCH   5  19
ATOM     18  C   UNL     1       5.569   4.141  -0.124  0.00  0.00    +0.000 C 
ATOM     19  C   UNL     1       4.682   3.624   0.501  0.00  0.00    +0.000 C 
BRANCH  18  20
ATOM     20  C   UNL     1       6.617   4.756  -0.869  0.00  0.00    +0.000 A 
ATOM     21  C   UNL     1       7.532   5.588  -0.224  0.00  0.00    +0.000 A 
ATOM     22  C   UNL     1       8.565   6.198  -0.941  0.00  0.00    +0.000 A 
ATOM     23  C   UNL     1       6.727   4.525  -2.239  0.00  0.00    +0.000 A 
ATOM     24  C   UNL     1       8.663   5.957  -2.314  0.00  0.00    +0.000 A 
ATOM     25  C   UNL     1       7.751   5.127  -2.963  0.00  0.00    +0.000 A 
BRANCH  22  26
ATOM     26  O   UNL     1       9.507   7.030  -0.385  0.00  0.00    +0.000 OA
ATOM     27  C   UNL     1       9.093   7.733   0.757  0.00  0.00    +0.000 C 
ENDBRANCH  22  26
BRANCH  24  28
ATOM     28  O   UNL     1       9.668   6.545  -3.033  0.00  0.00    +0.000 OA
ATOM     29  H   UNL     1       9.401   7.456  -3.255  0.00  0.00    +0.000 HD
ENDBRANCH  24  28
ENDBRANCH  18  20
ENDBRANCH   5  19
TORSDOF 8
ENDMDL
MODEL 3
REMARK VINA RESULT:      -6.6      0.850      1.978
REMARK  Name = 969516_Curcumin.pdbqt.pdb
REMARK  8 active torsions:
REMARK  status: ('A' for Active; 'I' for Inactive)
REMARK    1  A    between atoms: C_3  and  C_5
REMARK    2  A    between atoms: C_4  and  C_6
REMARK    3  A    between atoms: C_8  and  O_12
REMARK    4  A    between atoms: C_10  and  O_14
REMARK    5  A    between atoms: C_17  and  C_19
REMARK    6  A    between atoms: C_18  and  C_20
REMARK    7  A    between atoms: C_22  and  O_26
REMARK    8  A    between atoms: C_24  and  O_28
REMARK                            x       y       z     vdW  Elec       q    Type
REMARK                         _______ _______ _______ _____ _____    ______ ____
ROOT
ATOM      1  C   UNL     1      -4.466  -0.827   0.610  0.00  0.00    +0.000 C 
ATOM      2  O   UNL     1      -2.674  -1.997  -0.211  0.00  0.00    +0.000 OA
ATOM      3  C   UNL     1      -3.068  -1.012   0.394  0.00  0.00    +0.000 C 
ATOM      4  O   UNL     1      -6.246   0.151   1.671  0.00  0.00    +0.000 OA
ATOM      5  C   UNL     1      -5.862  -0.647   0.828  0.00  0.00    +0.000 C 
ENDROOT
BRANCH   3   7
ATOM      6  C   UNL     1      -1.352   0.782   1.297  0.00  0.00    +0.000 C 
ATOM      7  C   UNL     1      -2.132  -0.033   0.887  0.00  0.00    +0.000 C 
BRANCH   6   8
ATOM      8  C   UNL     1      -0.426   1.753   1.784  0.00  0.00    +0.000 A 
ATOM      9  C   UNL     1       0.642   2.156   0.984  0.00  0.00    +0.000 A 
ATOM     10  C   UNL     1       1.559   3.105   1.445  0.00  0.00    +0.000 A 
ATOM     11  C   UNL     1      -0.589   2.294   3.056  0.00  0.00    +0.000 A 
ATOM     12  C   UNL     1       1.385   3.643   2.724  0.00  0.00    +0.000 A 
ATOM     13  C   UNL     1       0.317   3.241   3.525  0.00  0.00    +0.000 A 
BRANCH  10  14
ATOM     14  O   UNL     1       2.633   3.552   0.714  0.00  0.00    +0.000 OA
ATOM     15  C   UNL     1       3.774   2.740   0.739  0.00  0.00    +0.000 C 
ENDBRANCH  10  14
BRANCH  12  16
ATOM     16  O   UNL     1       2.229   4.576   3.260  0.00  0.00    +0.000 OA
ATOM     17  H   UNL     1       3.149   4.392   3.006  0.00  0.00    +0.000 HD
ENDBRANCH  12  16
ENDBRANCH   6   8
ENDBRANCH   3   7
BRANCH   5  19
ATOM     18  C   UNL     1      -7.601  -2.034  -0.596  0.00  0.00    +0.000 C 
ATOM     19  C   UNL     1      -6.811  -1.404   0.053  0.00  0.00    +0.000 C 
BRANCH  18  20
ATOM     20  C   UNL     1      -8.541  -2.778  -1.370  0.00  0.00    +0.000 A 
ATOM     21  C   UNL     1      -9.553  -3.493  -0.733  0.00  0.00    +0.000 A 
ATOM     22  C   UNL     1     -10.482  -4.226  -1.478  0.00  0.00    +0.000 A 
ATOM     23  C   UNL     1      -8.446  -2.787  -2.760  0.00  0.00    +0.000 A 
ATOM     24  C   UNL     1     -10.375  -4.226  -2.870  0.00  0.00    +0.000 A 
ATOM     25  C   UNL     1      -9.364  -3.513  -3.513  0.00  0.00    +0.000 A 
BRANCH  22  26
ATOM     26  O   UNL     1     -11.508  -4.958  -0.931  0.00  0.00    +0.000 OA
ATOM     27  C   UNL     1     -11.247  -5.518   0.330  0.00  0.00    +0.000 C 
ENDBRANCH  22  26
BRANCH  24  28
ATOM     28  O   UNL     1     -11.274  -4.937  -3.617  0.00  0.00    +0.000 OA
ATOM     29  H   UNL     1     -10.795  -5.635  -4.102  0.00  0.00    +0.000 HD
ENDBRANCH  24  28
ENDBRANCH  18  20
ENDBRANCH   5  19
TORSDOF 8
ENDMDL
MODEL 4
REMARK VINA RESULT:      -6.6      4.021      7.738
REMARK  Name = 969516_Curcumin.pdbqt.pdb
REMARK  8 active torsions:
REMARK  status: ('A' for Active; 'I' for Inactive)
REMARK    1  A    between atoms: C_3  and  C_5
REMARK    2  A    between atoms: C_4  and  C_6
REMARK    3  A    between atoms: C_8  and  O_12
REMARK    4  A    between atoms: C_10  and  O_14
REMARK    5  A    between atoms: C_17  and  C_19
REMARK    6  A    between atoms: C_18  and  C_20
REMARK    7  A    between atoms: C_22  and  O_26
REMARK    8  A    between atoms: C_24  and  O_28
REMARK                            x       y       z     vdW  Elec       q    Type
REMARK                         _______ _______ _______ _____ _____    ______ ____
ROOT
ATOM      1  C   UNL     1       2.080   1.907   0.929  0.00  0.00    +0.000 C 
ATOM      2  O   UNL     1       3.278   0.092   1.654  0.00  0.00    +0.000 OA
ATOM      3  C   UNL     1       3.303   1.225   1.197  0.00  0.00    +0.000 C 
ATOM      4  O   UNL     1       0.859   3.799   0.500  0.00  0.00    +0.000 OA
ATOM      5  C   UNL     1       0.857   2.588   0.665  0.00  0.00    +0.000 C 
ENDROOT
BRANCH   3   7
ATOM      6  C   UNL     1       5.608   2.416   0.696  0.00  0.00    +0.000 C 
ATOM      7  C   UNL     1       4.560   1.875   0.924  0.00  0.00    +0.000 C 
BRANCH   6   8
ATOM      8  C   UNL     1       6.852   3.059   0.423  0.00  0.00    +0.000 A 
ATOM      9  C   UNL     1       8.035   2.322   0.448  0.00  0.00    +0.000 A 
ATOM     10  C   UNL     1       9.263   2.936   0.183  0.00  0.00    +0.000 A 
ATOM     11  C   UNL     1       6.883   4.421   0.133  0.00  0.00    +0.000 A 
ATOM     12  C   UNL     1       9.282   4.304  -0.108  0.00  0.00    +0.000 A 
ATOM     13  C   UNL     1       8.099   5.043  -0.133  0.00  0.00    +0.000 A 
BRANCH  10  14
ATOM     14  O   UNL     1      10.466   2.276   0.188  0.00  0.00    +0.000 OA
ATOM     15  C   UNL     1      10.582   1.215   1.093  0.00  0.00    +0.000 C 
ENDBRANCH  10  14
BRANCH  12  16
ATOM     16  O   UNL     1      10.433   4.991  -0.379  0.00  0.00    +0.000 OA
ATOM     17  H   UNL     1      10.549   5.100  -1.338  0.00  0.00    +0.000 HD
ENDBRANCH  12  16
ENDBRANCH   6   8
ENDBRANCH   3   7
BRANCH   5  19
ATOM     18  C   UNL     1      -1.404   1.227   0.530  0.00  0.00    +0.000 C 
ATOM     19  C   UNL     1      -0.375   1.844   0.593  0.00  0.00    +0.000 C 
BRANCH  18  20
ATOM     20  C   UNL     1      -2.628   0.498   0.457  0.00  0.00    +0.000 A 
ATOM     21  C   UNL     1      -3.841   1.157   0.652  0.00  0.00    +0.000 A 
ATOM     22  C   UNL     1      -5.048   0.456   0.582  0.00  0.00    +0.000 A 
ATOM     23  C   UNL     1      -2.609  -0.869   0.188  0.00  0.00    +0.000 A 
ATOM     24  C   UNL     1      -5.015  -0.914   0.312  0.00  0.00    +0.000 A 
ATOM     25  C   UNL     1      -3.805  -1.577   0.116  0.00  0.00    +0.000 A 
BRANCH  22  26
ATOM     26  O   UNL     1      -6.285   1.027   0.762  0.00  0.00    +0.000 OA
ATOM     27  C   UNL     1      -6.590   1.408   2.078  0.00  0.00    +0.000 C 
ENDBRANCH  22  26
BRANCH  24  28
ATOM     28  O   UNL     1      -6.187  -1.617   0.240  0.00  0.00    +0.000 OA
ATOM     29  H   UNL     1      -6.835  -1.206   0.842  0.00  0.00    +0.000 HD
ENDBRANCH  24  28
ENDBRANCH  18  20
ENDBRANCH   5  19
TORSDOF 8
ENDMDL
MODEL 5
REMARK VINA RESULT:      -6.5      5.087      8.963
REMARK  Name = 969516_Curcumin.pdbqt.pdb
REMARK  8 active torsions:
REMARK  status: ('A' for Active; 'I' for Inactive)
REMARK    1  A    between atoms: C_3  and  C_5
REMARK    2  A    between atoms: C_4  and  C_6
REMARK    3  A    between atoms: C_8  and  O_12
REMARK    4  A    between atoms: C_10  and  O_14
REMARK    5  A    between atoms: C_17  and  C_19
REMARK    6  A    between atoms: C_18  and  C_20
REMARK    7  A    between atoms: C_22  and  O_26
REMARK    8  A    between atoms: C_24  and  O_28
REMARK                            x       y       z     vdW  Elec       q    Type
REMARK                         _______ _______ _______ _____ _____    ______ ____
ROOT
ATOM      1  C   UNL     1       2.288   3.048   0.734  0.00  0.00    +0.000 C 
ATOM      2  O   UNL     1       3.870   2.233   2.179  0.00  0.00    +0.000 OA
ATOM      3  C   UNL     1       3.633   2.906   1.187  0.00  0.00    +0.000 C 
ATOM      4  O   UNL     1       0.659   4.083  -0.502  0.00  0.00    +0.000 OA
ATOM      5  C   UNL     1       0.944   3.192   0.285  0.00  0.00    +0.000 C 
ENDROOT
BRANCH   3   7
ATOM      6  C   UNL     1       5.594   4.094  -0.127  0.00  0.00    +0.000 C 
ATOM      7  C   UNL     1       4.702   3.554   0.471  0.00  0.00    +0.000 C 
BRANCH   6   8
ATOM      8  C   UNL     1       6.652   4.733  -0.838  0.00  0.00    +0.000 A 
ATOM      9  C   UNL     1       7.614   5.464  -0.142  0.00  0.00    +0.000 A 
ATOM     10  C   UNL     1       8.658   6.098  -0.823  0.00  0.00    +0.000 A 
ATOM     11  C   UNL     1       6.722   4.628  -2.224  0.00  0.00    +0.000 A 
ATOM     12  C   UNL     1       8.719   5.985  -2.216  0.00  0.00    +0.000 A 
ATOM     13  C   UNL     1       7.757   5.254  -2.913  0.00  0.00    +0.000 A 
BRANCH  10  14
ATOM     14  O   UNL     1       9.641   6.832  -0.207  0.00  0.00    +0.000 OA
ATOM     15  C   UNL     1       9.203   7.858   0.639  0.00  0.00    +0.000 C 
ENDBRANCH  10  14
BRANCH  12  16
ATOM     16  O   UNL     1       9.701   6.568  -2.967  0.00  0.00    +0.000 OA
ATOM     17  H   UNL     1       9.382   6.749  -3.868  0.00  0.00    +0.000 HD
ENDBRANCH  12  16
ENDBRANCH   6   8
ENDBRANCH   3   7
BRANCH   5  19
ATOM     18  C   UNL     1      -0.913   1.528   1.158  0.00  0.00    +0.000 C 
ATOM     19  C   UNL     1      -0.070   2.286   0.760  0.00  0.00    +0.000 C 
BRANCH  18  20
ATOM     20  C   UNL     1      -1.911   0.624   1.629  0.00  0.00    +0.000 A 
ATOM     21  C   UNL     1      -2.174   0.531   2.995  0.00  0.00    +0.000 A 
ATOM     22  C   UNL     1      -3.149  -0.349   3.472  0.00  0.00    +0.000 A 
ATOM     23  C   UNL     1      -2.621  -0.163   0.724  0.00  0.00    +0.000 A 
ATOM     24  C   UNL     1      -3.853  -1.132   2.554  0.00  0.00    +0.000 A 
ATOM     25  C   UNL     1      -3.594  -1.043   1.187  0.00  0.00    +0.000 A 
BRANCH  22  26
ATOM     26  O   UNL     1      -3.470  -0.503   4.799  0.00  0.00    +0.000 OA
ATOM     27  C   UNL     1      -2.541  -1.223   5.566  0.00  0.00    +0.000 C 
ENDBRANCH  22  26
BRANCH  24  28
ATOM     28  O   UNL     1      -4.812  -2.000   3.001  0.00  0.00    +0.000 OA
ATOM     29  H   UNL     1      -5.524  -1.486   3.426  0.00  0.00    +0.000 HD
ENDBRANCH  24  28
ENDBRANCH  18  20
ENDBRANCH   5  19
TORSDOF 8
ENDMDL
MODEL 6
REMARK VINA RESULT:      -6.5      2.707     11.706
REMARK  Name = 969516_Curcumin.pdbqt.pdb
REMARK  8 active torsions:
REMARK  status: ('A' for Active; 'I' for Inactive)
REMARK    1  A    between atoms: C_3  and  C_5
REMARK    2  A    between atoms: C_4  and  C_6
REMARK    3  A    between atoms: C_8  and  O_12
REMARK    4  A    between atoms: C_10  and  O_14
REMARK    5  A    between atoms: C_17  and  C_19
REMARK    6  A    between atoms: C_18  and  C_20
REMARK    7  A    between atoms: C_22  and  O_26
REMARK    8  A    between atoms: C_24  and  O_28
REMARK                            x       y       z     vdW  Elec       q    Type
REMARK                         _______ _______ _______ _____ _____    ______ ____
ROOT
ATOM      1  C   UNL     1      -4.475   0.396   0.615  0.00  0.00    +0.000 C 
ATOM      2  O   UNL     1      -5.683   2.250   1.212  0.00  0.00    +0.000 OA
ATOM      3  C   UNL     1      -5.700   1.106   0.785  0.00  0.00    +0.000 C 
ATOM      4  O   UNL     1      -3.265  -1.527   0.318  0.00  0.00    +0.000 OA
ATOM      5  C   UNL     1      -3.250  -0.312   0.450  0.00  0.00    +0.000 C 
ENDROOT
BRANCH   3   7
ATOM      6  C   UNL     1      -7.989  -0.062   0.168  0.00  0.00    +0.000 C 
ATOM      7  C   UNL     1      -6.948   0.469   0.448  0.00  0.00    +0.000 C 
BRANCH   6   8
ATOM      8  C   UNL     1      -9.225  -0.693  -0.163  0.00  0.00    +0.000 A 
ATOM      9  C   UNL     1     -10.317   0.080  -0.554  0.00  0.00    +0.000 A 
ATOM     10  C   UNL     1     -11.535  -0.522  -0.881  0.00  0.00    +0.000 A 
ATOM     11  C   UNL     1      -9.339  -2.079  -0.094  0.00  0.00    +0.000 A 
ATOM     12  C   UNL     1     -11.638  -1.915  -0.809  0.00  0.00    +0.000 A 
ATOM     13  C   UNL     1     -10.547  -2.690  -0.418  0.00  0.00    +0.000 A 
BRANCH  10  14
ATOM     14  O   UNL     1     -12.652   0.173  -1.275  0.00  0.00    +0.000 OA
ATOM     15  C   UNL     1     -13.248   0.983  -0.302  0.00  0.00    +0.000 C 
ENDBRANCH  10  14
BRANCH  12  16
ATOM     16  O   UNL     1     -12.788  -2.592  -1.110  0.00  0.00    +0.000 OA
ATOM     17  H   UNL     1     -13.358  -2.060  -1.690  0.00  0.00    +0.000 HD
ENDBRANCH  12  16
ENDBRANCH   6   8
ENDBRANCH   3   7
BRANCH   5  19
ATOM     18  C   UNL     1      -0.962   1.010   0.433  0.00  0.00    +0.000 C 
ATOM     19  C   UNL     1      -2.002   0.408   0.439  0.00  0.00    +0.000 C 
BRANCH  18  20
ATOM     20  C   UNL     1       0.270   1.728   0.429  0.00  0.00    +0.000 A 
ATOM     21  C   UNL     1       1.413   1.147   0.976  0.00  0.00    +0.000 A 
ATOM     22  C   UNL     1       2.628   1.838   0.979  0.00  0.00    +0.000 A 
ATOM     23  C   UNL     1       0.329   3.006  -0.121  0.00  0.00    +0.000 A 
ATOM     24  C   UNL     1       2.673   3.119   0.423  0.00  0.00    +0.000 A 
ATOM     25  C   UNL     1       1.533   3.704  -0.125  0.00  0.00    +0.000 A 
BRANCH  22  26
ATOM     26  O   UNL     1       3.800   1.341   1.496  0.00  0.00    +0.000 OA
ATOM     27  C   UNL     1       3.681   0.661   2.719  0.00  0.00    +0.000 C 
ENDBRANCH  22  26
BRANCH  24  28
ATOM     28  O   UNL     1       3.853   3.811   0.416  0.00  0.00    +0.000 OA
ATOM     29  H   UNL     1       4.300   3.660  -0.438  0.00  0.00    +0.000 HD
ENDBRANCH  24  28
ENDBRANCH  18  20
ENDBRANCH   5  19
TORSDOF 8
ENDMDL
MODEL 7
REMARK VINA RESULT:      -6.3     17.982     20.459
REMARK  Name = 969516_Curcumin.pdbqt.pdb
REMARK  8 active torsions:
REMARK  status: ('A' for Active; 'I' for Inactive)
REMARK    1  A    between atoms: C_3  and  C_5
REMARK    2  A    between atoms: C_4  and  C_6
REMARK    3  A    between atoms: C_8  and  O_12
REMARK    4  A    between atoms: C_10  and  O_14
REMARK    5  A    between atoms: C_17  and  C_19
REMARK    6  A    between atoms: C_18  and  C_20
REMARK    7  A    between atoms: C_22  and  O_26
REMARK    8  A    between atoms: C_24  and  O_28
REMARK                            x       y       z     vdW  Elec       q    Type
REMARK                         _______ _______ _______ _____ _____    ______ ____
ROOT
ATOM      1  C   UNL     1       3.336   1.127 -18.787  0.00  0.00    +0.000 C 
ATOM      2  O   UNL     1       4.115   1.032 -16.633  0.00  0.00    +0.000 OA
ATOM      3  C   UNL     1       4.375   1.213 -17.813  0.00  0.00    +0.000 C 
ATOM      4  O   UNL     1       2.471   1.510 -20.874  0.00  0.00    +0.000 OA
ATOM      5  C   UNL     1       2.297   1.045 -19.757  0.00  0.00    +0.000 C 
ENDROOT
BRANCH   3   7
ATOM      6  C   UNL     1       6.846   1.755 -18.576  0.00  0.00    +0.000 C 
ATOM      7  C   UNL     1       5.723   1.508 -18.228  0.00  0.00    +0.000 C 
BRANCH   6   8
ATOM      8  C   UNL     1       8.179   2.050 -18.988  0.00  0.00    +0.000 A 
ATOM      9  C   UNL     1       9.221   1.995 -18.063  0.00  0.00    +0.000 A 
ATOM     10  C   UNL     1      10.533   2.281 -18.450  0.00  0.00    +0.000 A 
ATOM     11  C   UNL     1       8.438   2.393 -20.312  0.00  0.00    +0.000 A 
ATOM     12  C   UNL     1      10.782   2.623 -19.783  0.00  0.00    +0.000 A 
ATOM     13  C   UNL     1       9.741   2.679 -20.710  0.00  0.00    +0.000 A 
BRANCH  10  14
ATOM     14  O   UNL     1      11.609   2.246 -17.598  0.00  0.00    +0.000 OA
ATOM     15  C   UNL     1      11.315   2.039 -16.245  0.00  0.00    +0.000 C 
ENDBRANCH  10  14
BRANCH  12  16
ATOM     16  O   UNL     1      12.032   2.919 -20.255  0.00  0.00    +0.000 OA
ATOM     17  H   UNL     1      12.710   2.678 -19.602  0.00  0.00    +0.000 HD
ENDBRANCH  12  16
ENDBRANCH   6   8
ENDBRANCH   3   7
BRANCH   5  19
ATOM     18  C   UNL     1       0.008  -0.116 -19.130  0.00  0.00    +0.000 C 
ATOM     19  C   UNL     1       1.047   0.414 -19.416  0.00  0.00    +0.000 C 
BRANCH  18  20
ATOM     20  C   UNL     1      -1.225  -0.750 -18.794  0.00  0.00    +0.000 A 
ATOM     21  C   UNL     1      -2.124  -0.111 -17.941  0.00  0.00    +0.000 A 
ATOM     22  C   UNL     1      -3.336  -0.719 -17.603  0.00  0.00    +0.000 A 
ATOM     23  C   UNL     1      -1.529  -2.004 -19.319  0.00  0.00    +0.000 A 
ATOM     24  C   UNL     1      -3.628  -1.976 -18.136  0.00  0.00    +0.000 A 
ATOM     25  C   UNL     1      -2.733  -2.619 -18.990  0.00  0.00    +0.000 A 
BRANCH  22  26
ATOM     26  O   UNL     1      -4.276  -0.160 -16.770  0.00  0.00    +0.000 OA
ATOM     27  C   UNL     1      -4.173  -0.517 -15.416  0.00  0.00    +0.000 C 
ENDBRANCH  22  26
BRANCH  24  28
ATOM     28  O   UNL     1      -4.810  -2.587 -17.817  0.00  0.00    +0.000 OA
ATOM     29  H   UNL     1      -5.514  -1.912 -17.789  0.00  0.00    +0.000 HD
ENDBRANCH  24  28
ENDBRANCH  18  20
ENDBRANCH   5  19
TORSDOF 8
ENDMDL
MODEL 8
REMARK VINA RESULT:      -6.2     18.254     19.388
REMARK  Name = 969516_Curcumin.pdbqt.pdb
REMARK  8 active torsions:
REMARK  status: ('A' for Active; 'I' for Inactive)
REMARK    1  A    between atoms: C_3  and  C_5
REMARK    2  A    between atoms: C_4  and  C_6
REMARK    3  A    between atoms: C_8  and  O_12
REMARK    4  A    between atoms: C_10  and  O_14
REMARK    5  A    between atoms: C_17  and  C_19
REMARK    6  A    between atoms: C_18  and  C_20
REMARK    7  A    between atoms: C_22  and  O_26
REMARK    8  A    between atoms: C_24  and  O_28
REMARK                            x       y       z     vdW  Elec       q    Type
REMARK                         _______ _______ _______ _____ _____    ______ ____
ROOT
ATOM      1  C   UNL     1      -2.470  -1.825 -18.559  0.00  0.00    +0.000 C 
ATOM      2  O   UNL     1      -1.409  -3.379 -19.867  0.00  0.00    +0.000 OA
ATOM      3  C   UNL     1      -1.324  -2.337 -19.236  0.00  0.00    +0.000 C 
ATOM      4  O   UNL     1      -3.479  -0.463 -17.016  0.00  0.00    +0.000 OA
ATOM      5  C   UNL     1      -3.615  -1.318 -17.879  0.00  0.00    +0.000 C 
ENDROOT
BRANCH   3   7
ATOM      6  C   UNL     1       0.963  -1.019 -19.122  0.00  0.00    +0.000 C 
ATOM      7  C   UNL     1      -0.077  -1.618 -19.175  0.00  0.00    +0.000 C 
BRANCH   6   8
ATOM      8  C   UNL     1       2.199  -0.309 -19.059  0.00  0.00    +0.000 A 
ATOM      9  C   UNL     1       2.850   0.059 -20.236  0.00  0.00    +0.000 A 
ATOM     10  C   UNL     1       4.062   0.755 -20.192  0.00  0.00    +0.000 A 
ATOM     11  C   UNL     1       2.753   0.015 -17.824  0.00  0.00    +0.000 A 
ATOM     12  C   UNL     1       4.608   1.076 -18.946  0.00  0.00    +0.000 A 
ATOM     13  C   UNL     1       3.959   0.709 -17.768  0.00  0.00    +0.000 A 
BRANCH  10  14
ATOM     14  O   UNL     1       4.758   1.151 -21.307  0.00  0.00    +0.000 OA
ATOM     15  C   UNL     1       4.479   0.452 -22.488  0.00  0.00    +0.000 C 
ENDBRANCH  10  14
BRANCH  12  16
ATOM     16  O   UNL     1       5.788   1.754 -18.803  0.00  0.00    +0.000 OA
ATOM     17  H   UNL     1       6.527   1.135 -18.686  0.00  0.00    +0.000 HD
ENDBRANCH  12  16
ENDBRANCH   6   8
ENDBRANCH   3   7
BRANCH   5  19
ATOM     18  C   UNL     1      -6.017  -2.231 -18.491  0.00  0.00    +0.000 C 
ATOM     19  C   UNL     1      -4.925  -1.815 -18.215  0.00  0.00    +0.000 C 
BRANCH  18  20
ATOM     20  C   UNL     1      -7.313  -2.730 -18.818  0.00  0.00    +0.000 A 
ATOM     21  C   UNL     1      -8.424  -1.894 -18.719  0.00  0.00    +0.000 A 
ATOM     22  C   UNL     1      -9.700  -2.369 -19.036  0.00  0.00    +0.000 A 
ATOM     23  C   UNL     1      -7.465  -4.051 -19.236  0.00  0.00    +0.000 A 
ATOM     24  C   UNL     1      -9.838  -3.695 -19.454  0.00  0.00    +0.000 A 
ATOM     25  C   UNL     1      -8.731  -4.535 -19.555  0.00  0.00    +0.000 A 
BRANCH  22  26
ATOM     26  O   UNL     1     -10.846  -1.614 -18.965  0.00  0.00    +0.000 OA
ATOM     27  C   UNL     1     -10.780  -0.490 -18.126  0.00  0.00    +0.000 C 
ENDBRANCH  22  26
BRANCH  24  28
ATOM     28  O   UNL     1     -11.079  -4.177 -19.769  0.00  0.00    +0.000 OA
ATOM     29  H   UNL     1     -11.305  -3.893 -20.675  0.00  0.00    +0.000 HD
ENDBRANCH  24  28
ENDBRANCH  18  20
ENDBRANCH   5  19
TORSDOF 8
ENDMDL
MODEL 9
REMARK VINA RESULT:      -6.0     18.275     20.585
REMARK  Name = 969516_Curcumin.pdbqt.pdb
REMARK  8 active torsions:
REMARK  status: ('A' for Active; 'I' for Inactive)
REMARK    1  A    between atoms: C_3  and  C_5
REMARK    2  A    between atoms: C_4  and  C_6
REMARK    3  A    between atoms: C_8  and  O_12
REMARK    4  A    between atoms: C_10  and  O_14
REMARK    5  A    between atoms: C_17  and  C_19
REMARK    6  A    between atoms: C_18  and  C_20
REMARK    7  A    between atoms: C_22  and  O_26
REMARK    8  A    between atoms: C_24  and  O_28
REMARK                            x       y       z     vdW  Elec       q    Type
REMARK                         _______ _______ _______ _____ _____    ______ ____
ROOT
ATOM      1  C   UNL     1       2.637   0.987 -18.843  0.00  0.00    +0.000 C 
ATOM      2  O   UNL     1       3.551   0.215 -16.888  0.00  0.00    +0.000 OA
ATOM      3  C   UNL     1       3.739   0.750 -17.970  0.00  0.00    +0.000 C 
ATOM      4  O   UNL     1       1.651   2.014 -20.639  0.00  0.00    +0.000 OA
ATOM      5  C   UNL     1       1.533   1.227 -19.711  0.00  0.00    +0.000 C 
ENDROOT
BRANCH   3   7
ATOM      6  C   UNL     1       6.174   1.465 -18.706  0.00  0.00    +0.000 C 
ATOM      7  C   UNL     1       5.067   1.140 -18.372  0.00  0.00    +0.000 C 
BRANCH   6   8
ATOM      8  C   UNL     1       7.490   1.849 -19.102  0.00  0.00    +0.000 A 
ATOM      9  C   UNL     1       8.520   1.868 -18.163  0.00  0.00    +0.000 A 
ATOM     10  C   UNL     1       9.815   2.242 -18.534  0.00  0.00    +0.000 A 
ATOM     11  C   UNL     1       7.743   2.205 -20.424  0.00  0.00    +0.000 A 
ATOM     12  C   UNL     1      10.058   2.597 -19.864  0.00  0.00    +0.000 A 
ATOM     13  C   UNL     1       9.028   2.579 -20.805  0.00  0.00    +0.000 A 
BRANCH  10  14
ATOM     14  O   UNL     1      10.879   2.283 -17.667  0.00  0.00    +0.000 OA
ATOM     15  C   UNL     1      10.664   1.723 -16.402  0.00  0.00    +0.000 C 
ENDBRANCH  10  14
BRANCH  12  16
ATOM     16  O   UNL     1      11.290   2.977 -20.321  0.00  0.00    +0.000 OA
ATOM     17  H   UNL     1      11.205   3.579 -21.078  0.00  0.00    +0.000 HD
ENDBRANCH  12  16
ENDBRANCH   6   8
ENDBRANCH   3   7
BRANCH   5  19
ATOM     18  C   UNL     1      -0.753  -0.034 -19.303  0.00  0.00    +0.000 C 
ATOM     19  C   UNL     1       0.286   0.540 -19.491  0.00  0.00    +0.000 C 
BRANCH  18  20
ATOM     20  C   UNL     1      -1.983  -0.718 -19.077  0.00  0.00    +0.000 A 
ATOM     21  C   UNL     1      -2.614  -1.378 -20.131  0.00  0.00    +0.000 A 
ATOM     22  C   UNL     1      -3.820  -2.054 -19.925  0.00  0.00    +0.000 A 
ATOM     23  C   UNL     1      -2.553  -0.726 -17.805  0.00  0.00    +0.000 A 
ATOM     24  C   UNL     1      -4.379  -2.054 -18.645  0.00  0.00    +0.000 A 
ATOM     25  C   UNL     1      -3.753  -1.395 -17.588  0.00  0.00    +0.000 A 
BRANCH  22  26
ATOM     26  O   UNL     1      -4.506  -2.728 -20.906  0.00  0.00    +0.000 OA
ATOM     27  C   UNL     1      -4.147  -2.409 -22.225  0.00  0.00    +0.000 C 
ENDBRANCH  22  26
BRANCH  24  28
ATOM     28  O   UNL     1      -5.560  -2.709 -18.424  0.00  0.00    +0.000 OA
ATOM     29  H   UNL     1      -5.734  -3.303 -19.178  0.00  0.00    +0.000 HD
ENDBRANCH  24  28
ENDBRANCH  18  20
ENDBRANCH   5  19
TORSDOF 8
ENDMDL
