MODEL 1
REMARK VINA RESULT:      -3.5      0.000      0.000
REMARK  Name = 971_OxalicAcid.pdbqt.pdb
REMARK  3 active torsions:
REMARK  status: ('A' for Active; 'I' for Inactive)
REMARK    1  A    between atoms: C_2  and  O_3
REMARK    2  A    between atoms: C_2  and  C_6
REMARK    3  A    between atoms: C_6  and  O_7
REMARK                            x       y       z     vdW  Elec       q    Type
REMARK                         _______ _______ _______ _____ _____    ______ ____
ROOT
ATOM      1  O   UNL     1      15.067   3.995  -4.806  0.00  0.00    +0.000 OA
ATOM      2  C   UNL     1      15.028   3.794  -6.004  0.00  0.00    +0.000 C 
ENDROOT
BRANCH   2   3
ATOM      3  O   UNL     1      15.943   3.039  -6.626  0.00  0.00    +0.000 OA
ATOM      4  H   UNL     1      15.459   2.633  -7.373  0.00  0.00    +0.000 HD
ENDBRANCH   2   3
BRANCH   2   6
ATOM      5  O   UNL     1      13.630   3.861  -8.041  0.00  0.00    +0.000 OA
ATOM      6  C   UNL     1      13.951   4.360  -6.980  0.00  0.00    +0.000 C 
BRANCH   6   7
ATOM      7  O   UNL     1      13.386   5.489  -6.529  0.00  0.00    +0.000 OA
ATOM      8  H   UNL     1      12.510   5.516  -6.964  0.00  0.00    +0.000 HD
ENDBRANCH   6   7
ENDBRANCH   2   6
TORSDOF 3
ENDMDL
MODEL 2
REMARK VINA RESULT:      -3.5      0.537      2.539
REMARK  Name = 971_OxalicAcid.pdbqt.pdb
REMARK  3 active torsions:
REMARK  status: ('A' for Active; 'I' for Inactive)
REMARK    1  A    between atoms: C_2  and  O_3
REMARK    2  A    between atoms: C_2  and  C_6
REMARK    3  A    between atoms: C_6  and  O_7
REMARK                            x       y       z     vdW  Elec       q    Type
REMARK                         _______ _______ _______ _____ _____    ______ ____
ROOT
ATOM      1  O   UNL     1      13.679   5.815  -6.957  0.00  0.00    +0.000 OA
ATOM      2  C   UNL     1      13.879   4.622  -6.845  0.00  0.00    +0.000 C 
ENDROOT
BRANCH   2   3
ATOM      3  O   UNL     1      13.218   3.720  -7.584  0.00  0.00    +0.000 OA
ATOM      4  H   UNL     1      13.484   3.915  -8.505  0.00  0.00    +0.000 HD
ENDBRANCH   2   3
BRANCH   2   6
ATOM      5  O   UNL     1      15.577   2.986  -6.103  0.00  0.00    +0.000 OA
ATOM      6  C   UNL     1      14.897   3.964  -5.863  0.00  0.00    +0.000 C 
BRANCH   6   7
ATOM      7  O   UNL     1      14.960   4.598  -4.683  0.00  0.00    +0.000 OA
ATOM      8  H   UNL     1      15.265   5.500  -4.905  0.00  0.00    +0.000 HD
ENDBRANCH   6   7
ENDBRANCH   2   6
TORSDOF 3
ENDMDL
MODEL 3
REMARK VINA RESULT:      -3.2      9.281     10.192
REMARK  Name = 971_OxalicAcid.pdbqt.pdb
REMARK  3 active torsions:
REMARK  status: ('A' for Active; 'I' for Inactive)
REMARK    1  A    between atoms: C_2  and  O_3
REMARK    2  A    between atoms: C_2  and  C_6
REMARK    3  A    between atoms: C_6  and  O_7
REMARK                            x       y       z     vdW  Elec       q    Type
REMARK                         _______ _______ _______ _____ _____    ______ ____
ROOT
ATOM      1  O   UNL     1       9.799   1.160 -16.051  0.00  0.00    +0.000 OA
ATOM      2  C   UNL     1      10.760   1.515 -15.397  0.00  0.00    +0.000 C 
ENDROOT
BRANCH   2   3
ATOM      3  O   UNL     1      10.638   1.947 -14.134  0.00  0.00    +0.000 OA
ATOM      4  H   UNL     1      11.061   2.829 -14.135  0.00  0.00    +0.000 HD
ENDBRANCH   2   3
BRANCH   2   6
ATOM      5  O   UNL     1      12.589   1.459 -17.058  0.00  0.00    +0.000 OA
ATOM      6  C   UNL     1      12.238   1.526 -15.897  0.00  0.00    +0.000 C 
BRANCH   6   7
ATOM      7  O   UNL     1      13.122   1.619 -14.894  0.00  0.00    +0.000 OA
ATOM      8  H   UNL     1      13.423   2.550 -14.918  0.00  0.00    +0.000 HD
ENDBRANCH   6   7
ENDBRANCH   2   6
TORSDOF 3
ENDMDL
MODEL 4
REMARK VINA RESULT:      -3.2     30.642     31.146
REMARK  Name = 971_OxalicAcid.pdbqt.pdb
REMARK  3 active torsions:
REMARK  status: ('A' for Active; 'I' for Inactive)
REMARK    1  A    between atoms: C_2  and  O_3
REMARK    2  A    between atoms: C_2  and  C_6
REMARK    3  A    between atoms: C_6  and  O_7
REMARK                            x       y       z     vdW  Elec       q    Type
REMARK                         _______ _______ _______ _____ _____    ______ ____
ROOT
ATOM      1  O   UNL     1     -14.662  -4.432  -9.128  0.00  0.00    +0.000 OA
ATOM      2  C   UNL     1     -15.115  -4.299  -8.008  0.00  0.00    +0.000 C 
ENDROOT
BRANCH   2   3
ATOM      3  O   UNL     1     -14.884  -5.194  -7.038  0.00  0.00    +0.000 OA
ATOM      4  H   UNL     1     -15.396  -4.865  -6.273  0.00  0.00    +0.000 HD
ENDBRANCH   2   3
BRANCH   2   6
ATOM      5  O   UNL     1     -16.363  -2.176  -8.219  0.00  0.00    +0.000 OA
ATOM      6  C   UNL     1     -16.007  -3.111  -7.529  0.00  0.00    +0.000 C 
BRANCH   6   7
ATOM      7  O   UNL     1     -16.361  -3.217  -6.241  0.00  0.00    +0.000 OA
ATOM      8  H   UNL     1     -15.616  -2.818  -5.749  0.00  0.00    +0.000 HD
ENDBRANCH   6   7
ENDBRANCH   2   6
TORSDOF 3
ENDMDL
MODEL 5
REMARK VINA RESULT:      -3.2      9.186      9.825
REMARK  Name = 971_OxalicAcid.pdbqt.pdb
REMARK  3 active torsions:
REMARK  status: ('A' for Active; 'I' for Inactive)
REMARK    1  A    between atoms: C_2  and  O_3
REMARK    2  A    between atoms: C_2  and  C_6
REMARK    3  A    between atoms: C_6  and  O_7
REMARK                            x       y       z     vdW  Elec       q    Type
REMARK                         _______ _______ _______ _____ _____    ______ ____
ROOT
ATOM      1  O   UNL     1       8.528  -2.738  -7.552  0.00  0.00    +0.000 OA
ATOM      2  C   UNL     1       9.081  -3.447  -6.734  0.00  0.00    +0.000 C 
ENDROOT
BRANCH   2   3
ATOM      3  O   UNL     1       8.734  -3.438  -5.439  0.00  0.00    +0.000 OA
ATOM      4  H   UNL     1       7.801  -3.145  -5.438  0.00  0.00    +0.000 HD
ENDBRANCH   2   3
BRANCH   2   6
ATOM      5  O   UNL     1      11.427  -4.191  -6.959  0.00  0.00    +0.000 OA
ATOM      6  C   UNL     1      10.241  -4.444  -7.039  0.00  0.00    +0.000 C 
BRANCH   6   7
ATOM      7  O   UNL     1       9.799  -5.653  -7.412  0.00  0.00    +0.000 OA
ATOM      8  H   UNL     1       8.835  -5.535  -7.532  0.00  0.00    +0.000 HD
ENDBRANCH   6   7
ENDBRANCH   2   6
TORSDOF 3
ENDMDL
MODEL 6
REMARK VINA RESULT:      -3.1     24.696     25.588
REMARK  Name = 971_OxalicAcid.pdbqt.pdb
REMARK  3 active torsions:
REMARK  status: ('A' for Active; 'I' for Inactive)
REMARK    1  A    between atoms: C_2  and  O_3
REMARK    2  A    between atoms: C_2  and  C_6
REMARK    3  A    between atoms: C_6  and  O_7
REMARK                            x       y       z     vdW  Elec       q    Type
REMARK                         _______ _______ _______ _____ _____    ______ ____
ROOT
ATOM      1  O   UNL     1     -12.473   5.899  -8.463  0.00  0.00    +0.000 OA
ATOM      2  C   UNL     1     -11.372   5.642  -8.910  0.00  0.00    +0.000 C 
ENDROOT
BRANCH   2   3
ATOM      3  O   UNL     1     -10.861   6.301  -9.959  0.00  0.00    +0.000 OA
ATOM      4  H   UNL     1     -11.478   6.108 -10.694  0.00  0.00    +0.000 HD
ENDBRANCH   2   3
BRANCH   2   6
ATOM      5  O   UNL     1     -10.074   3.540  -8.954  0.00  0.00    +0.000 OA
ATOM      6  C   UNL     1     -10.407   4.546  -8.360  0.00  0.00    +0.000 C 
BRANCH   6   7
ATOM      7  O   UNL     1      -9.961   4.823  -7.127  0.00  0.00    +0.000 OA
ATOM      8  H   UNL     1      -9.160   4.270  -7.026  0.00  0.00    +0.000 HD
ENDBRANCH   6   7
ENDBRANCH   2   6
TORSDOF 3
ENDMDL
MODEL 7
REMARK VINA RESULT:      -3.1     27.824     28.059
REMARK  Name = 971_OxalicAcid.pdbqt.pdb
REMARK  3 active torsions:
REMARK  status: ('A' for Active; 'I' for Inactive)
REMARK    1  A    between atoms: C_2  and  O_3
REMARK    2  A    between atoms: C_2  and  C_6
REMARK    3  A    between atoms: C_6  and  O_7
REMARK                            x       y       z     vdW  Elec       q    Type
REMARK                         _______ _______ _______ _____ _____    ______ ____
ROOT
ATOM      1  O   UNL     1      -9.918  -2.870 -17.823  0.00  0.00    +0.000 OA
ATOM      2  C   UNL     1     -10.490  -2.003 -17.193  0.00  0.00    +0.000 C 
ENDROOT
BRANCH   2   3
ATOM      3  O   UNL     1     -10.862  -2.181 -15.918  0.00  0.00    +0.000 OA
ATOM      4  H   UNL     1     -11.495  -2.926 -15.949  0.00  0.00    +0.000 HD
ENDBRANCH   2   3
BRANCH   2   6
ATOM      5  O   UNL     1     -10.257   0.025 -18.586  0.00  0.00    +0.000 OA
ATOM      6  C   UNL     1     -10.872  -0.592 -17.739  0.00  0.00    +0.000 C 
BRANCH   6   7
ATOM      7  O   UNL     1     -11.983  -0.101 -17.171  0.00  0.00    +0.000 OA
ATOM      8  H   UNL     1     -12.215   0.676 -17.718  0.00  0.00    +0.000 HD
ENDBRANCH   6   7
ENDBRANCH   2   6
TORSDOF 3
ENDMDL
MODEL 8
REMARK VINA RESULT:      -3.0     21.183     21.974
REMARK  Name = 971_OxalicAcid.pdbqt.pdb
REMARK  3 active torsions:
REMARK  status: ('A' for Active; 'I' for Inactive)
REMARK    1  A    between atoms: C_2  and  O_3
REMARK    2  A    between atoms: C_2  and  C_6
REMARK    3  A    between atoms: C_6  and  O_7
REMARK                            x       y       z     vdW  Elec       q    Type
REMARK                         _______ _______ _______ _____ _____    ______ ____
ROOT
ATOM      1  O   UNL     1      -4.222   0.715 -18.782  0.00  0.00    +0.000 OA
ATOM      2  C   UNL     1      -3.775   0.226 -17.763  0.00  0.00    +0.000 C 
ENDROOT
BRANCH   2   3
ATOM      3  O   UNL     1      -3.290   0.981 -16.768  0.00  0.00    +0.000 OA
ATOM      4  H   UNL     1      -3.620   0.554 -15.952  0.00  0.00    +0.000 HD
ENDBRANCH   2   3
BRANCH   2   6
ATOM      5  O   UNL     1      -2.827  -2.055 -17.849  0.00  0.00    +0.000 OA
ATOM      6  C   UNL     1      -3.694  -1.301 -17.453  0.00  0.00    +0.000 C 
BRANCH   6   7
ATOM      7  O   UNL     1      -4.705  -1.726 -16.681  0.00  0.00    +0.000 OA
ATOM      8  H   UNL     1      -5.160  -0.907 -16.401  0.00  0.00    +0.000 HD
ENDBRANCH   6   7
ENDBRANCH   2   6
TORSDOF 3
ENDMDL
MODEL 9
REMARK VINA RESULT:      -3.0      9.295     10.561
REMARK  Name = 971_OxalicAcid.pdbqt.pdb
REMARK  3 active torsions:
REMARK  status: ('A' for Active; 'I' for Inactive)
REMARK    1  A    between atoms: C_2  and  O_3
REMARK    2  A    between atoms: C_2  and  C_6
REMARK    3  A    between atoms: C_6  and  O_7
REMARK                            x       y       z     vdW  Elec       q    Type
REMARK                         _______ _______ _______ _____ _____    ______ ____
ROOT
ATOM      1  O   UNL     1      11.658   0.091 -17.577  0.00  0.00    +0.000 OA
ATOM      2  C   UNL     1      11.832   0.251 -16.385  0.00  0.00    +0.000 C 
ENDROOT
BRANCH   2   3
ATOM      3  O   UNL     1      11.942  -0.784 -15.540  0.00  0.00    +0.000 OA
ATOM      4  H   UNL     1      12.082  -0.371 -14.665  0.00  0.00    +0.000 HD
ENDBRANCH   2   3
BRANCH   2   6
ATOM      5  O   UNL     1      11.184   2.562 -15.799  0.00  0.00    +0.000 OA
ATOM      6  C   UNL     1      11.952   1.630 -15.666  0.00  0.00    +0.000 C 
BRANCH   6   7
ATOM      7  O   UNL     1      13.019   1.700 -14.858  0.00  0.00    +0.000 OA
ATOM      8  H   UNL     1      12.673   1.462 -13.974  0.00  0.00    +0.000 HD
ENDBRANCH   6   7
ENDBRANCH   2   6
TORSDOF 3
ENDMDL
