MODEL 1
REMARK VINA RESULT:      -6.9      0.000      0.000
REMARK  Name = 9852185_GambogicAcid.pdbqt.pdb
REMARK  10 active torsions:
REMARK  status: ('A' for Active; 'I' for Inactive)
REMARK    1  A    between atoms: C_8  and  C_30
REMARK    2  A    between atoms: C_20  and  C_38
REMARK    3  A    between atoms: C_21  and  O_28
REMARK    4  A    between atoms: C_25  and  C_43
REMARK    5  A    between atoms: C_31  and  C_32
REMARK    6  A    between atoms: C_32  and  C_35
REMARK    7  A    between atoms: C_35  and  O_36
REMARK    8  A    between atoms: C_39  and  C_40
REMARK    9  A    between atoms: C_43  and  C_44
REMARK   10  A    between atoms: C_45  and  C_46
REMARK                            x       y       z     vdW  Elec       q    Type
REMARK                         _______ _______ _______ _____ _____    ______ ____
ROOT
ATOM      1  O   UNL     1     -17.911   5.873 -11.482  0.00  0.00    +0.000 OA
ATOM      2  O   UNL     1     -15.441   6.150 -10.027  0.00  0.00    +0.000 OA
ATOM      3  O   UNL     1     -17.531   3.780 -13.838  0.00  0.00    +0.000 OA
ATOM      4  O   UNL     1     -11.905   5.156 -11.888  0.00  0.00    +0.000 OA
ATOM      5  O   UNL     1     -13.166   8.033  -6.304  0.00  0.00    +0.000 OA
ATOM      6  C   UNL     1     -15.520   5.830 -11.410  0.00  0.00    +0.000 C 
ATOM      7  C   UNL     1     -16.011   7.038 -12.285  0.00  0.00    +0.000 C 
ATOM      8  C   UNL     1     -16.814   4.981 -11.733  0.00  0.00    +0.000 C 
ATOM      9  C   UNL     1     -17.467   7.195 -11.833  0.00  0.00    +0.000 C 
ATOM     10  C   UNL     1     -15.770   6.677 -13.683  0.00  0.00    +0.000 C 
ATOM     11  C   UNL     1     -15.609   5.275 -14.025  0.00  0.00    +0.000 C 
ATOM     12  C   UNL     1     -14.258   5.153 -11.971  0.00  0.00    +0.000 C 
ATOM     13  C   UNL     1     -16.763   4.547 -13.279  0.00  0.00    +0.000 C 
ATOM     14  C   UNL     1     -14.409   4.841 -13.357  0.00  0.00    +0.000 C 
ATOM     15  C   UNL     1     -18.369   7.718 -12.961  0.00  0.00    +0.000 C 
ATOM     16  C   UNL     1     -17.545   8.118 -10.608  0.00  0.00    +0.000 C 
ATOM     17  C   UNL     1     -12.966   5.445 -11.352  0.00  0.00    +0.000 C 
ATOM     18  C   UNL     1     -14.228   6.452  -9.468  0.00  0.00    +0.000 A 
ATOM     19  C   UNL     1     -12.996   6.138 -10.057  0.00  0.00    +0.000 A 
ATOM     20  C   UNL     1     -14.266   7.078  -8.203  0.00  0.00    +0.000 A 
ATOM     21  C   UNL     1     -11.793   6.467  -9.411  0.00  0.00    +0.000 A 
ATOM     22  C   UNL     1     -13.074   7.405  -7.549  0.00  0.00    +0.000 A 
ATOM     23  C   UNL     1     -11.838   7.096  -8.170  0.00  0.00    +0.000 A 
ATOM     24  C   UNL     1     -10.705   7.472  -7.406  0.00  0.00    +0.000 C 
ATOM     25  C   UNL     1     -11.942   8.339  -5.525  0.00  0.00    +0.000 C 
ATOM     26  C   UNL     1     -10.774   7.973  -6.327  0.00  0.00    +0.000 C 
ATOM     27  C   UNL     1     -12.030   7.515  -4.215  0.00  0.00    +0.000 C 
ENDROOT
BRANCH  21  28
ATOM     28  O   UNL     1     -10.563   6.194  -9.949  0.00  0.00    +0.000 OA
ATOM     29  H   UNL     1      -9.986   6.988  -9.884  0.00  0.00    +0.000 HD
ENDBRANCH  21  28
BRANCH   8  30
ATOM     30  C   UNL     1     -16.939   3.799 -10.870  0.00  0.00    +0.000 C 
ATOM     31  C   UNL     1     -17.121   2.556  -9.985  0.00  0.00    +0.000 C 
BRANCH  31  32
ATOM     32  C   UNL     1     -17.331   1.512  -9.234  0.00  0.00    +0.000 C 
ATOM     33  C   UNL     1     -18.587   0.729  -9.568  0.00  0.00    +0.000 C 
BRANCH  32  35
ATOM     34  O   UNL     1     -16.135   0.025  -7.754  0.00  0.00    +0.000 OA
ATOM     35  C   UNL     1     -16.368   1.155  -8.157  0.00  0.00    +0.000 C 
BRANCH  35  36
ATOM     36  O   UNL     1     -15.723   2.210  -7.616  0.00  0.00    +0.000 OA
ATOM     37  H   UNL     1     -15.849   2.943  -8.255  0.00  0.00    +0.000 HD
ENDBRANCH  35  36
ENDBRANCH  32  35
ENDBRANCH  31  32
ENDBRANCH   8  30
BRANCH  20  38
ATOM     38  C   UNL     1     -15.528   7.381  -7.592  0.00  0.00    +0.000 C 
ATOM     39  C   UNL     1     -16.892   7.705  -6.965  0.00  0.00    +0.000 C 
BRANCH  39  40
ATOM     40  C   UNL     1     -18.053   7.975  -6.455  0.00  0.00    +0.000 C 
ATOM     41  C   UNL     1     -19.284   7.394  -7.083  0.00  0.00    +0.000 C 
ATOM     42  C   UNL     1     -18.139   8.647  -5.119  0.00  0.00    +0.000 C 
ENDBRANCH  39  40
ENDBRANCH  20  38
BRANCH  25  43
ATOM     43  C   UNL     1     -11.970   9.784  -5.231  0.00  0.00    +0.000 C 
BRANCH  43  44
ATOM     44  C   UNL     1     -12.001  11.285  -4.918  0.00  0.00    +0.000 C 
ATOM     45  C   UNL     1     -12.034  12.788  -4.604  0.00  0.00    +0.000 C 
BRANCH  45  46
ATOM     46  C   UNL     1     -12.063  14.058  -4.347  0.00  0.00    +0.000 C 
ATOM     47  C   UNL     1     -12.816  14.554  -3.150  0.00  0.00    +0.000 C 
ATOM     48  C   UNL     1     -11.503  15.036  -5.333  0.00  0.00    +0.000 C 
ENDBRANCH  45  46
ENDBRANCH  43  44
ENDBRANCH  25  43
TORSDOF 10
ENDMDL
MODEL 2
REMARK VINA RESULT:      -6.8     28.306     32.395
REMARK  Name = 9852185_GambogicAcid.pdbqt.pdb
REMARK  10 active torsions:
REMARK  status: ('A' for Active; 'I' for Inactive)
REMARK    1  A    between atoms: C_8  and  C_30
REMARK    2  A    between atoms: C_20  and  C_38
REMARK    3  A    between atoms: C_21  and  O_28
REMARK    4  A    between atoms: C_25  and  C_43
REMARK    5  A    between atoms: C_31  and  C_32
REMARK    6  A    between atoms: C_32  and  C_35
REMARK    7  A    between atoms: C_35  and  O_36
REMARK    8  A    between atoms: C_39  and  C_40
REMARK    9  A    between atoms: C_43  and  C_44
REMARK   10  A    between atoms: C_45  and  C_46
REMARK                            x       y       z     vdW  Elec       q    Type
REMARK                         _______ _______ _______ _____ _____    ______ ____
ROOT
ATOM      1  O   UNL     1      17.261  -5.457  -7.893  0.00  0.00    +0.000 OA
ATOM      2  O   UNL     1      14.592  -5.514  -6.813  0.00  0.00    +0.000 OA
ATOM      3  O   UNL     1      17.271  -3.837 -10.622  0.00  0.00    +0.000 OA
ATOM      4  O   UNL     1      11.398  -4.945  -9.349  0.00  0.00    +0.000 OA
ATOM      5  O   UNL     1      11.748  -6.731  -3.205  0.00  0.00    +0.000 OA
ATOM      6  C   UNL     1      14.888  -5.449  -8.201  0.00  0.00    +0.000 C 
ATOM      7  C   UNL     1      15.499  -6.787  -8.753  0.00  0.00    +0.000 C 
ATOM      8  C   UNL     1      16.225  -4.648  -8.470  0.00  0.00    +0.000 C 
ATOM      9  C   UNL     1      16.866  -6.829  -8.061  0.00  0.00    +0.000 C 
ATOM     10  C   UNL     1      15.481  -6.692 -10.214  0.00  0.00    +0.000 C 
ATOM     11  C   UNL     1      15.388  -5.378 -10.828  0.00  0.00    +0.000 C 
ATOM     12  C   UNL     1      13.736  -4.911  -9.066  0.00  0.00    +0.000 C 
ATOM     13  C   UNL     1      16.419  -4.504 -10.058  0.00  0.00    +0.000 C 
ATOM     14  C   UNL     1      14.103  -4.854 -10.445  0.00  0.00    +0.000 C 
ATOM     15  C   UNL     1      17.927  -7.532  -8.921  0.00  0.00    +0.000 C 
ATOM     16  C   UNL     1      16.743  -7.512  -6.690  0.00  0.00    +0.000 C 
ATOM     17  C   UNL     1      12.361  -5.111  -8.611  0.00  0.00    +0.000 C 
ATOM     18  C   UNL     1      13.305  -5.732  -6.403  0.00  0.00    +0.000 A 
ATOM     19  C   UNL     1      12.182  -5.555  -7.223  0.00  0.00    +0.000 A 
ATOM     20  C   UNL     1      13.139  -6.116  -5.054  0.00  0.00    +0.000 A 
ATOM     21  C   UNL     1      10.889  -5.785  -6.721  0.00  0.00    +0.000 A 
ATOM     22  C   UNL     1      11.857  -6.342  -4.543  0.00  0.00    +0.000 A 
ATOM     23  C   UNL     1      10.735  -6.176  -5.394  0.00  0.00    +0.000 A 
ATOM     24  C   UNL     1       9.494  -6.428  -4.759  0.00  0.00    +0.000 C 
ATOM     25  C   UNL     1      10.415  -6.913  -2.582  0.00  0.00    +0.000 C 
ATOM     26  C   UNL     1       9.390  -6.723  -3.609  0.00  0.00    +0.000 C 
ATOM     27  C   UNL     1      10.305  -5.863  -1.448  0.00  0.00    +0.000 C 
ENDROOT
BRANCH  21  28
ATOM     28  O   UNL     1       9.761  -5.638  -7.484  0.00  0.00    +0.000 OA
ATOM     29  H   UNL     1       9.794  -4.782  -7.967  0.00  0.00    +0.000 HD
ENDBRANCH  21  28
BRANCH   8  30
ATOM     30  C   UNL     1      16.224  -3.326  -7.829  0.00  0.00    +0.000 C 
ATOM     31  C   UNL     1      16.274  -1.935  -7.178  0.00  0.00    +0.000 C 
BRANCH  31  32
ATOM     32  C   UNL     1      16.373  -0.759  -6.625  0.00  0.00    +0.000 C 
ATOM     33  C   UNL     1      17.693  -0.051  -6.866  0.00  0.00    +0.000 C 
BRANCH  32  35
ATOM     34  O   UNL     1      14.941   0.984  -5.765  0.00  0.00    +0.000 OA
ATOM     35  C   UNL     1      15.238  -0.199  -5.844  0.00  0.00    +0.000 C 
BRANCH  35  36
ATOM     36  O   UNL     1      14.506  -1.123  -5.186  0.00  0.00    +0.000 OA
ATOM     37  H   UNL     1      15.162  -1.695  -4.734  0.00  0.00    +0.000 HD
ENDBRANCH  35  36
ENDBRANCH  32  35
ENDBRANCH  31  32
ENDBRANCH   8  30
BRANCH  20  38
ATOM     38  C   UNL     1      14.287  -6.278  -4.209  0.00  0.00    +0.000 C 
ATOM     39  C   UNL     1      15.498  -6.463  -3.283  0.00  0.00    +0.000 C 
BRANCH  39  40
ATOM     40  C   UNL     1      16.508  -6.631  -2.488  0.00  0.00    +0.000 C 
ATOM     41  C   UNL     1      17.651  -7.498  -2.924  0.00  0.00    +0.000 C 
ATOM     42  C   UNL     1      16.641  -5.777  -1.264  0.00  0.00    +0.000 C 
ENDBRANCH  39  40
ENDBRANCH  20  38
BRANCH  25  43
ATOM     43  C   UNL     1      10.384  -8.280  -2.028  0.00  0.00    +0.000 C 
BRANCH  43  44
ATOM     44  C   UNL     1      10.357  -9.699  -1.446  0.00  0.00    +0.000 C 
ATOM     45  C   UNL     1      10.332 -11.120  -0.864  0.00  0.00    +0.000 C 
BRANCH  45  46
ATOM     46  C   UNL     1      10.309 -12.322  -0.381  0.00  0.00    +0.000 C 
ATOM     47  C   UNL     1       9.681 -13.427  -1.174  0.00  0.00    +0.000 C 
ATOM     48  C   UNL     1      10.744 -12.570   1.030  0.00  0.00    +0.000 C 
ENDBRANCH  45  46
ENDBRANCH  43  44
ENDBRANCH  25  43
TORSDOF 10
ENDMDL
MODEL 3
REMARK VINA RESULT:      -6.6     13.487     17.541
REMARK  Name = 9852185_GambogicAcid.pdbqt.pdb
REMARK  10 active torsions:
REMARK  status: ('A' for Active; 'I' for Inactive)
REMARK    1  A    between atoms: C_8  and  C_30
REMARK    2  A    between atoms: C_20  and  C_38
REMARK    3  A    between atoms: C_21  and  O_28
REMARK    4  A    between atoms: C_25  and  C_43
REMARK    5  A    between atoms: C_31  and  C_32
REMARK    6  A    between atoms: C_32  and  C_35
REMARK    7  A    between atoms: C_35  and  O_36
REMARK    8  A    between atoms: C_39  and  C_40
REMARK    9  A    between atoms: C_43  and  C_44
REMARK   10  A    between atoms: C_45  and  C_46
REMARK                            x       y       z     vdW  Elec       q    Type
REMARK                         _______ _______ _______ _____ _____    ______ ____
ROOT
ATOM      1  O   UNL     1     -11.230  -1.134 -24.629  0.00  0.00    +0.000 OA
ATOM      2  O   UNL     1      -9.531  -1.333 -22.312  0.00  0.00    +0.000 OA
ATOM      3  O   UNL     1     -14.166  -2.079 -23.881  0.00  0.00    +0.000 OA
ATOM      4  O   UNL     1     -10.590  -3.904 -19.274  0.00  0.00    +0.000 OA
ATOM      5  O   UNL     1      -5.270  -0.507 -20.378  0.00  0.00    +0.000 OA
ATOM      6  C   UNL     1     -10.649  -2.177 -22.556  0.00  0.00    +0.000 C 
ATOM      7  C   UNL     1     -10.408  -3.173 -23.746  0.00  0.00    +0.000 C 
ATOM      8  C   UNL     1     -11.791  -1.412 -23.337  0.00  0.00    +0.000 C 
ATOM      9  C   UNL     1     -10.357  -2.229 -24.953  0.00  0.00    +0.000 C 
ATOM     10  C   UNL     1     -11.490  -4.158 -23.701  0.00  0.00    +0.000 C 
ATOM     11  C   UNL     1     -12.711  -3.825 -22.988  0.00  0.00    +0.000 C 
ATOM     12  C   UNL     1     -11.203  -2.865 -21.297  0.00  0.00    +0.000 C 
ATOM     13  C   UNL     1     -13.064  -2.384 -23.454  0.00  0.00    +0.000 C 
ATOM     14  C   UNL     1     -12.334  -3.681 -21.606  0.00  0.00    +0.000 C 
ATOM     15  C   UNL     1     -10.882  -2.898 -26.232  0.00  0.00    +0.000 C 
ATOM     16  C   UNL     1      -8.924  -1.715 -25.162  0.00  0.00    +0.000 C 
ATOM     17  C   UNL     1     -10.293  -3.145 -20.188  0.00  0.00    +0.000 C 
ATOM     18  C   UNL     1      -8.670  -1.625 -21.289  0.00  0.00    +0.000 A 
ATOM     19  C   UNL     1      -8.978  -2.492 -20.231  0.00  0.00    +0.000 A 
ATOM     20  C   UNL     1      -7.425  -0.959 -21.316  0.00  0.00    +0.000 A 
ATOM     21  C   UNL     1      -8.044  -2.728 -19.208  0.00  0.00    +0.000 A 
ATOM     22  C   UNL     1      -6.490  -1.183 -20.299  0.00  0.00    +0.000 A 
ATOM     23  C   UNL     1      -6.814  -2.078 -19.249  0.00  0.00    +0.000 A 
ATOM     24  C   UNL     1      -5.789  -2.215 -18.280  0.00  0.00    +0.000 C 
ATOM     25  C   UNL     1      -4.266  -0.642 -19.295  0.00  0.00    +0.000 C 
ATOM     26  C   UNL     1      -4.760  -1.614 -18.319  0.00  0.00    +0.000 C 
ATOM     27  C   UNL     1      -4.087   0.766 -18.675  0.00  0.00    +0.000 C 
ENDROOT
BRANCH  21  28
ATOM     28  O   UNL     1      -8.290  -3.575 -18.160  0.00  0.00    +0.000 OA
ATOM     29  H   UNL     1      -7.440  -3.898 -17.786  0.00  0.00    +0.000 HD
ENDBRANCH  21  28
BRANCH   8  30
ATOM     30  C   UNL     1     -12.166  -0.149 -22.685  0.00  0.00    +0.000 C 
ATOM     31  C   UNL     1     -12.515   1.166 -21.972  0.00  0.00    +0.000 C 
BRANCH  31  32
ATOM     32  C   UNL     1     -12.784   2.262 -21.320  0.00  0.00    +0.000 C 
ATOM     33  C   UNL     1     -14.252   2.644 -21.293  0.00  0.00    +0.000 C 
BRANCH  32  35
ATOM     34  O   UNL     1     -10.717   2.547 -20.104  0.00  0.00    +0.000 OA
ATOM     35  C   UNL     1     -11.694   3.029 -20.659  0.00  0.00    +0.000 C 
BRANCH  35  36
ATOM     36  O   UNL     1     -11.849   4.370 -20.708  0.00  0.00    +0.000 OA
ATOM     37  H   UNL     1     -11.414   4.708 -19.897  0.00  0.00    +0.000 HD
ENDBRANCH  35  36
ENDBRANCH  32  35
ENDBRANCH  31  32
ENDBRANCH   8  30
BRANCH  20  38
ATOM     38  C   UNL     1      -7.119  -0.057 -22.387  0.00  0.00    +0.000 C 
ATOM     39  C   UNL     1      -6.820   0.920 -23.534  0.00  0.00    +0.000 C 
BRANCH  39  40
ATOM     40  C   UNL     1      -6.586   1.754 -24.499  0.00  0.00    +0.000 C 
ATOM     41  C   UNL     1      -6.261   3.181 -24.175  0.00  0.00    +0.000 C 
ATOM     42  C   UNL     1      -6.400   1.242 -25.895  0.00  0.00    +0.000 C 
ENDBRANCH  39  40
ENDBRANCH  20  38
BRANCH  25  43
ATOM     43  C   UNL     1      -3.012  -1.094 -19.926  0.00  0.00    +0.000 C 
BRANCH  43  44
ATOM     44  C   UNL     1      -1.705  -1.556 -20.583  0.00  0.00    +0.000 C 
ATOM     45  C   UNL     1      -0.396  -2.017 -21.241  0.00  0.00    +0.000 C 
BRANCH  45  46
ATOM     46  C   UNL     1       0.707  -2.402 -21.802  0.00  0.00    +0.000 C 
ATOM     47  C   UNL     1       0.860  -2.288 -23.288  0.00  0.00    +0.000 C 
ATOM     48  C   UNL     1       1.747  -3.117 -20.998  0.00  0.00    +0.000 C 
ENDBRANCH  45  46
ENDBRANCH  43  44
ENDBRANCH  25  43
TORSDOF 10
ENDMDL
MODEL 4
REMARK VINA RESULT:      -6.2      1.739      2.358
REMARK  Name = 9852185_GambogicAcid.pdbqt.pdb
REMARK  10 active torsions:
REMARK  status: ('A' for Active; 'I' for Inactive)
REMARK    1  A    between atoms: C_8  and  C_30
REMARK    2  A    between atoms: C_20  and  C_38
REMARK    3  A    between atoms: C_21  and  O_28
REMARK    4  A    between atoms: C_25  and  C_43
REMARK    5  A    between atoms: C_31  and  C_32
REMARK    6  A    between atoms: C_32  and  C_35
REMARK    7  A    between atoms: C_35  and  O_36
REMARK    8  A    between atoms: C_39  and  C_40
REMARK    9  A    between atoms: C_43  and  C_44
REMARK   10  A    between atoms: C_45  and  C_46
REMARK                            x       y       z     vdW  Elec       q    Type
REMARK                         _______ _______ _______ _____ _____    ______ ____
ROOT
ATOM      1  O   UNL     1     -16.177   7.021 -11.489  0.00  0.00    +0.000 OA
ATOM      2  O   UNL     1     -14.605   6.994  -9.076  0.00  0.00    +0.000 OA
ATOM      3  O   UNL     1     -14.873   5.075 -13.631  0.00  0.00    +0.000 OA
ATOM      4  O   UNL     1     -10.655   5.847  -9.278  0.00  0.00    +0.000 OA
ATOM      5  O   UNL     1     -14.153   8.418  -4.565  0.00  0.00    +0.000 OA
ATOM      6  C   UNL     1     -14.073   6.779 -10.376  0.00  0.00    +0.000 C 
ATOM      7  C   UNL     1     -14.071   8.082 -11.254  0.00  0.00    +0.000 C 
ATOM      8  C   UNL     1     -15.121   6.063 -11.319  0.00  0.00    +0.000 C 
ATOM      9  C   UNL     1     -15.568   8.324 -11.477  0.00  0.00    +0.000 C 
ATOM     10  C   UNL     1     -13.247   7.801 -12.430  0.00  0.00    +0.000 C 
ATOM     11  C   UNL     1     -13.009   6.418 -12.804  0.00  0.00    +0.000 C 
ATOM     12  C   UNL     1     -12.722   6.043 -10.389  0.00  0.00    +0.000 C 
ATOM     13  C   UNL     1     -14.404   5.736 -12.719  0.00  0.00    +0.000 C 
ATOM     14  C   UNL     1     -12.252   5.842 -11.723  0.00  0.00    +0.000 C 
ATOM     15  C   UNL     1     -15.849   8.997 -12.828  0.00  0.00    +0.000 C 
ATOM     16  C   UNL     1     -16.146   9.162 -10.325  0.00  0.00    +0.000 C 
ATOM     17  C   UNL     1     -11.831   6.184  -9.239  0.00  0.00    +0.000 C 
ATOM     18  C   UNL     1     -13.758   7.156  -8.014  0.00  0.00    +0.000 A 
ATOM     19  C   UNL     1     -12.406   6.784  -8.027  0.00  0.00    +0.000 A 
ATOM     20  C   UNL     1     -14.329   7.692  -6.839  0.00  0.00    +0.000 A 
ATOM     21  C   UNL     1     -11.605   6.968  -6.888  0.00  0.00    +0.000 A 
ATOM     22  C   UNL     1     -13.542   7.874  -5.698  0.00  0.00    +0.000 A 
ATOM     23  C   UNL     1     -12.172   7.510  -5.739  0.00  0.00    +0.000 A 
ATOM     24  C   UNL     1     -11.484   7.737  -4.521  0.00  0.00    +0.000 C 
ATOM     25  C   UNL     1     -13.393   8.568  -3.301  0.00  0.00    +0.000 C 
ATOM     26  C   UNL     1     -12.006   8.166  -3.539  0.00  0.00    +0.000 C 
ATOM     27  C   UNL     1     -14.090   7.664  -2.253  0.00  0.00    +0.000 C 
ENDROOT
BRANCH  21  28
ATOM     28  O   UNL     1     -10.277   6.634  -6.854  0.00  0.00    +0.000 OA
ATOM     29  H   UNL     1     -10.143   5.753  -7.270  0.00  0.00    +0.000 HD
ENDBRANCH  21  28
BRANCH   8  30
ATOM     30  C   UNL     1     -15.667   4.837 -10.721  0.00  0.00    +0.000 C 
ATOM     31  C   UNL     1     -16.233   3.530 -10.144  0.00  0.00    +0.000 C 
BRANCH  31  32
ATOM     32  C   UNL     1     -16.732   2.408  -9.707  0.00  0.00    +0.000 C 
ATOM     33  C   UNL     1     -18.078   2.036 -10.299  0.00  0.00    +0.000 C 
BRANCH  32  35
ATOM     34  O   UNL     1     -16.471   0.765  -7.957  0.00  0.00    +0.000 OA
ATOM     35  C   UNL     1     -15.983   1.589  -8.716  0.00  0.00    +0.000 C 
BRANCH  35  36
ATOM     36  O   UNL     1     -14.652   1.818  -8.699  0.00  0.00    +0.000 OA
ATOM     37  H   UNL     1     -14.370   1.757  -9.636  0.00  0.00    +0.000 HD
ENDBRANCH  35  36
ENDBRANCH  32  35
ENDBRANCH  31  32
ENDBRANCH   8  30
BRANCH  20  38
ATOM     38  C   UNL     1     -15.717   8.053  -6.819  0.00  0.00    +0.000 C 
ATOM     39  C   UNL     1     -17.195   8.470  -6.795  0.00  0.00    +0.000 C 
BRANCH  39  40
ATOM     40  C   UNL     1     -18.437   8.842  -6.778  0.00  0.00    +0.000 C 
ATOM     41  C   UNL     1     -19.498   7.846  -6.417  0.00  0.00    +0.000 C 
ATOM     42  C   UNL     1     -18.778  10.298  -6.873  0.00  0.00    +0.000 C 
ENDBRANCH  39  40
ENDBRANCH  20  38
BRANCH  25  43
ATOM     43  C   UNL     1     -13.489   9.987  -2.907  0.00  0.00    +0.000 C 
BRANCH  43  44
ATOM     44  C   UNL     1     -13.595  11.460  -2.495  0.00  0.00    +0.000 C 
ATOM     45  C   UNL     1     -13.703  12.936  -2.084  0.00  0.00    +0.000 C 
BRANCH  45  46
ATOM     46  C   UNL     1     -13.787  14.183  -1.741  0.00  0.00    +0.000 C 
ATOM     47  C   UNL     1     -13.461  14.587  -0.335  0.00  0.00    +0.000 C 
ATOM     48  C   UNL     1     -14.374  15.183  -2.687  0.00  0.00    +0.000 C 
ENDBRANCH  45  46
ENDBRANCH  43  44
ENDBRANCH  25  43
TORSDOF 10
ENDMDL
MODEL 5
REMARK VINA RESULT:      -6.1     15.309     18.553
REMARK  Name = 9852185_GambogicAcid.pdbqt.pdb
REMARK  10 active torsions:
REMARK  status: ('A' for Active; 'I' for Inactive)
REMARK    1  A    between atoms: C_8  and  C_30
REMARK    2  A    between atoms: C_20  and  C_38
REMARK    3  A    between atoms: C_21  and  O_28
REMARK    4  A    between atoms: C_25  and  C_43
REMARK    5  A    between atoms: C_31  and  C_32
REMARK    6  A    between atoms: C_32  and  C_35
REMARK    7  A    between atoms: C_35  and  O_36
REMARK    8  A    between atoms: C_39  and  C_40
REMARK    9  A    between atoms: C_43  and  C_44
REMARK   10  A    between atoms: C_45  and  C_46
REMARK                            x       y       z     vdW  Elec       q    Type
REMARK                         _______ _______ _______ _____ _____    ______ ____
ROOT
ATOM      1  O   UNL     1      -6.691   0.032   4.498  0.00  0.00    +0.000 OA
ATOM      2  O   UNL     1      -4.004   0.510   3.578  0.00  0.00    +0.000 OA
ATOM      3  O   UNL     1      -8.074  -2.152   2.657  0.00  0.00    +0.000 OA
ATOM      4  O   UNL     1      -3.039  -0.389  -0.322  0.00  0.00    +0.000 OA
ATOM      5  O   UNL     1       0.156   2.692   4.299  0.00  0.00    +0.000 OA
ATOM      6  C   UNL     1      -5.077   0.118   2.733  0.00  0.00    +0.000 C 
ATOM      7  C   UNL     1      -6.146   1.254   2.543  0.00  0.00    +0.000 C 
ATOM      8  C   UNL     1      -6.103  -0.812   3.496  0.00  0.00    +0.000 C 
ATOM      9  C   UNL     1      -6.763   1.356   3.942  0.00  0.00    +0.000 C 
ATOM     10  C   UNL     1      -7.019   0.837   1.445  0.00  0.00    +0.000 C 
ATOM     11  C   UNL     1      -7.072  -0.570   1.090  0.00  0.00    +0.000 C 
ATOM     12  C   UNL     1      -4.632  -0.519   1.406  0.00  0.00    +0.000 C 
ATOM     13  C   UNL     1      -7.207  -1.320   2.446  0.00  0.00    +0.000 C 
ATOM     14  C   UNL     1      -5.756  -0.907   0.614  0.00  0.00    +0.000 C 
ATOM     15  C   UNL     1      -8.239   1.775   3.893  0.00  0.00    +0.000 C 
ATOM     16  C   UNL     1      -5.953   2.334   4.808  0.00  0.00    +0.000 C 
ATOM     17  C   UNL     1      -3.345  -0.129   0.833  0.00  0.00    +0.000 C 
ATOM     18  C   UNL     1      -2.814   0.902   3.026  0.00  0.00    +0.000 A 
ATOM     19  C   UNL     1      -2.435   0.624   1.706  0.00  0.00    +0.000 A 
ATOM     20  C   UNL     1      -1.927   1.587   3.885  0.00  0.00    +0.000 A 
ATOM     21  C   UNL     1      -1.187   1.048   1.218  0.00  0.00    +0.000 A 
ATOM     22  C   UNL     1      -0.680   2.009   3.412  0.00  0.00    +0.000 A 
ATOM     23  C   UNL     1      -0.324   1.734   2.067  0.00  0.00    +0.000 A 
ATOM     24  C   UNL     1       0.964   2.206   1.710  0.00  0.00    +0.000 C 
ATOM     25  C   UNL     1       1.519   3.100   3.882  0.00  0.00    +0.000 C 
ATOM     26  C   UNL     1       1.699   2.756   2.471  0.00  0.00    +0.000 C 
ATOM     27  C   UNL     1       2.511   2.339   4.797  0.00  0.00    +0.000 C 
ENDROOT
BRANCH  21  28
ATOM     28  O   UNL     1      -0.774   0.813  -0.066  0.00  0.00    +0.000 OA
ATOM     29  H   UNL     1      -1.540   0.532  -0.617  0.00  0.00    +0.000 HD
ENDBRANCH  21  28
BRANCH   8  30
ATOM     30  C   UNL     1      -5.446  -1.956   4.146  0.00  0.00    +0.000 C 
ATOM     31  C   UNL     1      -4.758  -3.176   4.777  0.00  0.00    +0.000 C 
BRANCH  31  32
ATOM     32  C   UNL     1      -4.196  -4.243   5.270  0.00  0.00    +0.000 C 
ATOM     33  C   UNL     1      -4.144  -4.293   6.786  0.00  0.00    +0.000 C 
BRANCH  32  35
ATOM     34  O   UNL     1      -4.006  -6.483   4.387  0.00  0.00    +0.000 OA
ATOM     35  C   UNL     1      -3.679  -5.305   4.366  0.00  0.00    +0.000 C 
BRANCH  35  36
ATOM     36  O   UNL     1      -2.773  -4.873   3.462  0.00  0.00    +0.000 OA
ATOM     37  H   UNL     1      -3.272  -4.278   2.864  0.00  0.00    +0.000 HD
ENDBRANCH  35  36
ENDBRANCH  32  35
ENDBRANCH  31  32
ENDBRANCH   8  30
BRANCH  20  38
ATOM     38  C   UNL     1      -2.307   1.854   5.242  0.00  0.00    +0.000 C 
ATOM     39  C   UNL     1      -2.722   2.169   6.687  0.00  0.00    +0.000 C 
BRANCH  39  40
ATOM     40  C   UNL     1      -3.082   2.453   7.900  0.00  0.00    +0.000 C 
ATOM     41  C   UNL     1      -4.223   3.398   8.126  0.00  0.00    +0.000 C 
ATOM     42  C   UNL     1      -2.530   1.659   9.044  0.00  0.00    +0.000 C 
ENDBRANCH  39  40
ENDBRANCH  20  38
BRANCH  25  43
ATOM     43  C   UNL     1       1.620   4.555   4.105  0.00  0.00    +0.000 C 
BRANCH  43  44
ATOM     44  C   UNL     1       1.732   6.067   4.337  0.00  0.00    +0.000 C 
ATOM     45  C   UNL     1       1.847   7.580   4.569  0.00  0.00    +0.000 C 
BRANCH  45  46
ATOM     46  C   UNL     1       1.941   8.857   4.773  0.00  0.00    +0.000 C 
ATOM     47  C   UNL     1       1.808   9.395   6.165  0.00  0.00    +0.000 C 
ATOM     48  C   UNL     1       2.002   9.798   3.611  0.00  0.00    +0.000 C 
ENDBRANCH  45  46
ENDBRANCH  43  44
ENDBRANCH  25  43
TORSDOF 10
ENDMDL
MODEL 6
REMARK VINA RESULT:      -6.1     14.059     18.506
REMARK  Name = 9852185_GambogicAcid.pdbqt.pdb
REMARK  10 active torsions:
REMARK  status: ('A' for Active; 'I' for Inactive)
REMARK    1  A    between atoms: C_8  and  C_30
REMARK    2  A    between atoms: C_20  and  C_38
REMARK    3  A    between atoms: C_21  and  O_28
REMARK    4  A    between atoms: C_25  and  C_43
REMARK    5  A    between atoms: C_31  and  C_32
REMARK    6  A    between atoms: C_32  and  C_35
REMARK    7  A    between atoms: C_35  and  O_36
REMARK    8  A    between atoms: C_39  and  C_40
REMARK    9  A    between atoms: C_43  and  C_44
REMARK   10  A    between atoms: C_45  and  C_46
REMARK                            x       y       z     vdW  Elec       q    Type
REMARK                         _______ _______ _______ _____ _____    ______ ____
ROOT
ATOM      1  O   UNL     1      -9.472  -1.797 -23.752  0.00  0.00    +0.000 OA
ATOM      2  O   UNL     1      -7.510  -1.539 -21.660  0.00  0.00    +0.000 OA
ATOM      3  O   UNL     1     -12.385  -1.545 -22.517  0.00  0.00    +0.000 OA
ATOM      4  O   UNL     1      -8.613  -2.343 -17.775  0.00  0.00    +0.000 OA
ATOM      5  O   UNL     1      -2.916  -1.221 -20.484  0.00  0.00    +0.000 OA
ATOM      6  C   UNL     1      -8.812  -2.074 -21.469  0.00  0.00    +0.000 C 
ATOM      7  C   UNL     1      -8.999  -3.477 -22.149  0.00  0.00    +0.000 C 
ATOM      8  C   UNL     1      -9.864  -1.391 -22.432  0.00  0.00    +0.000 C 
ATOM      9  C   UNL     1      -8.932  -3.125 -23.640  0.00  0.00    +0.000 C 
ATOM     10  C   UNL     1     -10.252  -4.034 -21.639  0.00  0.00    +0.000 C 
ATOM     11  C   UNL     1     -11.235  -3.133 -21.062  0.00  0.00    +0.000 C 
ATOM     12  C   UNL     1      -9.296  -2.043 -20.009  0.00  0.00    +0.000 C 
ATOM     13  C   UNL     1     -11.325  -1.948 -22.064  0.00  0.00    +0.000 C 
ATOM     14  C   UNL     1     -10.616  -2.575 -19.887  0.00  0.00    +0.000 C 
ATOM     15  C   UNL     1      -9.794  -4.067 -24.493  0.00  0.00    +0.000 C 
ATOM     16  C   UNL     1      -7.474  -3.142 -24.123  0.00  0.00    +0.000 C 
ATOM     17  C   UNL     1      -8.305  -2.108 -18.936  0.00  0.00    +0.000 C 
ATOM     18  C   UNL     1      -6.583  -1.635 -20.658  0.00  0.00    +0.000 A 
ATOM     19  C   UNL     1      -6.902  -1.906 -19.320  0.00  0.00    +0.000 A 
ATOM     20  C   UNL     1      -5.241  -1.396 -21.028  0.00  0.00    +0.000 A 
ATOM     21  C   UNL     1      -5.892  -1.972 -18.345  0.00  0.00    +0.000 A 
ATOM     22  C   UNL     1      -4.228  -1.454 -20.064  0.00  0.00    +0.000 A 
ATOM     23  C   UNL     1      -4.571  -1.749 -18.720  0.00  0.00    +0.000 A 
ATOM     24  C   UNL     1      -3.460  -1.773 -17.841  0.00  0.00    +0.000 C 
ATOM     25  C   UNL     1      -1.807  -1.193 -19.501  0.00  0.00    +0.000 C 
ATOM     26  C   UNL     1      -2.342  -1.539 -18.183  0.00  0.00    +0.000 C 
ATOM     27  C   UNL     1      -1.218   0.239 -19.533  0.00  0.00    +0.000 C 
ENDROOT
BRANCH  21  28
ATOM     28  O   UNL     1      -6.150  -2.247 -17.028  0.00  0.00    +0.000 OA
ATOM     29  H   UNL     1      -7.094  -2.058 -16.826  0.00  0.00    +0.000 HD
ENDBRANCH  21  28
BRANCH   8  30
ATOM     30  C   UNL     1      -9.835   0.076 -22.344  0.00  0.00    +0.000 C 
ATOM     31  C   UNL     1      -9.791   1.611 -22.305  0.00  0.00    +0.000 C 
BRANCH  31  32
ATOM     32  C   UNL     1      -9.717   2.912 -22.317  0.00  0.00    +0.000 C 
ATOM     33  C   UNL     1      -9.088   3.504 -23.564  0.00  0.00    +0.000 C 
BRANCH  32  35
ATOM     34  O   UNL     1      -9.810   3.679 -20.029  0.00  0.00    +0.000 OA
ATOM     35  C   UNL     1     -10.242   3.704 -21.172  0.00  0.00    +0.000 C 
BRANCH  35  36
ATOM     36  O   UNL     1     -11.286   4.503 -21.481  0.00  0.00    +0.000 OA
ATOM     37  H   UNL     1     -11.026   5.396 -21.171  0.00  0.00    +0.000 HD
ENDBRANCH  35  36
ENDBRANCH  32  35
ENDBRANCH  31  32
ENDBRANCH   8  30
BRANCH  20  38
ATOM     38  C   UNL     1      -4.917  -1.098 -22.393  0.00  0.00    +0.000 C 
ATOM     39  C   UNL     1      -4.570  -0.810 -23.861  0.00  0.00    +0.000 C 
BRANCH  39  40
ATOM     40  C   UNL     1      -4.282  -0.587 -25.105  0.00  0.00    +0.000 C 
ATOM     41  C   UNL     1      -5.391  -0.470 -26.107  0.00  0.00    +0.000 C 
ATOM     42  C   UNL     1      -2.884  -0.207 -25.488  0.00  0.00    +0.000 C 
ENDBRANCH  39  40
ENDBRANCH  20  38
BRANCH  25  43
ATOM     43  C   UNL     1      -0.805  -2.176 -19.955  0.00  0.00    +0.000 C 
BRANCH  43  44
ATOM     44  C   UNL     1       0.242  -3.192 -20.429  0.00  0.00    +0.000 C 
ATOM     45  C   UNL     1       1.289  -4.211 -20.901  0.00  0.00    +0.000 C 
BRANCH  45  46
ATOM     46  C   UNL     1       2.177  -5.070 -21.294  0.00  0.00    +0.000 C 
ATOM     47  C   UNL     1       2.684  -5.019 -22.703  0.00  0.00    +0.000 C 
ATOM     48  C   UNL     1       2.561  -6.211 -20.404  0.00  0.00    +0.000 C 
ENDBRANCH  45  46
ENDBRANCH  43  44
ENDBRANCH  25  43
TORSDOF 10
ENDMDL
MODEL 7
REMARK VINA RESULT:      -5.8     16.710     20.838
REMARK  Name = 9852185_GambogicAcid.pdbqt.pdb
REMARK  10 active torsions:
REMARK  status: ('A' for Active; 'I' for Inactive)
REMARK    1  A    between atoms: C_8  and  C_30
REMARK    2  A    between atoms: C_20  and  C_38
REMARK    3  A    between atoms: C_21  and  O_28
REMARK    4  A    between atoms: C_25  and  C_43
REMARK    5  A    between atoms: C_31  and  C_32
REMARK    6  A    between atoms: C_32  and  C_35
REMARK    7  A    between atoms: C_35  and  O_36
REMARK    8  A    between atoms: C_39  and  C_40
REMARK    9  A    between atoms: C_43  and  C_44
REMARK   10  A    between atoms: C_45  and  C_46
REMARK                            x       y       z     vdW  Elec       q    Type
REMARK                         _______ _______ _______ _____ _____    ______ ____
ROOT
ATOM      1  O   UNL     1      -1.330   0.071 -21.644  0.00  0.00    +0.000 OA
ATOM      2  O   UNL     1      -3.649  -1.627 -21.463  0.00  0.00    +0.000 OA
ATOM      3  O   UNL     1      -0.001   0.367 -18.777  0.00  0.00    +0.000 OA
ATOM      4  O   UNL     1      -5.526  -2.065 -17.824  0.00  0.00    +0.000 OA
ATOM      5  O   UNL     1      -7.134  -3.918 -23.743  0.00  0.00    +0.000 OA
ATOM      6  C   UNL     1      -3.183  -0.800 -20.406  0.00  0.00    +0.000 C 
ATOM      7  C   UNL     1      -3.397   0.730 -20.693  0.00  0.00    +0.000 C 
ATOM      8  C   UNL     1      -1.609  -0.655 -20.437  0.00  0.00    +0.000 C 
ATOM      9  C   UNL     1      -2.423   0.982 -21.849  0.00  0.00    +0.000 C 
ATOM     10  C   UNL     1      -3.155   1.437 -19.435  0.00  0.00    +0.000 C 
ATOM     11  C   UNL     1      -2.379   0.776 -18.399  0.00  0.00    +0.000 C 
ATOM     12  C   UNL     1      -3.673  -1.226 -19.012  0.00  0.00    +0.000 C 
ATOM     13  C   UNL     1      -1.151   0.177 -19.142  0.00  0.00    +0.000 C 
ATOM     14  C   UNL     1      -3.155  -0.368 -17.994  0.00  0.00    +0.000 C 
ATOM     15  C   UNL     1      -1.865   2.412 -21.831  0.00  0.00    +0.000 C 
ATOM     16  C   UNL     1      -3.108   0.687 -23.192  0.00  0.00    +0.000 C 
ATOM     17  C   UNL     1      -4.953  -1.922 -18.896  0.00  0.00    +0.000 C 
ATOM     18  C   UNL     1      -4.864  -2.248 -21.354  0.00  0.00    +0.000 A 
ATOM     19  C   UNL     1      -5.547  -2.424 -20.143  0.00  0.00    +0.000 A 
ATOM     20  C   UNL     1      -5.406  -2.766 -22.551  0.00  0.00    +0.000 A 
ATOM     21  C   UNL     1      -6.785  -3.088 -20.112  0.00  0.00    +0.000 A 
ATOM     22  C   UNL     1      -6.636  -3.433 -22.531  0.00  0.00    +0.000 A 
ATOM     23  C   UNL     1      -7.319  -3.583 -21.298  0.00  0.00    +0.000 A 
ATOM     24  C   UNL     1      -8.548  -4.281 -21.408  0.00  0.00    +0.000 C 
ATOM     25  C   UNL     1      -8.393  -4.698 -23.779  0.00  0.00    +0.000 C 
ATOM     26  C   UNL     1      -8.962  -4.730 -22.431  0.00  0.00    +0.000 C 
ATOM     27  C   UNL     1      -8.026  -6.114 -24.290  0.00  0.00    +0.000 C 
ENDROOT
BRANCH  21  28
ATOM     28  O   UNL     1      -7.498  -3.274 -18.958  0.00  0.00    +0.000 OA
ATOM     29  H   UNL     1      -8.400  -3.603 -19.172  0.00  0.00    +0.000 HD
ENDBRANCH  21  28
BRANCH   8  30
ATOM     30  C   UNL     1      -0.927  -1.956 -20.481  0.00  0.00    +0.000 C 
ATOM     31  C   UNL     1      -0.214  -3.317 -20.473  0.00  0.00    +0.000 C 
BRANCH  31  32
ATOM     32  C   UNL     1       0.410  -4.459 -20.414  0.00  0.00    +0.000 C 
ATOM     33  C   UNL     1       0.041  -5.444 -21.507  0.00  0.00    +0.000 C 
BRANCH  32  35
ATOM     34  O   UNL     1       1.160  -5.060 -18.199  0.00  0.00    +0.000 OA
ATOM     35  C   UNL     1       1.411  -4.713 -19.343  0.00  0.00    +0.000 C 
BRANCH  35  36
ATOM     36  O   UNL     1       2.693  -4.531 -19.726  0.00  0.00    +0.000 OA
ATOM     37  H   UNL     1       2.961  -3.677 -19.326  0.00  0.00    +0.000 HD
ENDBRANCH  35  36
ENDBRANCH  32  35
ENDBRANCH  31  32
ENDBRANCH   8  30
BRANCH  20  38
ATOM     38  C   UNL     1      -4.698  -2.604 -23.787  0.00  0.00    +0.000 C 
ATOM     39  C   UNL     1      -3.964  -2.415 -25.123  0.00  0.00    +0.000 C 
BRANCH  39  40
ATOM     40  C   UNL     1      -3.360  -2.242 -26.257  0.00  0.00    +0.000 C 
ATOM     41  C   UNL     1      -3.360  -3.351 -27.267  0.00  0.00    +0.000 C 
ATOM     42  C   UNL     1      -2.886  -0.876 -26.646  0.00  0.00    +0.000 C 
ENDBRANCH  39  40
ENDBRANCH  20  38
BRANCH  25  43
ATOM     43  C   UNL     1      -9.292  -4.021 -24.733  0.00  0.00    +0.000 C 
BRANCH  43  44
ATOM     44  C   UNL     1     -10.220  -3.310 -25.726  0.00  0.00    +0.000 C 
ATOM     45  C   UNL     1     -11.151  -2.600 -26.719  0.00  0.00    +0.000 C 
BRANCH  45  46
ATOM     46  C   UNL     1     -11.935  -2.006 -27.563  0.00  0.00    +0.000 C 
ATOM     47  C   UNL     1     -11.356  -1.061 -28.572  0.00  0.00    +0.000 C 
ATOM     48  C   UNL     1     -13.420  -2.122 -27.417  0.00  0.00    +0.000 C 
ENDBRANCH  45  46
ENDBRANCH  43  44
ENDBRANCH  25  43
TORSDOF 10
ENDMDL
MODEL 8
REMARK VINA RESULT:      -5.7     21.946     25.651
REMARK  Name = 9852185_GambogicAcid.pdbqt.pdb
REMARK  10 active torsions:
REMARK  status: ('A' for Active; 'I' for Inactive)
REMARK    1  A    between atoms: C_8  and  C_30
REMARK    2  A    between atoms: C_20  and  C_38
REMARK    3  A    between atoms: C_21  and  O_28
REMARK    4  A    between atoms: C_25  and  C_43
REMARK    5  A    between atoms: C_31  and  C_32
REMARK    6  A    between atoms: C_32  and  C_35
REMARK    7  A    between atoms: C_35  and  O_36
REMARK    8  A    between atoms: C_39  and  C_40
REMARK    9  A    between atoms: C_43  and  C_44
REMARK   10  A    between atoms: C_45  and  C_46
REMARK                            x       y       z     vdW  Elec       q    Type
REMARK                         _______ _______ _______ _____ _____    ______ ____
ROOT
ATOM      1  O   UNL     1       1.965  -1.321 -21.192  0.00  0.00    +0.000 OA
ATOM      2  O   UNL     1       4.349   0.290 -21.062  0.00  0.00    +0.000 OA
ATOM      3  O   UNL     1       0.280  -0.946 -18.528  0.00  0.00    +0.000 OA
ATOM      4  O   UNL     1       5.792   1.428 -17.378  0.00  0.00    +0.000 OA
ATOM      5  O   UNL     1       8.224   1.909 -23.286  0.00  0.00    +0.000 OA
ATOM      6  C   UNL     1       3.705  -0.274 -19.928  0.00  0.00    +0.000 C 
ATOM      7  C   UNL     1       3.854  -1.836 -19.859  0.00  0.00    +0.000 C 
ATOM      8  C   UNL     1       2.140  -0.364 -20.136  0.00  0.00    +0.000 C 
ATOM      9  C   UNL     1       3.014  -2.294 -21.056  0.00  0.00    +0.000 C 
ATOM     10  C   UNL     1       3.415  -2.247 -18.525  0.00  0.00    +0.000 C 
ATOM     11  C   UNL     1       2.563  -1.351 -17.762  0.00  0.00    +0.000 C 
ATOM     12  C   UNL     1       4.048   0.423 -18.600  0.00  0.00    +0.000 C 
ATOM     13  C   UNL     1       1.475  -0.881 -18.769  0.00  0.00    +0.000 C 
ATOM     14  C   UNL     1       3.356  -0.177 -17.504  0.00  0.00    +0.000 C 
ATOM     15  C   UNL     1       2.367  -3.666 -20.816  0.00  0.00    +0.000 C 
ATOM     16  C   UNL     1       3.875  -2.319 -22.329  0.00  0.00    +0.000 C 
ATOM     17  C   UNL     1       5.346   1.080 -18.463  0.00  0.00    +0.000 C 
ATOM     18  C   UNL     1       5.579   0.875 -20.925  0.00  0.00    +0.000 A 
ATOM     19  C   UNL     1       6.119   1.281 -19.696  0.00  0.00    +0.000 A 
ATOM     20  C   UNL     1       6.295   1.104 -22.120  0.00  0.00    +0.000 A 
ATOM     21  C   UNL     1       7.383   1.890 -19.641  0.00  0.00    +0.000 A 
ATOM     22  C   UNL     1       7.553   1.714 -22.076  0.00  0.00    +0.000 A 
ATOM     23  C   UNL     1       8.089   2.100 -20.822  0.00  0.00    +0.000 A 
ATOM     24  C   UNL     1       9.364   2.712 -20.910  0.00  0.00    +0.000 C 
ATOM     25  C   UNL     1       9.527   2.617 -23.316  0.00  0.00    +0.000 C 
ATOM     26  C   UNL     1       9.928   2.915 -21.940  0.00  0.00    +0.000 C 
ATOM     27  C   UNL     1       9.315   3.903 -24.154  0.00  0.00    +0.000 C 
ENDROOT
BRANCH  21  28
ATOM     28  O   UNL     1       7.961   2.293 -18.466  0.00  0.00    +0.000 OA
ATOM     29  H   UNL     1       8.219   3.240 -18.528  0.00  0.00    +0.000 HD
ENDBRANCH  21  28
BRANCH   8  30
ATOM     30  C   UNL     1       1.554   0.922 -20.540  0.00  0.00    +0.000 C 
ATOM     31  C   UNL     1       0.927   2.275 -20.910  0.00  0.00    +0.000 C 
BRANCH  31  32
ATOM     32  C   UNL     1       0.363   3.419 -21.177  0.00  0.00    +0.000 C 
ATOM     33  C   UNL     1       0.856   4.091 -22.446  0.00  0.00    +0.000 C 
BRANCH  32  35
ATOM     34  O   UNL     1      -0.809   3.720 -19.088  0.00  0.00    +0.000 OA
ATOM     35  C   UNL     1      -0.690   3.965 -20.280  0.00  0.00    +0.000 C 
BRANCH  35  36
ATOM     36  O   UNL     1      -1.560   4.800 -20.887  0.00  0.00    +0.000 OA
ATOM     37  H   UNL     1      -1.753   4.383 -21.753  0.00  0.00    +0.000 HD
ENDBRANCH  35  36
ENDBRANCH  32  35
ENDBRANCH  31  32
ENDBRANCH   8  30
BRANCH  20  38
ATOM     38  C   UNL     1       5.733   0.706 -23.379  0.00  0.00    +0.000 C 
ATOM     39  C   UNL     1       5.106   0.298 -24.720  0.00  0.00    +0.000 C 
BRANCH  39  40
ATOM     40  C   UNL     1       4.563  -0.031 -25.850  0.00  0.00    +0.000 C 
ATOM     41  C   UNL     1       4.980   0.681 -27.102  0.00  0.00    +0.000 C 
ATOM     42  C   UNL     1       3.719  -1.266 -25.937  0.00  0.00    +0.000 C 
ENDBRANCH  39  40
ENDBRANCH  20  38
BRANCH  25  43
ATOM     43  C   UNL     1      10.489   1.717 -23.980  0.00  0.00    +0.000 C 
BRANCH  43  44
ATOM     44  C   UNL     1      11.489   0.787 -24.678  0.00  0.00    +0.000 C 
ATOM     45  C   UNL     1      12.491  -0.146 -25.375  0.00  0.00    +0.000 C 
BRANCH  45  46
ATOM     46  C   UNL     1      13.342  -0.928 -25.961  0.00  0.00    +0.000 C 
ATOM     47  C   UNL     1      14.667  -1.195 -25.315  0.00  0.00    +0.000 C 
ATOM     48  C   UNL     1      13.078  -1.416 -27.351  0.00  0.00    +0.000 C 
ENDBRANCH  45  46
ENDBRANCH  43  44
ENDBRANCH  25  43
TORSDOF 10
ENDMDL
MODEL 9
REMARK VINA RESULT:      -5.6     14.489     18.856
REMARK  Name = 9852185_GambogicAcid.pdbqt.pdb
REMARK  10 active torsions:
REMARK  status: ('A' for Active; 'I' for Inactive)
REMARK    1  A    between atoms: C_8  and  C_30
REMARK    2  A    between atoms: C_20  and  C_38
REMARK    3  A    between atoms: C_21  and  O_28
REMARK    4  A    between atoms: C_25  and  C_43
REMARK    5  A    between atoms: C_31  and  C_32
REMARK    6  A    between atoms: C_32  and  C_35
REMARK    7  A    between atoms: C_35  and  O_36
REMARK    8  A    between atoms: C_39  and  C_40
REMARK    9  A    between atoms: C_43  and  C_44
REMARK   10  A    between atoms: C_45  and  C_46
REMARK                            x       y       z     vdW  Elec       q    Type
REMARK                         _______ _______ _______ _____ _____    ______ ____
ROOT
ATOM      1  O   UNL     1      -3.585  16.548 -17.070  0.00  0.00    +0.000 OA
ATOM      2  O   UNL     1      -3.357  18.119 -14.666  0.00  0.00    +0.000 OA
ATOM      3  O   UNL     1      -6.605  15.658 -17.477  0.00  0.00    +0.000 OA
ATOM      4  O   UNL     1      -6.219  17.713 -11.735  0.00  0.00    +0.000 OA
ATOM      5  O   UNL     1      -0.596  20.783 -11.861  0.00  0.00    +0.000 OA
ATOM      6  C   UNL     1      -4.318  17.090 -14.857  0.00  0.00    +0.000 C 
ATOM      7  C   UNL     1      -3.677  15.656 -14.876  0.00  0.00    +0.000 C 
ATOM      8  C   UNL     1      -4.761  16.987 -16.371  0.00  0.00    +0.000 C 
ATOM      9  C   UNL     1      -2.865  15.682 -16.176  0.00  0.00    +0.000 C 
ATOM     10  C   UNL     1      -4.777  14.697 -14.783  0.00  0.00    +0.000 C 
ATOM     11  C   UNL     1      -6.116  15.131 -15.143  0.00  0.00    +0.000 C 
ATOM     12  C   UNL     1      -5.540  17.191 -13.928  0.00  0.00    +0.000 C 
ATOM     13  C   UNL     1      -5.940  15.901 -16.482  0.00  0.00    +0.000 C 
ATOM     14  C   UNL     1      -6.475  16.142 -14.183  0.00  0.00    +0.000 C 
ATOM     15  C   UNL     1      -2.771  14.294 -16.826  0.00  0.00    +0.000 C 
ATOM     16  C   UNL     1      -1.461  16.250 -15.912  0.00  0.00    +0.000 C 
ATOM     17  C   UNL     1      -5.379  17.820 -12.618  0.00  0.00    +0.000 C 
ATOM     18  C   UNL     1      -3.196  18.677 -13.427  0.00  0.00    +0.000 A 
ATOM     19  C   UNL     1      -4.136  18.570 -12.393  0.00  0.00    +0.000 A 
ATOM     20  C   UNL     1      -2.019  19.433 -13.234  0.00  0.00    +0.000 A 
ATOM     21  C   UNL     1      -3.905  19.187 -11.152  0.00  0.00    +0.000 A 
ATOM     22  C   UNL     1      -1.781  20.055 -12.004  0.00  0.00    +0.000 A 
ATOM     23  C   UNL     1      -2.736  19.919 -10.965  0.00  0.00    +0.000 A 
ATOM     24  C   UNL     1      -2.383  20.599  -9.773  0.00  0.00    +0.000 C 
ATOM     25  C   UNL     1      -0.319  21.527 -10.609  0.00  0.00    +0.000 C 
ATOM     26  C   UNL     1      -1.394  21.252  -9.654  0.00  0.00    +0.000 C 
ATOM     27  C   UNL     1      -0.248  23.028 -10.990  0.00  0.00    +0.000 C 
ENDROOT
BRANCH  21  28
ATOM     28  O   UNL     1      -4.785  19.102 -10.106  0.00  0.00    +0.000 OA
ATOM     29  H   UNL     1      -4.911  18.160  -9.852  0.00  0.00    +0.000 HD
ENDBRANCH  21  28
BRANCH   8  30
ATOM     30  C   UNL     1      -5.199  18.279 -16.917  0.00  0.00    +0.000 C 
ATOM     31  C   UNL     1      -5.704  19.624 -17.461  0.00  0.00    +0.000 C 
BRANCH  31  32
ATOM     32  C   UNL     1      -6.185  20.747 -17.916  0.00  0.00    +0.000 C 
ATOM     33  C   UNL     1      -6.086  20.919 -19.421  0.00  0.00    +0.000 C 
BRANCH  32  35
ATOM     34  O   UNL     1      -7.903  21.661 -16.487  0.00  0.00    +0.000 OA
ATOM     35  C   UNL     1      -6.789  21.737 -16.985  0.00  0.00    +0.000 C 
BRANCH  35  36
ATOM     36  O   UNL     1      -5.993  22.790 -16.701  0.00  0.00    +0.000 OA
ATOM     37  H   UNL     1      -5.633  22.605 -15.808  0.00  0.00    +0.000 HD
ENDBRANCH  35  36
ENDBRANCH  32  35
ENDBRANCH  31  32
ENDBRANCH   8  30
BRANCH  20  38
ATOM     38  C   UNL     1      -1.066  19.559 -14.299  0.00  0.00    +0.000 C 
ATOM     39  C   UNL     1      -0.023  19.690 -15.418  0.00  0.00    +0.000 C 
BRANCH  39  40
ATOM     40  C   UNL     1       0.873  19.795 -16.350  0.00  0.00    +0.000 C 
ATOM     41  C   UNL     1       2.315  19.559 -16.013  0.00  0.00    +0.000 C 
ATOM     42  C   UNL     1       0.447  19.904 -17.781  0.00  0.00    +0.000 C 
ENDBRANCH  39  40
ENDBRANCH  20  38
BRANCH  25  43
ATOM     43  C   UNL     1       0.987  21.057 -10.110  0.00  0.00    +0.000 C 
BRANCH  43  44
ATOM     44  C   UNL     1       2.348  20.573  -9.595  0.00  0.00    +0.000 C 
ATOM     45  C   UNL     1       3.710  20.087  -9.079  0.00  0.00    +0.000 C 
BRANCH  45  46
ATOM     46  C   UNL     1       4.859  19.680  -8.636  0.00  0.00    +0.000 C 
ATOM     47  C   UNL     1       5.873  20.684  -8.178  0.00  0.00    +0.000 C 
ATOM     48  C   UNL     1       5.236  18.236  -8.749  0.00  0.00    +0.000 C 
ENDBRANCH  45  46
ENDBRANCH  43  44
ENDBRANCH  25  43
TORSDOF 10
ENDMDL
