MODEL 1
REMARK VINA RESULT:      -6.7      0.000      0.000
REMARK  Name = AFLATOXIN.pdbqt.pdb
REMARK  1 active torsions:
REMARK  status: ('A' for Active; 'I' for Inactive)
REMARK    1  A    between atoms: C_15  and  O_23
REMARK                            x       y       z     vdW  Elec       q    Type
REMARK                         _______ _______ _______ _____ _____    ______ ____
ROOT
ATOM      1  O   UNL     1      11.340   2.980 -18.176  0.00  0.00    +0.000 OA
ATOM      2  O   UNL     1      10.872   3.030 -15.750  0.00  0.00    +0.000 OA
ATOM      3  O   UNL     1      10.970  -1.713 -18.089  0.00  0.00    +0.000 OA
ATOM      4  O   UNL     1      13.107  -4.870 -21.304  0.00  0.00    +0.000 OA
ATOM      5  O   UNL     1      10.547  -3.925 -18.000  0.00  0.00    +0.000 OA
ATOM      6  O   UNL     1      11.878  -5.611 -19.573  0.00  0.00    +0.000 OA
ATOM      7  C   UNL     1      10.476   1.122 -17.053  0.00  0.00    +0.000 C 
ATOM      8  C   UNL     1      11.181   0.656 -18.230  0.00  0.00    +0.000 A 
ATOM      9  C   UNL     1      10.587   2.601 -17.060  0.00  0.00    +0.000 C 
ATOM     10  C   UNL     1      11.638   1.815 -18.865  0.00  0.00    +0.000 A 
ATOM     11  C   UNL     1      11.464  -0.590 -18.757  0.00  0.00    +0.000 A 
ATOM     12  C   UNL     1      12.203  -0.712 -19.932  0.00  0.00    +0.000 A 
ATOM     13  C   UNL     1      10.645   0.725 -15.701  0.00  0.00    +0.000 C 
ATOM     14  C   UNL     1      12.496  -2.084 -20.384  0.00  0.00    +0.000 A 
ATOM     15  C   UNL     1      12.620   0.485 -20.579  0.00  0.00    +0.000 A 
ATOM     16  C   UNL     1      12.366   1.758 -20.032  0.00  0.00    +0.000 A 
ATOM     17  C   UNL     1      13.329  -2.339 -21.497  0.00  0.00    +0.000 A 
ATOM     18  C   UNL     1      12.004  -3.190 -19.753  0.00  0.00    +0.000 A 
ATOM     19  C   UNL     1      10.813   1.807 -15.222  0.00  0.00    +0.000 C 
ATOM     20  C   UNL     1      13.542  -3.758 -21.848  0.00  0.00    +0.000 A 
ATOM     21  C   UNL     1      11.124  -3.009 -18.567  0.00  0.00    +0.000 A 
ATOM     22  C   UNL     1      12.308  -4.644 -20.190  0.00  0.00    +0.000 A 
ENDROOT
BRANCH  15  23
ATOM     23  O   UNL     1      13.372   0.441 -21.733  0.00  0.00    +0.000 OA
ATOM     24  C   UNL     1      13.710   1.737 -22.158  0.00  0.00    +0.000 C 
ENDBRANCH  15  23
TORSDOF 1
ENDMDL
MODEL 2
REMARK VINA RESULT:      -6.5     10.231     11.677
REMARK  Name = AFLATOXIN.pdbqt.pdb
REMARK  1 active torsions:
REMARK  status: ('A' for Active; 'I' for Inactive)
REMARK    1  A    between atoms: C_15  and  O_23
REMARK                            x       y       z     vdW  Elec       q    Type
REMARK                         _______ _______ _______ _____ _____    ______ ____
ROOT
ATOM      1  O   UNL     1      -2.628  -1.732 -19.435  0.00  0.00    +0.000 OA
ATOM      2  O   UNL     1      -3.697   0.452 -19.876  0.00  0.00    +0.000 OA
ATOM      3  O   UNL     1       1.436   0.494 -18.598  0.00  0.00    +0.000 OA
ATOM      4  O   UNL     1       5.994  -1.473 -19.075  0.00  0.00    +0.000 OA
ATOM      5  O   UNL     1       3.270   1.653 -17.991  0.00  0.00    +0.000 OA
ATOM      6  O   UNL     1       5.699   0.674 -18.473  0.00  0.00    +0.000 OA
ATOM      7  C   UNL     1      -1.606   0.280 -18.829  0.00  0.00    +0.000 C 
ATOM      8  C   UNL     1      -0.573  -0.719 -19.009  0.00  0.00    +0.000 A 
ATOM      9  C   UNL     1      -2.896  -0.403 -19.095  0.00  0.00    +0.000 C 
ATOM     10  C   UNL     1      -1.256  -1.896 -19.335  0.00  0.00    +0.000 A 
ATOM     11  C   UNL     1       0.807  -0.705 -18.943  0.00  0.00    +0.000 A 
ATOM     12  C   UNL     1       1.542  -1.863 -19.194  0.00  0.00    +0.000 A 
ATOM     13  C   UNL     1      -1.715   1.563 -19.425  0.00  0.00    +0.000 C 
ATOM     14  C   UNL     1       3.009  -1.732 -19.150  0.00  0.00    +0.000 A 
ATOM     15  C   UNL     1       0.819  -3.055 -19.482  0.00  0.00    +0.000 A 
ATOM     16  C   UNL     1      -0.585  -3.071 -19.585  0.00  0.00    +0.000 A 
ATOM     17  C   UNL     1       3.862  -2.805 -19.495  0.00  0.00    +0.000 A 
ATOM     18  C   UNL     1       3.637  -0.573 -18.796  0.00  0.00    +0.000 A 
ATOM     19  C   UNL     1      -2.817   1.454 -19.874  0.00  0.00    +0.000 C 
ATOM     20  C   UNL     1       5.314  -2.545 -19.407  0.00  0.00    +0.000 A 
ATOM     21  C   UNL     1       2.810   0.607 -18.426  0.00  0.00    +0.000 A 
ATOM     22  C   UNL     1       5.175  -0.397 -18.759  0.00  0.00    +0.000 A 
ENDROOT
BRANCH  15  23
ATOM     23  O   UNL     1       1.480  -4.232 -19.761  0.00  0.00    +0.000 OA
ATOM     24  C   UNL     1       1.101  -5.241 -18.859  0.00  0.00    +0.000 C 
ENDBRANCH  15  23
TORSDOF 1
ENDMDL
MODEL 3
REMARK VINA RESULT:      -6.4     22.480     23.889
REMARK  Name = AFLATOXIN.pdbqt.pdb
REMARK  1 active torsions:
REMARK  status: ('A' for Active; 'I' for Inactive)
REMARK    1  A    between atoms: C_15  and  O_23
REMARK                            x       y       z     vdW  Elec       q    Type
REMARK                         _______ _______ _______ _____ _____    ______ ____
ROOT
ATOM      1  O   UNL     1     -10.669  -4.158 -19.503  0.00  0.00    +0.000 OA
ATOM      2  O   UNL     1     -10.469  -3.920 -17.051  0.00  0.00    +0.000 OA
ATOM      3  O   UNL     1     -10.650   0.534 -19.899  0.00  0.00    +0.000 OA
ATOM      4  O   UNL     1     -12.642   3.154 -23.645  0.00  0.00    +0.000 OA
ATOM      5  O   UNL     1     -10.400   2.770 -20.013  0.00  0.00    +0.000 OA
ATOM      6  O   UNL     1     -11.668   4.169 -21.891  0.00  0.00    +0.000 OA
ATOM      7  C   UNL     1     -10.070  -2.129 -18.510  0.00  0.00    +0.000 C 
ATOM      8  C   UNL     1     -10.673  -1.847 -19.797  0.00  0.00    +0.000 A 
ATOM      9  C   UNL     1     -10.073  -3.606 -18.365  0.00  0.00    +0.000 C 
ATOM     10  C   UNL     1     -10.973  -3.099 -20.343  0.00  0.00    +0.000 A 
ATOM     11  C   UNL     1     -10.985  -0.689 -20.485  0.00  0.00    +0.000 A 
ATOM     12  C   UNL     1     -11.598  -0.750 -21.736  0.00  0.00    +0.000 A 
ATOM     13  C   UNL     1     -10.416  -1.611 -17.235  0.00  0.00    +0.000 C 
ATOM     14  C   UNL     1     -11.937   0.538 -22.365  0.00  0.00    +0.000 A 
ATOM     15  C   UNL     1     -11.853  -2.039 -22.285  0.00  0.00    +0.000 A 
ATOM     16  C   UNL     1     -11.570  -3.222 -21.577  0.00  0.00    +0.000 A 
ATOM     17  C   UNL     1     -12.659   0.608 -23.578  0.00  0.00    +0.000 A 
ATOM     18  C   UNL     1     -11.599   1.741 -21.813  0.00  0.00    +0.000 A 
ATOM     19  C   UNL     1     -10.556  -2.648 -16.659  0.00  0.00    +0.000 C 
ATOM     20  C   UNL     1     -12.933   1.960 -24.104  0.00  0.00    +0.000 A 
ATOM     21  C   UNL     1     -10.844   1.756 -20.531  0.00  0.00    +0.000 A 
ATOM     22  C   UNL     1     -11.957   3.112 -22.438  0.00  0.00    +0.000 A 
ENDROOT
BRANCH  15  23
ATOM     23  O   UNL     1     -12.474  -2.176 -23.508  0.00  0.00    +0.000 OA
ATOM     24  C   UNL     1     -12.170  -3.421 -24.085  0.00  0.00    +0.000 C 
ENDBRANCH  15  23
TORSDOF 1
ENDMDL
MODEL 4
REMARK VINA RESULT:      -6.3      5.043      6.818
REMARK  Name = AFLATOXIN.pdbqt.pdb
REMARK  1 active torsions:
REMARK  status: ('A' for Active; 'I' for Inactive)
REMARK    1  A    between atoms: C_15  and  O_23
REMARK                            x       y       z     vdW  Elec       q    Type
REMARK                         _______ _______ _______ _____ _____    ______ ____
ROOT
ATOM      1  O   UNL     1      10.755   0.510 -19.986  0.00  0.00    +0.000 OA
ATOM      2  O   UNL     1      11.537   2.443 -18.661  0.00  0.00    +0.000 OA
ATOM      3  O   UNL     1       6.335   1.488 -18.690  0.00  0.00    +0.000 OA
ATOM      4  O   UNL     1       2.569  -1.774 -18.466  0.00  0.00    +0.000 OA
ATOM      5  O   UNL     1       4.240   2.164 -18.211  0.00  0.00    +0.000 OA
ATOM      6  O   UNL     1       2.297   0.377 -17.868  0.00  0.00    +0.000 OA
ATOM      7  C   UNL     1       9.277   2.144 -19.207  0.00  0.00    +0.000 C 
ATOM      8  C   UNL     1       8.537   0.912 -19.394  0.00  0.00    +0.000 A 
ATOM      9  C   UNL     1      10.677   1.853 -19.605  0.00  0.00    +0.000 C 
ATOM     10  C   UNL     1       9.471  -0.004 -19.889  0.00  0.00    +0.000 A 
ATOM     11  C   UNL     1       7.228   0.528 -19.172  0.00  0.00    +0.000 A 
ATOM     12  C   UNL     1       6.816  -0.775 -19.443  0.00  0.00    +0.000 A 
ATOM     13  C   UNL     1       9.364   2.961 -18.050  0.00  0.00    +0.000 C 
ATOM     14  C   UNL     1       5.415  -1.101 -19.124  0.00  0.00    +0.000 A 
ATOM     15  C   UNL     1       7.777  -1.674 -19.986  0.00  0.00    +0.000 A 
ATOM     16  C   UNL     1       9.121  -1.302 -20.183  0.00  0.00    +0.000 A 
ATOM     17  C   UNL     1       4.908  -2.414 -19.249  0.00  0.00    +0.000 A 
ATOM     18  C   UNL     1       4.525  -0.169 -18.671  0.00  0.00    +0.000 A 
ATOM     19  C   UNL     1      10.554   3.003 -17.955  0.00  0.00    +0.000 C 
ATOM     20  C   UNL     1       3.486  -2.607 -18.900  0.00  0.00    +0.000 A 
ATOM     21  C   UNL     1       4.981   1.237 -18.504  0.00  0.00    +0.000 A 
ATOM     22  C   UNL     1       3.053  -0.481 -18.308  0.00  0.00    +0.000 A 
ENDROOT
BRANCH  15  23
ATOM     23  O   UNL     1       7.446  -2.984 -20.260  0.00  0.00    +0.000 OA
ATOM     24  C   UNL     1       8.568  -3.820 -20.130  0.00  0.00    +0.000 C 
ENDBRANCH  15  23
TORSDOF 1
ENDMDL
MODEL 5
REMARK VINA RESULT:      -6.2     16.026     17.394
REMARK  Name = AFLATOXIN.pdbqt.pdb
REMARK  1 active torsions:
REMARK  status: ('A' for Active; 'I' for Inactive)
REMARK    1  A    between atoms: C_15  and  O_23
REMARK                            x       y       z     vdW  Elec       q    Type
REMARK                         _______ _______ _______ _____ _____    ______ ____
ROOT
ATOM      1  O   UNL     1      -8.329  -2.208 -21.352  0.00  0.00    +0.000 OA
ATOM      2  O   UNL     1      -9.009  -4.199 -20.057  0.00  0.00    +0.000 OA
ATOM      3  O   UNL     1      -3.985  -2.614 -19.580  0.00  0.00    +0.000 OA
ATOM      4  O   UNL     1      -0.683   1.088 -19.070  0.00  0.00    +0.000 OA
ATOM      5  O   UNL     1      -1.886  -3.021 -18.868  0.00  0.00    +0.000 OA
ATOM      6  O   UNL     1      -0.219  -1.002 -18.382  0.00  0.00    +0.000 OA
ATOM      7  C   UNL     1      -6.756  -3.635 -20.376  0.00  0.00    +0.000 C 
ATOM      8  C   UNL     1      -6.154  -2.325 -20.524  0.00  0.00    +0.000 A 
ATOM      9  C   UNL     1      -8.130  -3.524 -20.925  0.00  0.00    +0.000 C 
ATOM     10  C   UNL     1      -7.133  -1.539 -21.140  0.00  0.00    +0.000 A 
ATOM     11  C   UNL     1      -4.931  -1.780 -20.180  0.00  0.00    +0.000 A 
ATOM     12  C   UNL     1      -4.652  -0.440 -20.447  0.00  0.00    +0.000 A 
ATOM     13  C   UNL     1      -6.865  -4.436 -19.210  0.00  0.00    +0.000 C 
ATOM     14  C   UNL     1      -3.341   0.060 -19.996  0.00  0.00    +0.000 A 
ATOM     15  C   UNL     1      -5.651   0.324 -21.113  0.00  0.00    +0.000 A 
ATOM     16  C   UNL     1      -6.912  -0.214 -21.435  0.00  0.00    +0.000 A 
ATOM     17  C   UNL     1      -2.985   1.423 -20.108  0.00  0.00    +0.000 A 
ATOM     18  C   UNL     1      -2.399  -0.748 -19.426  0.00  0.00    +0.000 A 
ATOM     19  C   UNL     1      -8.046  -4.621 -19.237  0.00  0.00    +0.000 C 
ATOM     20  C   UNL     1      -1.642   1.794 -19.620  0.00  0.00    +0.000 A 
ATOM     21  C   UNL     1      -2.698  -2.196 -19.264  0.00  0.00    +0.000 A 
ATOM     22  C   UNL     1      -1.021  -0.251 -18.923  0.00  0.00    +0.000 A 
ENDROOT
BRANCH  15  23
ATOM     23  O   UNL     1      -5.452   1.660 -21.390  0.00  0.00    +0.000 OA
ATOM     24  C   UNL     1      -5.784   1.946 -22.725  0.00  0.00    +0.000 C 
ENDBRANCH  15  23
TORSDOF 1
ENDMDL
MODEL 6
REMARK VINA RESULT:      -6.1     25.888     29.306
REMARK  Name = AFLATOXIN.pdbqt.pdb
REMARK  1 active torsions:
REMARK  status: ('A' for Active; 'I' for Inactive)
REMARK    1  A    between atoms: C_15  and  O_23
REMARK                            x       y       z     vdW  Elec       q    Type
REMARK                         _______ _______ _______ _____ _____    ______ ____
ROOT
ATOM      1  O   UNL     1     -10.210   5.695  -7.436  0.00  0.00    +0.000 OA
ATOM      2  O   UNL     1      -9.764   4.512  -9.560  0.00  0.00    +0.000 OA
ATOM      3  O   UNL     1     -13.958   7.733  -9.429  0.00  0.00    +0.000 OA
ATOM      4  O   UNL     1     -15.995  12.072  -8.055  0.00  0.00    +0.000 OA
ATOM      5  O   UNL     1     -15.856   8.478 -10.386  0.00  0.00    +0.000 OA
ATOM      6  O   UNL     1     -16.793  10.902  -9.802  0.00  0.00    +0.000 OA
ATOM      7  C   UNL     1     -11.810   5.576  -9.136  0.00  0.00    +0.000 C 
ATOM      8  C   UNL     1     -12.079   6.755  -8.338  0.00  0.00    +0.000 A 
ATOM      9  C   UNL     1     -10.626   4.922  -8.525  0.00  0.00    +0.000 C 
ATOM     10  C   UNL     1     -11.110   6.743  -7.329  0.00  0.00    +0.000 A 
ATOM     11  C   UNL     1     -13.004   7.779  -8.409  0.00  0.00    +0.000 A 
ATOM     12  C   UNL     1     -12.992   8.812  -7.474  0.00  0.00    +0.000 A 
ATOM     13  C   UNL     1     -11.630   5.475 -10.540  0.00  0.00    +0.000 C 
ATOM     14  C   UNL     1     -13.986   9.883  -7.665  0.00  0.00    +0.000 A 
ATOM     15  C   UNL     1     -12.022   8.752  -6.433  0.00  0.00    +0.000 A 
ATOM     16  C   UNL     1     -11.054   7.731  -6.373  0.00  0.00    +0.000 A 
ATOM     17  C   UNL     1     -14.002  11.039  -6.851  0.00  0.00    +0.000 A 
ATOM     18  C   UNL     1     -14.936   9.843  -8.645  0.00  0.00    +0.000 A 
ATOM     19  C   UNL     1     -10.576   4.910 -10.540  0.00  0.00    +0.000 C 
ATOM     20  C   UNL     1     -15.050  12.036  -7.145  0.00  0.00    +0.000 A 
ATOM     21  C   UNL     1     -14.982   8.664  -9.551  0.00  0.00    +0.000 A 
ATOM     22  C   UNL     1     -15.981  10.959  -8.886  0.00  0.00    +0.000 A 
ENDROOT
BRANCH  15  23
ATOM     23  O   UNL     1     -11.938   9.749  -5.486  0.00  0.00    +0.000 OA
ATOM     24  C   UNL     1     -12.356   9.279  -4.229  0.00  0.00    +0.000 C 
ENDBRANCH  15  23
TORSDOF 1
ENDMDL
MODEL 7
REMARK VINA RESULT:      -6.0     14.289     15.518
REMARK  Name = AFLATOXIN.pdbqt.pdb
REMARK  1 active torsions:
REMARK  status: ('A' for Active; 'I' for Inactive)
REMARK    1  A    between atoms: C_15  and  O_23
REMARK                            x       y       z     vdW  Elec       q    Type
REMARK                         _______ _______ _______ _____ _____    ______ ____
ROOT
ATOM      1  O   UNL     1      -1.296   3.471 -22.855  0.00  0.00    +0.000 OA
ATOM      2  O   UNL     1       0.607   4.501 -21.661  0.00  0.00    +0.000 OA
ATOM      3  O   UNL     1      -2.706   1.528 -18.804  0.00  0.00    +0.000 OA
ATOM      4  O   UNL     1      -5.460  -2.605 -18.353  0.00  0.00    +0.000 OA
ATOM      5  O   UNL     1      -3.435   0.833 -16.789  0.00  0.00    +0.000 OA
ATOM      6  O   UNL     1      -4.701  -1.497 -16.549  0.00  0.00    +0.000 OA
ATOM      7  C   UNL     1      -1.222   3.578 -20.522  0.00  0.00    +0.000 C 
ATOM      8  C   UNL     1      -2.067   2.464 -20.900  0.00  0.00    +0.000 A 
ATOM      9  C   UNL     1      -0.762   4.200 -21.788  0.00  0.00    +0.000 C 
ATOM     10  C   UNL     1      -2.091   2.482 -22.299  0.00  0.00    +0.000 A 
ATOM     11  C   UNL     1      -2.753   1.490 -20.200  0.00  0.00    +0.000 A 
ATOM     12  C   UNL     1      -3.485   0.514 -20.874  0.00  0.00    +0.000 A 
ATOM     13  C   UNL     1      -0.099   3.586 -19.654  0.00  0.00    +0.000 C 
ATOM     14  C   UNL     1      -4.139  -0.510 -20.040  0.00  0.00    +0.000 A 
ATOM     15  C   UNL     1      -3.526   0.582 -22.296  0.00  0.00    +0.000 A 
ATOM     16  C   UNL     1      -2.803   1.550 -23.019  0.00  0.00    +0.000 A 
ATOM     17  C   UNL     1      -4.815  -1.614 -20.609  0.00  0.00    +0.000 A 
ATOM     18  C   UNL     1      -4.117  -0.475 -18.676  0.00  0.00    +0.000 A 
ATOM     19  C   UNL     1       0.690   4.091 -20.395  0.00  0.00    +0.000 C 
ATOM     20  C   UNL     1      -5.428  -2.568 -19.664  0.00  0.00    +0.000 A 
ATOM     21  C   UNL     1      -3.419   0.650 -17.997  0.00  0.00    +0.000 A 
ATOM     22  C   UNL     1      -4.776  -1.545 -17.771  0.00  0.00    +0.000 A 
ENDROOT
BRANCH  15  23
ATOM     23  O   UNL     1      -4.213  -0.362 -23.029  0.00  0.00    +0.000 OA
ATOM     24  C   UNL     1      -5.153   0.252 -23.875  0.00  0.00    +0.000 C 
ENDBRANCH  15  23
TORSDOF 1
ENDMDL
MODEL 8
REMARK VINA RESULT:      -5.9     26.347     28.874
REMARK  Name = AFLATOXIN.pdbqt.pdb
REMARK  1 active torsions:
REMARK  status: ('A' for Active; 'I' for Inactive)
REMARK    1  A    between atoms: C_15  and  O_23
REMARK                            x       y       z     vdW  Elec       q    Type
REMARK                         _______ _______ _______ _____ _____    ______ ____
ROOT
ATOM      1  O   UNL     1      -7.651   0.722   3.188  0.00  0.00    +0.000 OA
ATOM      2  O   UNL     1      -5.875   2.089   2.146  0.00  0.00    +0.000 OA
ATOM      3  O   UNL     1      -7.824  -1.915  -0.709  0.00  0.00    +0.000 OA
ATOM      4  O   UNL     1     -11.754  -4.556  -2.275  0.00  0.00    +0.000 OA
ATOM      5  O   UNL     1      -7.676  -3.259  -2.511  0.00  0.00    +0.000 OA
ATOM      6  O   UNL     1      -9.846  -4.474  -3.463  0.00  0.00    +0.000 OA
ATOM      7  C   UNL     1      -6.513   0.007   1.276  0.00  0.00    +0.000 C 
ATOM      8  C   UNL     1      -7.812  -0.634   1.300  0.00  0.00    +0.000 A 
ATOM      9  C   UNL     1      -6.443   0.849   2.496  0.00  0.00    +0.000 C 
ATOM     10  C   UNL     1      -8.418  -0.189   2.479  0.00  0.00    +0.000 A 
ATOM     11  C   UNL     1      -8.482  -1.491   0.447  0.00  0.00    +0.000 A 
ATOM     12  C   UNL     1      -9.770  -1.929   0.751  0.00  0.00    +0.000 A 
ATOM     13  C   UNL     1      -5.919   0.773   0.239  0.00  0.00    +0.000 C 
ATOM     14  C   UNL     1     -10.420  -2.799  -0.246  0.00  0.00    +0.000 A 
ATOM     15  C   UNL     1     -10.346  -1.494   1.978  0.00  0.00    +0.000 A 
ATOM     16  C   UNL     1      -9.684  -0.594   2.835  0.00  0.00    +0.000 A 
ATOM     17  C   UNL     1     -11.763  -3.217  -0.107  0.00  0.00    +0.000 A 
ATOM     18  C   UNL     1      -9.782  -3.237  -1.371  0.00  0.00    +0.000 A 
ATOM     19  C   UNL     1      -5.660   1.753   0.873  0.00  0.00    +0.000 C 
ATOM     20  C   UNL     1     -12.295  -4.088  -1.175  0.00  0.00    +0.000 A 
ATOM     21  C   UNL     1      -8.368  -2.835  -1.597  0.00  0.00    +0.000 A 
ATOM     22  C   UNL     1     -10.442  -4.134  -2.447  0.00  0.00    +0.000 A 
ENDROOT
BRANCH  15  23
ATOM     23  O   UNL     1     -11.623  -1.871   2.333  0.00  0.00    +0.000 OA
ATOM     24  C   UNL     1     -12.370  -0.760   2.761  0.00  0.00    +0.000 C 
ENDBRANCH  15  23
TORSDOF 1
ENDMDL
MODEL 9
REMARK VINA RESULT:      -5.6      2.028      6.367
REMARK  Name = AFLATOXIN.pdbqt.pdb
REMARK  1 active torsions:
REMARK  status: ('A' for Active; 'I' for Inactive)
REMARK    1  A    between atoms: C_15  and  O_23
REMARK                            x       y       z     vdW  Elec       q    Type
REMARK                         _______ _______ _______ _____ _____    ______ ____
ROOT
ATOM      1  O   UNL     1      12.678  -4.735 -17.999  0.00  0.00    +0.000 OA
ATOM      2  O   UNL     1      14.907  -5.801 -18.042  0.00  0.00    +0.000 OA
ATOM      3  O   UNL     1      14.221  -1.522 -21.076  0.00  0.00    +0.000 OA
ATOM      4  O   UNL     1      12.392   3.081 -21.653  0.00  0.00    +0.000 OA
ATOM      5  O   UNL     1      14.970  -0.173 -22.717  0.00  0.00    +0.000 OA
ATOM      6  O   UNL     1      14.147   2.356 -22.858  0.00  0.00    +0.000 OA
ATOM      7  C   UNL     1      14.249  -4.230 -19.653  0.00  0.00    +0.000 C 
ATOM      8  C   UNL     1      13.353  -3.100 -19.515  0.00  0.00    +0.000 A 
ATOM      9  C   UNL     1      13.781  -5.252 -18.685  0.00  0.00    +0.000 C 
ATOM     10  C   UNL     1      12.427  -3.484 -18.540  0.00  0.00    +0.000 A 
ATOM     11  C   UNL     1      13.279  -1.848 -20.097  0.00  0.00    +0.000 A 
ATOM     12  C   UNL     1      12.278  -0.952 -19.727  0.00  0.00    +0.000 A 
ATOM     13  C   UNL     1      15.667  -4.252 -19.589  0.00  0.00    +0.000 C 
ATOM     14  C   UNL     1      12.315   0.375 -20.367  0.00  0.00    +0.000 A 
ATOM     15  C   UNL     1      11.324  -1.386 -18.763  0.00  0.00    +0.000 A 
ATOM     16  C   UNL     1      11.412  -2.645 -18.140  0.00  0.00    +0.000 A 
ATOM     17  C   UNL     1      11.424   1.407 -19.994  0.00  0.00    +0.000 A 
ATOM     18  C   UNL     1      13.217   0.702 -21.338  0.00  0.00    +0.000 A 
ATOM     19  C   UNL     1      15.789  -5.097 -18.752  0.00  0.00    +0.000 C 
ATOM     20  C   UNL     1      11.565   2.689 -20.713  0.00  0.00    +0.000 A 
ATOM     21  C   UNL     1      14.197  -0.326 -21.783  0.00  0.00    +0.000 A 
ATOM     22  C   UNL     1      13.297   2.091 -22.016  0.00  0.00    +0.000 A 
ENDROOT
BRANCH  15  23
ATOM     23  O   UNL     1      10.319  -0.545 -18.334  0.00  0.00    +0.000 OA
ATOM     24  C   UNL     1      10.528  -0.159 -16.999  0.00  0.00    +0.000 C 
ENDBRANCH  15  23
TORSDOF 1
ENDMDL
