MODEL 1
REMARK VINA RESULT:      -8.4      0.000      0.000
REMARK  Name = AZD4547.pdbqt.pdb
REMARK  6 active torsions:
REMARK  status: ('A' for Active; 'I' for Inactive)
REMARK    1  A    between atoms: C_3  and  C_23
REMARK    2  A    between atoms: C_8  and  C_11
REMARK    3  A    between atoms: C_12  and  C_13
REMARK    4  A    between atoms: C_15  and  O_19
REMARK    5  A    between atoms: C_17  and  O_21
REMARK    6  A    between atoms: C_26  and  N_29
REMARK                            x       y       z     vdW  Elec       q    Type
REMARK                         _______ _______ _______ _____ _____    ______ ____
ROOT
ATOM      1  O   UNL     1      -1.082   1.359  -0.851  0.00  0.00    +0.000 OA
ATOM      2  N   UNL     1      -0.784   1.201   1.440  0.00  0.00    +0.000 N 
ATOM      3  C   UNL     1      -1.477   1.031   0.263  0.00  0.00    +0.000 C 
ATOM      4  H   UNL     1      -1.152   0.917   2.336  0.00  0.00    +0.000 HD
ATOM      5  C   UNL     1       0.466   1.765   1.532  0.00  0.00    +0.000 A 
ATOM      6  N   UNL     1       1.036   1.878   2.736  0.00  0.00    +0.000 NA
ATOM      7  N   UNL     1       2.222   2.456   2.474  0.00  0.00    +0.000 N 
ATOM      8  C   UNL     1       2.427   2.713   1.151  0.00  0.00    +0.000 A 
ATOM      9  H   UNL     1       2.850   2.649   3.247  0.00  0.00    +0.000 HD
ATOM     10  C   UNL     1       1.298   2.276   0.505  0.00  0.00    +0.000 A 
ENDROOT
BRANCH   3  11
ATOM     11  C   UNL     1      -2.813   0.396   0.382  0.00  0.00    +0.000 A 
ATOM     12  C   UNL     1      -3.942   1.215   0.386  0.00  0.00    +0.000 A 
ATOM     13  C   UNL     1      -5.212   0.654   0.497  0.00  0.00    +0.000 A 
ATOM     14  C   UNL     1      -5.385  -0.731   0.621  0.00  0.00    +0.000 A 
ATOM     15  C   UNL     1      -4.241  -1.540   0.597  0.00  0.00    +0.000 A 
ATOM     16  C   UNL     1      -2.966  -0.985   0.486  0.00  0.00    +0.000 A 
BRANCH  14  17
ATOM     17  N   UNL     1      -6.678  -1.302   0.689  0.00  0.00    +0.000 N 
ATOM     18  C   UNL     1      -7.166  -2.070  -0.470  0.00  0.00    +0.000 C 
ATOM     19  C   UNL     1      -8.343  -2.058  -1.275  0.00  0.00    +0.000 C 
ATOM     20  N   UNL     1      -9.338  -1.090  -0.938  0.00  0.00    +0.000 N 
ATOM     21  C   UNL     1      -8.535  -2.970  -2.433  0.00  0.00    +0.000 C 
ATOM     22  C   UNL     1      -9.078  -0.222   0.165  0.00  0.00    +0.000 C 
ATOM     23  H   UNL     1     -10.186  -1.008  -1.477  0.00  0.00    +0.000 HD
ATOM     24  C   UNL     1      -7.834  -0.402   0.839  0.00  0.00    +0.000 C 
ATOM     25  C   UNL     1     -10.049   0.837   0.543  0.00  0.00    +0.000 C 
ENDBRANCH  14  17
ENDBRANCH   3  11
BRANCH   8  26
ATOM     26  C   UNL     1       3.586   3.312   0.604  0.00  0.00    +0.000 C 
ATOM     27  C   UNL     1       4.843   3.956   0.009  0.00  0.00    +0.000 C 
BRANCH  27  28
ATOM     28  C   UNL     1       6.013   4.547  -0.548  0.00  0.00    +0.000 A 
ATOM     29  C   UNL     1       6.818   5.367   0.237  0.00  0.00    +0.000 A 
ATOM     30  C   UNL     1       7.970   5.946  -0.302  0.00  0.00    +0.000 A 
ATOM     31  C   UNL     1       8.306   5.688  -1.633  0.00  0.00    +0.000 A 
ATOM     32  C   UNL     1       7.499   4.871  -2.426  0.00  0.00    +0.000 A 
ATOM     33  C   UNL     1       6.351   4.299  -1.875  0.00  0.00    +0.000 A 
BRANCH  30  34
ATOM     34  O   UNL     1       8.836   6.761   0.383  0.00  0.00    +0.000 OA
ATOM     35  C   UNL     1       8.238   7.787   1.124  0.00  0.00    +0.000 C 
ENDBRANCH  30  34
BRANCH  32  36
ATOM     36  O   UNL     1       7.927   4.688  -3.718  0.00  0.00    +0.000 OA
ATOM     37  C   UNL     1       7.254   3.694  -4.441  0.00  0.00    +0.000 C 
ENDBRANCH  32  36
ENDBRANCH  27  28
ENDBRANCH   8  26
TORSDOF 6
ENDMDL
MODEL 2
REMARK VINA RESULT:      -8.3      0.880      2.312
REMARK  Name = AZD4547.pdbqt.pdb
REMARK  6 active torsions:
REMARK  status: ('A' for Active; 'I' for Inactive)
REMARK    1  A    between atoms: C_3  and  C_23
REMARK    2  A    between atoms: C_8  and  C_11
REMARK    3  A    between atoms: C_12  and  C_13
REMARK    4  A    between atoms: C_15  and  O_19
REMARK    5  A    between atoms: C_17  and  O_21
REMARK    6  A    between atoms: C_26  and  N_29
REMARK                            x       y       z     vdW  Elec       q    Type
REMARK                         _______ _______ _______ _____ _____    ______ ____
ROOT
ATOM      1  O   UNL     1      -1.282   1.254  -0.582  0.00  0.00    +0.000 OA
ATOM      2  N   UNL     1      -1.229   1.183   1.732  0.00  0.00    +0.000 N 
ATOM      3  C   UNL     1      -1.802   0.986   0.496  0.00  0.00    +0.000 C 
ATOM      4  H   UNL     1      -1.698   0.949   2.594  0.00  0.00    +0.000 HD
ATOM      5  C   UNL     1       0.024   1.710   1.932  0.00  0.00    +0.000 A 
ATOM      6  N   UNL     1       0.470   1.855   3.184  0.00  0.00    +0.000 NA
ATOM      7  N   UNL     1       1.698   2.383   3.026  0.00  0.00    +0.000 N 
ATOM      8  C   UNL     1       2.048   2.577   1.723  0.00  0.00    +0.000 A 
ATOM      9  H   UNL     1       2.248   2.588   3.853  0.00  0.00    +0.000 HD
ATOM     10  C   UNL     1       0.976   2.149   0.979  0.00  0.00    +0.000 A 
ENDROOT
BRANCH   3  11
ATOM     11  C   UNL     1      -3.166   0.400   0.499  0.00  0.00    +0.000 A 
ATOM     12  C   UNL     1      -3.297  -0.982   0.629  0.00  0.00    +0.000 A 
ATOM     13  C   UNL     1      -4.561  -1.567   0.636  0.00  0.00    +0.000 A 
ATOM     14  C   UNL     1      -5.720  -0.792   0.498  0.00  0.00    +0.000 A 
ATOM     15  C   UNL     1      -5.570   0.597   0.386  0.00  0.00    +0.000 A 
ATOM     16  C   UNL     1      -4.307   1.190   0.379  0.00  0.00    +0.000 A 
BRANCH  14  17
ATOM     17  N   UNL     1      -7.004  -1.383   0.549  0.00  0.00    +0.000 N 
ATOM     18  C   UNL     1      -7.468  -2.155  -0.617  0.00  0.00    +0.000 C 
ATOM     19  C   UNL     1      -8.635  -2.159  -1.435  0.00  0.00    +0.000 C 
ATOM     20  N   UNL     1      -9.649  -1.207  -1.106  0.00  0.00    +0.000 N 
ATOM     21  C   UNL     1      -8.801  -3.071  -2.597  0.00  0.00    +0.000 C 
ATOM     22  C   UNL     1      -9.414  -0.338   0.001  0.00  0.00    +0.000 C 
ATOM     23  H   UNL     1     -10.492  -1.137  -1.655  0.00  0.00    +0.000 HD
ATOM     24  C   UNL     1      -8.175  -0.501   0.689  0.00  0.00    +0.000 C 
ATOM     25  C   UNL     1     -10.406   0.705   0.371  0.00  0.00    +0.000 C 
ENDBRANCH  14  17
ENDBRANCH   3  11
BRANCH   8  26
ATOM     26  C   UNL     1       3.279   3.114   1.277  0.00  0.00    +0.000 C 
ATOM     27  C   UNL     1       4.614   3.692   0.795  0.00  0.00    +0.000 C 
BRANCH  27  28
ATOM     28  C   UNL     1       5.858   4.220   0.347  0.00  0.00    +0.000 A 
ATOM     29  C   UNL     1       6.029   4.552  -0.995  0.00  0.00    +0.000 A 
ATOM     30  C   UNL     1       7.246   5.075  -1.439  0.00  0.00    +0.000 A 
ATOM     31  C   UNL     1       8.284   5.265  -0.524  0.00  0.00    +0.000 A 
ATOM     32  C   UNL     1       8.119   4.929   0.821  0.00  0.00    +0.000 A 
ATOM     33  C   UNL     1       6.898   4.407   1.252  0.00  0.00    +0.000 A 
BRANCH  30  34
ATOM     34  O   UNL     1       7.520   5.442  -2.733  0.00  0.00    +0.000 OA
ATOM     35  C   UNL     1       7.853   4.393  -3.598  0.00  0.00    +0.000 C 
ENDBRANCH  30  34
BRANCH  32  36
ATOM     36  O   UNL     1       9.206   5.160   1.628  0.00  0.00    +0.000 OA
ATOM     37  C   UNL     1      10.037   6.216   1.231  0.00  0.00    +0.000 C 
ENDBRANCH  32  36
ENDBRANCH  27  28
ENDBRANCH   8  26
TORSDOF 6
ENDMDL
MODEL 3
REMARK VINA RESULT:      -8.2      1.826      2.517
REMARK  Name = AZD4547.pdbqt.pdb
REMARK  6 active torsions:
REMARK  status: ('A' for Active; 'I' for Inactive)
REMARK    1  A    between atoms: C_3  and  C_23
REMARK    2  A    between atoms: C_8  and  C_11
REMARK    3  A    between atoms: C_12  and  C_13
REMARK    4  A    between atoms: C_15  and  O_19
REMARK    5  A    between atoms: C_17  and  O_21
REMARK    6  A    between atoms: C_26  and  N_29
REMARK                            x       y       z     vdW  Elec       q    Type
REMARK                         _______ _______ _______ _____ _____    ______ ____
ROOT
ATOM      1  O   UNL     1      -1.701   1.172  -0.633  0.00  0.00    +0.000 OA
ATOM      2  N   UNL     1      -1.627   1.156   1.681  0.00  0.00    +0.000 N 
ATOM      3  C   UNL     1      -2.238   1.008   0.457  0.00  0.00    +0.000 C 
ATOM      4  H   UNL     1      -2.112   1.013   2.554  0.00  0.00    +0.000 HD
ATOM      5  C   UNL     1      -0.310   1.508   1.854  0.00  0.00    +0.000 A 
ATOM      6  N   UNL     1       0.169   1.623   3.097  0.00  0.00    +0.000 NA
ATOM      7  N   UNL     1       1.456   1.971   2.912  0.00  0.00    +0.000 N 
ATOM      8  C   UNL     1       1.811   2.080   1.601  0.00  0.00    +0.000 A 
ATOM      9  H   UNL     1       2.041   2.119   3.728  0.00  0.00    +0.000 HD
ATOM     10  C   UNL     1       0.681   1.785   0.880  0.00  0.00    +0.000 A 
ENDROOT
BRANCH   3  11
ATOM     11  C   UNL     1      -3.670   0.618   0.489  0.00  0.00    +0.000 A 
ATOM     12  C   UNL     1      -4.635   1.621   0.409  0.00  0.00    +0.000 A 
ATOM     13  C   UNL     1      -5.989   1.292   0.437  0.00  0.00    +0.000 A 
ATOM     14  C   UNL     1      -6.410  -0.038   0.561  0.00  0.00    +0.000 A 
ATOM     15  C   UNL     1      -5.426  -1.035   0.621  0.00  0.00    +0.000 A 
ATOM     16  C   UNL     1      -4.069  -0.713   0.593  0.00  0.00    +0.000 A 
BRANCH  14  17
ATOM     17  N   UNL     1      -7.784  -0.374   0.544  0.00  0.00    +0.000 N 
ATOM     18  C   UNL     1      -8.424  -0.771   1.810  0.00  0.00    +0.000 C 
ATOM     19  C   UNL     1      -9.223  -1.869   2.246  0.00  0.00    +0.000 C 
ATOM     20  N   UNL     1      -9.517  -2.871   1.271  0.00  0.00    +0.000 N 
ATOM     21  C   UNL     1      -9.710  -2.005   3.644  0.00  0.00    +0.000 C 
ATOM     22  C   UNL     1      -8.992  -2.697  -0.044  0.00  0.00    +0.000 C 
ATOM     23  H   UNL     1     -10.057  -3.687   1.514  0.00  0.00    +0.000 HD
ATOM     24  C   UNL     1      -8.214  -1.523  -0.271  0.00  0.00    +0.000 C 
ATOM     25  C   UNL     1      -9.221  -3.722  -1.095  0.00  0.00    +0.000 C 
ENDBRANCH  14  17
ENDBRANCH   3  11
BRANCH   8  26
ATOM     26  C   UNL     1       3.099   2.428   1.128  0.00  0.00    +0.000 C 
ATOM     27  C   UNL     1       4.495   2.802   0.619  0.00  0.00    +0.000 C 
BRANCH  27  28
ATOM     28  C   UNL     1       5.797   3.143   0.151  0.00  0.00    +0.000 A 
ATOM     29  C   UNL     1       6.906   2.439   0.611  0.00  0.00    +0.000 A 
ATOM     30  C   UNL     1       8.184   2.766   0.152  0.00  0.00    +0.000 A 
ATOM     31  C   UNL     1       8.335   3.801  -0.774  0.00  0.00    +0.000 A 
ATOM     32  C   UNL     1       7.226   4.513  -1.234  0.00  0.00    +0.000 A 
ATOM     33  C   UNL     1       5.954   4.177  -0.767  0.00  0.00    +0.000 A 
BRANCH  30  34
ATOM     34  O   UNL     1       9.343   2.134   0.531  0.00  0.00    +0.000 OA
ATOM     35  C   UNL     1      10.446   2.972   0.732  0.00  0.00    +0.000 C 
ENDBRANCH  30  34
BRANCH  32  36
ATOM     36  O   UNL     1       7.495   5.507  -2.142  0.00  0.00    +0.000 OA
ATOM     37  C   UNL     1       8.820   5.964  -2.161  0.00  0.00    +0.000 C 
ENDBRANCH  32  36
ENDBRANCH  27  28
ENDBRANCH   8  26
TORSDOF 6
ENDMDL
MODEL 4
REMARK VINA RESULT:      -7.3     18.658     19.489
REMARK  Name = AZD4547.pdbqt.pdb
REMARK  6 active torsions:
REMARK  status: ('A' for Active; 'I' for Inactive)
REMARK    1  A    between atoms: C_3  and  C_23
REMARK    2  A    between atoms: C_8  and  C_11
REMARK    3  A    between atoms: C_12  and  C_13
REMARK    4  A    between atoms: C_15  and  O_19
REMARK    5  A    between atoms: C_17  and  O_21
REMARK    6  A    between atoms: C_26  and  N_29
REMARK                            x       y       z     vdW  Elec       q    Type
REMARK                         _______ _______ _______ _____ _____    ______ ____
ROOT
ATOM      1  O   UNL     1       0.374   0.954 -19.453  0.00  0.00    +0.000 OA
ATOM      2  N   UNL     1       0.751  -1.158 -18.581  0.00  0.00    +0.000 N 
ATOM      3  C   UNL     1      -0.034  -0.134 -19.063  0.00  0.00    +0.000 C 
ATOM      4  H   UNL     1       0.369  -2.037 -18.267  0.00  0.00    +0.000 HD
ATOM      5  C   UNL     1       2.120  -1.103 -18.475  0.00  0.00    +0.000 A 
ATOM      6  N   UNL     1       2.772  -2.164 -17.989  0.00  0.00    +0.000 NA
ATOM      7  N   UNL     1       4.063  -1.786 -18.021  0.00  0.00    +0.000 N 
ATOM      8  C   UNL     1       4.255  -0.529 -18.509  0.00  0.00    +0.000 A 
ATOM      9  H   UNL     1       4.768  -2.439 -17.693  0.00  0.00    +0.000 HD
ATOM     10  C   UNL     1       3.005  -0.051 -18.816  0.00  0.00    +0.000 A 
ENDROOT
BRANCH   3  11
ATOM     11  C   UNL     1      -1.495  -0.398 -19.098  0.00  0.00    +0.000 A 
ATOM     12  C   UNL     1      -2.369   0.678 -18.953  0.00  0.00    +0.000 A 
ATOM     13  C   UNL     1      -3.746   0.468 -18.980  0.00  0.00    +0.000 A 
ATOM     14  C   UNL     1      -4.281  -0.817 -19.137  0.00  0.00    +0.000 A 
ATOM     15  C   UNL     1      -3.387  -1.884 -19.300  0.00  0.00    +0.000 A 
ATOM     16  C   UNL     1      -2.007  -1.681 -19.273  0.00  0.00    +0.000 A 
BRANCH  14  17
ATOM     17  N   UNL     1      -5.679  -1.022 -19.209  0.00  0.00    +0.000 N 
ATOM     18  C   UNL     1      -6.204  -2.373 -18.944  0.00  0.00    +0.000 C 
ATOM     19  C   UNL     1      -7.081  -3.274 -19.617  0.00  0.00    +0.000 C 
ATOM     20  N   UNL     1      -7.623  -2.828 -20.861  0.00  0.00    +0.000 N 
ATOM     21  C   UNL     1      -7.404  -4.626 -19.091  0.00  0.00    +0.000 C 
ATOM     22  C   UNL     1      -7.247  -1.532 -21.326  0.00  0.00    +0.000 C 
ATOM     23  H   UNL     1      -8.232  -3.421 -21.403  0.00  0.00    +0.000 HD
ATOM     24  C   UNL     1      -6.355  -0.790 -20.497  0.00  0.00    +0.000 C 
ATOM     25  C   UNL     1      -7.738  -1.023 -22.633  0.00  0.00    +0.000 C 
ENDBRANCH  14  17
ENDBRANCH   3  11
BRANCH   8  26
ATOM     26  C   UNL     1       5.509   0.111 -18.653  0.00  0.00    +0.000 C 
ATOM     27  C   UNL     1       6.867   0.803 -18.812  0.00  0.00    +0.000 C 
BRANCH  27  28
ATOM     28  C   UNL     1       8.131   1.442 -18.969  0.00  0.00    +0.000 A 
ATOM     29  C   UNL     1       8.967   1.607 -17.868  0.00  0.00    +0.000 A 
ATOM     30  C   UNL     1      10.209   2.229 -18.017  0.00  0.00    +0.000 A 
ATOM     31  C   UNL     1      10.602   2.678 -19.280  0.00  0.00    +0.000 A 
ATOM     32  C   UNL     1       9.765   2.520 -20.385  0.00  0.00    +0.000 A 
ATOM     33  C   UNL     1       8.526   1.897 -20.223  0.00  0.00    +0.000 A 
BRANCH  30  34
ATOM     34  O   UNL     1      11.113   2.435 -17.004  0.00  0.00    +0.000 OA
ATOM     35  C   UNL     1      12.003   1.380 -16.770  0.00  0.00    +0.000 C 
ENDBRANCH  30  34
BRANCH  32  36
ATOM     36  O   UNL     1      10.256   3.000 -21.574  0.00  0.00    +0.000 OA
ATOM     37  C   UNL     1      11.601   2.703 -21.834  0.00  0.00    +0.000 C 
ENDBRANCH  32  36
ENDBRANCH  27  28
ENDBRANCH   8  26
TORSDOF 6
ENDMDL
MODEL 5
REMARK VINA RESULT:      -7.2      5.366     15.023
REMARK  Name = AZD4547.pdbqt.pdb
REMARK  6 active torsions:
REMARK  status: ('A' for Active; 'I' for Inactive)
REMARK    1  A    between atoms: C_3  and  C_23
REMARK    2  A    between atoms: C_8  and  C_11
REMARK    3  A    between atoms: C_12  and  C_13
REMARK    4  A    between atoms: C_15  and  O_19
REMARK    5  A    between atoms: C_17  and  O_21
REMARK    6  A    between atoms: C_26  and  N_29
REMARK                            x       y       z     vdW  Elec       q    Type
REMARK                         _______ _______ _______ _____ _____    ______ ____
ROOT
ATOM      1  O   UNL     1      -3.950  -1.502   1.010  0.00  0.00    +0.000 OA
ATOM      2  N   UNL     1      -4.939   0.507   0.421  0.00  0.00    +0.000 N 
ATOM      3  C   UNL     1      -3.890  -0.293   0.814  0.00  0.00    +0.000 C 
ATOM      4  H   UNL     1      -4.842   1.501   0.275  0.00  0.00    +0.000 HD
ATOM      5  C   UNL     1      -6.215   0.055   0.187  0.00  0.00    +0.000 A 
ATOM      6  N   UNL     1      -7.151   0.934  -0.189  0.00  0.00    +0.000 NA
ATOM      7  N   UNL     1      -8.257   0.179  -0.331  0.00  0.00    +0.000 N 
ATOM      8  C   UNL     1      -8.058  -1.142  -0.063  0.00  0.00    +0.000 A 
ATOM      9  H   UNL     1      -9.119   0.631  -0.617  0.00  0.00    +0.000 HD
ATOM     10  C   UNL     1      -6.734  -1.260   0.281  0.00  0.00    +0.000 A 
ENDROOT
BRANCH   3  11
ATOM     11  C   UNL     1      -2.588   0.393   1.010  0.00  0.00    +0.000 A 
ATOM     12  C   UNL     1      -2.240   0.803   2.296  0.00  0.00    +0.000 A 
ATOM     13  C   UNL     1      -1.026   1.451   2.519  0.00  0.00    +0.000 A 
ATOM     14  C   UNL     1      -0.142   1.716   1.465  0.00  0.00    +0.000 A 
ATOM     15  C   UNL     1      -0.500   1.280   0.182  0.00  0.00    +0.000 A 
ATOM     16  C   UNL     1      -1.714   0.631  -0.047  0.00  0.00    +0.000 A 
BRANCH  14  17
ATOM     17  N   UNL     1       1.109   2.333   1.700  0.00  0.00    +0.000 N 
ATOM     18  C   UNL     1       2.114   1.602   2.492  0.00  0.00    +0.000 C 
ATOM     19  C   UNL     1       2.922   1.896   3.629  0.00  0.00    +0.000 C 
ATOM     20  N   UNL     1       2.778   3.198   4.197  0.00  0.00    +0.000 N 
ATOM     21  C   UNL     1       3.851   0.904   4.234  0.00  0.00    +0.000 C 
ATOM     22  C   UNL     1       1.846   4.092   3.588  0.00  0.00    +0.000 C 
ATOM     23  H   UNL     1       3.300   3.468   5.016  0.00  0.00    +0.000 HD
ATOM     24  C   UNL     1       1.135   3.598   2.454  0.00  0.00    +0.000 C 
ATOM     25  C   UNL     1       1.612   5.446   4.154  0.00  0.00    +0.000 C 
ENDBRANCH  14  17
ENDBRANCH   3  11
BRANCH   8  26
ATOM     26  C   UNL     1      -9.048  -2.150  -0.138  0.00  0.00    +0.000 C 
ATOM     27  C   UNL     1     -10.122  -3.240  -0.221  0.00  0.00    +0.000 C 
BRANCH  27  28
ATOM     28  C   UNL     1     -11.125  -4.248  -0.306  0.00  0.00    +0.000 A 
ATOM     29  C   UNL     1     -11.063  -5.360   0.529  0.00  0.00    +0.000 A 
ATOM     30  C   UNL     1     -12.047  -6.349   0.455  0.00  0.00    +0.000 A 
ATOM     31  C   UNL     1     -13.092  -6.207  -0.461  0.00  0.00    +0.000 A 
ATOM     32  C   UNL     1     -13.155  -5.096  -1.304  0.00  0.00    +0.000 A 
ATOM     33  C   UNL     1     -12.166  -4.115  -1.219  0.00  0.00    +0.000 A 
BRANCH  30  34
ATOM     34  O   UNL     1     -12.088  -7.479   1.233  0.00  0.00    +0.000 OA
ATOM     35  C   UNL     1     -12.982  -8.469   0.808  0.00  0.00    +0.000 C 
ENDBRANCH  30  34
BRANCH  32  36
ATOM     36  O   UNL     1     -14.227  -5.063  -2.162  0.00  0.00    +0.000 OA
ATOM     37  C   UNL     1     -15.051  -6.196  -2.140  0.00  0.00    +0.000 C 
ENDBRANCH  32  36
ENDBRANCH  27  28
ENDBRANCH   8  26
TORSDOF 6
ENDMDL
MODEL 6
REMARK VINA RESULT:      -7.0     18.423     19.531
REMARK  Name = AZD4547.pdbqt.pdb
REMARK  6 active torsions:
REMARK  status: ('A' for Active; 'I' for Inactive)
REMARK    1  A    between atoms: C_3  and  C_23
REMARK    2  A    between atoms: C_8  and  C_11
REMARK    3  A    between atoms: C_12  and  C_13
REMARK    4  A    between atoms: C_15  and  O_19
REMARK    5  A    between atoms: C_17  and  O_21
REMARK    6  A    between atoms: C_26  and  N_29
REMARK                            x       y       z     vdW  Elec       q    Type
REMARK                         _______ _______ _______ _____ _____    ______ ____
ROOT
ATOM      1  O   UNL     1      -2.464  -0.267 -19.265  0.00  0.00    +0.000 OA
ATOM      2  N   UNL     1      -2.182  -2.564 -19.341  0.00  0.00    +0.000 N 
ATOM      3  C   UNL     1      -2.922  -1.404 -19.303  0.00  0.00    +0.000 C 
ATOM      4  H   UNL     1      -2.604  -3.480 -19.368  0.00  0.00    +0.000 HD
ATOM      5  C   UNL     1      -0.808  -2.610 -19.348  0.00  0.00    +0.000 A 
ATOM      6  N   UNL     1      -0.202  -3.801 -19.385  0.00  0.00    +0.000 NA
ATOM      7  N   UNL     1       1.108  -3.493 -19.382  0.00  0.00    +0.000 N 
ATOM      8  C   UNL     1       1.356  -2.153 -19.347  0.00  0.00    +0.000 A 
ATOM      9  H   UNL     1       1.784  -4.248 -19.406  0.00  0.00    +0.000 HD
ATOM     10  C   UNL     1       0.126  -1.544 -19.323  0.00  0.00    +0.000 A 
ENDROOT
BRANCH   3  11
ATOM     11  C   UNL     1      -4.396  -1.575 -19.305  0.00  0.00    +0.000 A 
ATOM     12  C   UNL     1      -5.112  -1.163 -20.429  0.00  0.00    +0.000 A 
ATOM     13  C   UNL     1      -6.497  -1.308 -20.467  0.00  0.00    +0.000 A 
ATOM     14  C   UNL     1      -7.200  -1.850 -19.383  0.00  0.00    +0.000 A 
ATOM     15  C   UNL     1      -6.462  -2.276 -18.270  0.00  0.00    +0.000 A 
ATOM     16  C   UNL     1      -5.075  -2.134 -18.225  0.00  0.00    +0.000 A 
BRANCH  14  17
ATOM     17  N   UNL     1      -8.601  -2.037 -19.441  0.00  0.00    +0.000 N 
ATOM     18  C   UNL     1      -9.454  -0.865 -19.704  0.00  0.00    +0.000 C 
ATOM     19  C   UNL     1     -10.599  -0.282 -19.087  0.00  0.00    +0.000 C 
ATOM     20  N   UNL     1     -11.100  -0.937 -17.921  0.00  0.00    +0.000 N 
ATOM     21  C   UNL     1     -11.238   0.963 -19.590  0.00  0.00    +0.000 C 
ATOM     22  C   UNL     1     -10.422  -2.109 -17.471  0.00  0.00    +0.000 C 
ATOM     23  H   UNL     1     -11.893  -0.569 -17.419  0.00  0.00    +0.000 HD
ATOM     24  C   UNL     1      -9.292  -2.527 -18.236  0.00  0.00    +0.000 C 
ATOM     25  C   UNL     1     -10.861  -2.816 -16.240  0.00  0.00    +0.000 C 
ENDBRANCH  14  17
ENDBRANCH   3  11
BRANCH   8  26
ATOM     26  C   UNL     1       2.640  -1.559 -19.339  0.00  0.00    +0.000 C 
ATOM     27  C   UNL     1       4.032  -0.917 -19.327  0.00  0.00    +0.000 C 
BRANCH  27  28
ATOM     28  C   UNL     1       5.328  -0.327 -19.308  0.00  0.00    +0.000 A 
ATOM     29  C   UNL     1       5.472   1.021 -18.989  0.00  0.00    +0.000 A 
ATOM     30  C   UNL     1       6.741   1.604 -18.965  0.00  0.00    +0.000 A 
ATOM     31  C   UNL     1       7.860   0.821 -19.259  0.00  0.00    +0.000 A 
ATOM     32  C   UNL     1       7.720  -0.528 -19.585  0.00  0.00    +0.000 A 
ATOM     33  C   UNL     1       6.446  -1.100 -19.606  0.00  0.00    +0.000 A 
BRANCH  30  34
ATOM     34  O   UNL     1       6.999   2.917 -18.657  0.00  0.00    +0.000 OA
ATOM     35  C   UNL     1       8.352   3.275 -18.635  0.00  0.00    +0.000 C 
ENDBRANCH  30  34
BRANCH  32  36
ATOM     36  O   UNL     1       8.887  -1.198 -19.855  0.00  0.00    +0.000 OA
ATOM     37  C   UNL     1       8.740  -2.547 -20.207  0.00  0.00    +0.000 C 
ENDBRANCH  32  36
ENDBRANCH  27  28
ENDBRANCH   8  26
TORSDOF 6
ENDMDL
MODEL 7
REMARK VINA RESULT:      -6.8     18.541     23.946
REMARK  Name = AZD4547.pdbqt.pdb
REMARK  6 active torsions:
REMARK  status: ('A' for Active; 'I' for Inactive)
REMARK    1  A    between atoms: C_3  and  C_23
REMARK    2  A    between atoms: C_8  and  C_11
REMARK    3  A    between atoms: C_12  and  C_13
REMARK    4  A    between atoms: C_15  and  O_19
REMARK    5  A    between atoms: C_17  and  O_21
REMARK    6  A    between atoms: C_26  and  N_29
REMARK                            x       y       z     vdW  Elec       q    Type
REMARK                         _______ _______ _______ _____ _____    ______ ____
ROOT
ATOM      1  O   UNL     1       0.405  -1.573 -19.546  0.00  0.00    +0.000 OA
ATOM      2  N   UNL     1      -0.097   0.589 -18.885  0.00  0.00    +0.000 N 
ATOM      3  C   UNL     1       0.751  -0.444 -19.217  0.00  0.00    +0.000 C 
ATOM      4  H   UNL     1       0.235   1.503 -18.617  0.00  0.00    +0.000 HD
ATOM      5  C   UNL     1      -1.468   0.497 -18.881  0.00  0.00    +0.000 A 
ATOM      6  N   UNL     1      -2.185   1.572 -18.537  0.00  0.00    +0.000 NA
ATOM      7  N   UNL     1      -3.459   1.150 -18.636  0.00  0.00    +0.000 N 
ATOM      8  C   UNL     1      -3.578  -0.149 -19.031  0.00  0.00    +0.000 A 
ATOM      9  H   UNL     1      -4.205   1.803 -18.419  0.00  0.00    +0.000 HD
ATOM     10  C   UNL     1      -2.295  -0.608 -19.200  0.00  0.00    +0.000 A 
ENDROOT
BRANCH   3  11
ATOM     11  C   UNL     1       2.202  -0.135 -19.161  0.00  0.00    +0.000 A 
ATOM     12  C   UNL     1       2.920  -0.092 -20.356  0.00  0.00    +0.000 A 
ATOM     13  C   UNL     1       4.283   0.194 -20.342  0.00  0.00    +0.000 A 
ATOM     14  C   UNL     1       4.963   0.428 -19.139  0.00  0.00    +0.000 A 
ATOM     15  C   UNL     1       4.222   0.399 -17.950  0.00  0.00    +0.000 A 
ATOM     16  C   UNL     1       2.856   0.114 -17.957  0.00  0.00    +0.000 A 
BRANCH  14  17
ATOM     17  N   UNL     1       6.338   0.762 -19.131  0.00  0.00    +0.000 N 
ATOM     18  C   UNL     1       6.848   1.659 -20.182  0.00  0.00    +0.000 C 
ATOM     19  C   UNL     1       7.924   1.623 -21.116  0.00  0.00    +0.000 C 
ATOM     20  N   UNL     1       8.757   0.462 -21.087  0.00  0.00    +0.000 N 
ATOM     21  C   UNL     1       8.170   2.706 -22.104  0.00  0.00    +0.000 C 
ATOM     22  C   UNL     1       8.447  -0.556 -20.136  0.00  0.00    +0.000 C 
ATOM     23  H   UNL     1       9.523   0.357 -21.733  0.00  0.00    +0.000 HD
ATOM     24  C   UNL     1       7.323  -0.321 -19.291  0.00  0.00    +0.000 C 
ATOM     25  C   UNL     1       9.243  -1.810 -20.080  0.00  0.00    +0.000 C 
ENDBRANCH  14  17
ENDBRANCH   3  11
BRANCH   8  26
ATOM     26  C   UNL     1      -4.799  -0.840 -19.217  0.00  0.00    +0.000 C 
ATOM     27  C   UNL     1      -6.120  -1.590 -19.415  0.00  0.00    +0.000 C 
BRANCH  27  28
ATOM     28  C   UNL     1      -7.347  -2.293 -19.591  0.00  0.00    +0.000 A 
ATOM     29  C   UNL     1      -8.353  -2.183 -18.635  0.00  0.00    +0.000 A 
ATOM     30  C   UNL     1      -9.560  -2.866 -18.805  0.00  0.00    +0.000 A 
ATOM     31  C   UNL     1      -9.746  -3.653 -19.943  0.00  0.00    +0.000 A 
ATOM     32  C   UNL     1      -8.738  -3.771 -20.901  0.00  0.00    +0.000 A 
ATOM     33  C   UNL     1      -7.537  -3.084 -20.720  0.00  0.00    +0.000 A 
BRANCH  30  34
ATOM     34  O   UNL     1     -10.619  -2.822 -17.932  0.00  0.00    +0.000 OA
ATOM     35  C   UNL     1     -10.364  -2.191 -16.709  0.00  0.00    +0.000 C 
ENDBRANCH  30  34
BRANCH  32  36
ATOM     36  O   UNL     1      -9.033  -4.571 -21.978  0.00  0.00    +0.000 OA
ATOM     37  C   UNL     1     -10.367  -4.537 -22.406  0.00  0.00    +0.000 C 
ENDBRANCH  32  36
ENDBRANCH  27  28
ENDBRANCH   8  26
TORSDOF 6
ENDMDL
MODEL 8
REMARK VINA RESULT:      -6.6     19.113     24.352
REMARK  Name = AZD4547.pdbqt.pdb
REMARK  6 active torsions:
REMARK  status: ('A' for Active; 'I' for Inactive)
REMARK    1  A    between atoms: C_3  and  C_23
REMARK    2  A    between atoms: C_8  and  C_11
REMARK    3  A    between atoms: C_12  and  C_13
REMARK    4  A    between atoms: C_15  and  O_19
REMARK    5  A    between atoms: C_17  and  O_21
REMARK    6  A    between atoms: C_26  and  N_29
REMARK                            x       y       z     vdW  Elec       q    Type
REMARK                         _______ _______ _______ _____ _____    ______ ____
ROOT
ATOM      1  O   UNL     1       0.264  -1.531 -20.494  0.00  0.00    +0.000 OA
ATOM      2  N   UNL     1      -0.008   0.497 -19.409  0.00  0.00    +0.000 N 
ATOM      3  C   UNL     1       0.723  -0.495 -20.024  0.00  0.00    +0.000 C 
ATOM      4  H   UNL     1       0.415   1.333 -19.034  0.00  0.00    +0.000 HD
ATOM      5  C   UNL     1      -1.371   0.466 -19.238  0.00  0.00    +0.000 A 
ATOM      6  N   UNL     1      -1.967   1.491 -18.621  0.00  0.00    +0.000 NA
ATOM      7  N   UNL     1      -3.269   1.150 -18.621  0.00  0.00    +0.000 N 
ATOM      8  C   UNL     1      -3.521  -0.051 -19.214  0.00  0.00    +0.000 A 
ATOM      9  H   UNL     1      -3.937   1.785 -18.197  0.00  0.00    +0.000 HD
ATOM     10  C   UNL     1      -2.302  -0.528 -19.629  0.00  0.00    +0.000 A 
ENDROOT
BRANCH   3  11
ATOM     11  C   UNL     1       2.186  -0.265 -20.110  0.00  0.00    +0.000 A 
ATOM     12  C   UNL     1       2.721   0.175 -21.320  0.00  0.00    +0.000 A 
ATOM     13  C   UNL     1       4.091   0.401 -21.438  0.00  0.00    +0.000 A 
ATOM     14  C   UNL     1       4.958   0.180 -20.360  0.00  0.00    +0.000 A 
ATOM     15  C   UNL     1       4.400  -0.244 -19.146  0.00  0.00    +0.000 A 
ATOM     16  C   UNL     1       3.030  -0.472 -19.021  0.00  0.00    +0.000 A 
BRANCH  14  17
ATOM     17  N   UNL     1       6.342   0.453 -20.468  0.00  0.00    +0.000 N 
ATOM     18  C   UNL     1       6.938   1.430 -19.540  0.00  0.00    +0.000 C 
ATOM     19  C   UNL     1       7.754   2.592 -19.672  0.00  0.00    +0.000 C 
ATOM     20  N   UNL     1       8.123   2.965 -21.000  0.00  0.00    +0.000 N 
ATOM     21  C   UNL     1       8.183   3.411 -18.508  0.00  0.00    +0.000 C 
ATOM     22  C   UNL     1       7.651   2.155 -22.076  0.00  0.00    +0.000 C 
ATOM     23  H   UNL     1       8.679   3.789 -21.172  0.00  0.00    +0.000 HD
ATOM     24  C   UNL     1       6.845   1.032 -21.725  0.00  0.00    +0.000 C 
ATOM     25  C   UNL     1       7.960   2.510 -23.487  0.00  0.00    +0.000 C 
ENDBRANCH  14  17
ENDBRANCH   3  11
BRANCH   8  26
ATOM     26  C   UNL     1      -4.799  -0.643 -19.352  0.00  0.00    +0.000 C 
ATOM     27  C   UNL     1      -6.181  -1.286 -19.505  0.00  0.00    +0.000 C 
BRANCH  27  28
ATOM     28  C   UNL     1      -7.465  -1.886 -19.656  0.00  0.00    +0.000 A 
ATOM     29  C   UNL     1      -8.007  -2.054 -20.927  0.00  0.00    +0.000 A 
ATOM     30  C   UNL     1      -9.263  -2.646 -21.081  0.00  0.00    +0.000 A 
ATOM     31  C   UNL     1      -9.963  -3.072 -19.949  0.00  0.00    +0.000 A 
ATOM     32  C   UNL     1      -9.425  -2.901 -18.673  0.00  0.00    +0.000 A 
ATOM     33  C   UNL     1      -8.169  -2.307 -18.532  0.00  0.00    +0.000 A 
BRANCH  30  34
ATOM     34  O   UNL     1      -9.887  -2.867 -22.284  0.00  0.00    +0.000 OA
ATOM     35  C   UNL     1     -10.300  -4.184 -22.513  0.00  0.00    +0.000 C 
ENDBRANCH  30  34
BRANCH  32  36
ATOM     36  O   UNL     1     -10.201  -3.357 -17.636  0.00  0.00    +0.000 OA
ATOM     37  C   UNL     1     -10.378  -4.746 -17.582  0.00  0.00    +0.000 C 
ENDBRANCH  32  36
ENDBRANCH  27  28
ENDBRANCH   8  26
TORSDOF 6
ENDMDL
MODEL 9
REMARK VINA RESULT:      -6.3     19.219     24.279
REMARK  Name = AZD4547.pdbqt.pdb
REMARK  6 active torsions:
REMARK  status: ('A' for Active; 'I' for Inactive)
REMARK    1  A    between atoms: C_3  and  C_23
REMARK    2  A    between atoms: C_8  and  C_11
REMARK    3  A    between atoms: C_12  and  C_13
REMARK    4  A    between atoms: C_15  and  O_19
REMARK    5  A    between atoms: C_17  and  O_21
REMARK    6  A    between atoms: C_26  and  N_29
REMARK                            x       y       z     vdW  Elec       q    Type
REMARK                         _______ _______ _______ _____ _____    ______ ____
ROOT
ATOM      1  O   UNL     1       3.666   1.238 -20.965  0.00  0.00    +0.000 OA
ATOM      2  N   UNL     1       3.073   0.167 -18.999  0.00  0.00    +0.000 N 
ATOM      3  C   UNL     1       3.964   0.699 -19.905  0.00  0.00    +0.000 C 
ATOM      4  H   UNL     1       3.366  -0.271 -18.139  0.00  0.00    +0.000 HD
ATOM      5  C   UNL     1       1.708   0.172 -19.158  0.00  0.00    +0.000 A 
ATOM      6  N   UNL     1       0.947  -0.378 -18.206  0.00  0.00    +0.000 NA
ATOM      7  N   UNL     1      -0.307  -0.207 -18.663  0.00  0.00    +0.000 N 
ATOM      8  C   UNL     1      -0.371   0.432 -19.865  0.00  0.00    +0.000 A 
ATOM      9  H   UNL     1      -1.080  -0.551 -18.102  0.00  0.00    +0.000 HD
ATOM     10  C   UNL     1       0.929   0.694 -20.220  0.00  0.00    +0.000 A 
ENDROOT
BRANCH   3  11
ATOM     11  C   UNL     1       5.399   0.593 -19.542  0.00  0.00    +0.000 A 
ATOM     12  C   UNL     1       6.099  -0.551 -19.921  0.00  0.00    +0.000 A 
ATOM     13  C   UNL     1       7.448  -0.685 -19.597  0.00  0.00    +0.000 A 
ATOM     14  C   UNL     1       8.123   0.309 -18.877  0.00  0.00    +0.000 A 
ATOM     15  C   UNL     1       7.408   1.461 -18.521  0.00  0.00    +0.000 A 
ATOM     16  C   UNL     1       6.058   1.601 -18.842  0.00  0.00    +0.000 A 
BRANCH  14  17
ATOM     17  N   UNL     1       9.503   0.192 -18.588  0.00  0.00    +0.000 N 
ATOM     18  C   UNL     1       9.995   0.702 -17.297  0.00  0.00    +0.000 C 
ATOM     19  C   UNL     1      11.040   1.578 -16.881  0.00  0.00    +0.000 C 
ATOM     20  N   UNL     1      11.852   2.139 -17.913  0.00  0.00    +0.000 N 
ATOM     21  C   UNL     1      11.273   1.934 -15.456  0.00  0.00    +0.000 C 
ATOM     22  C   UNL     1      11.555   1.783 -19.263  0.00  0.00    +0.000 C 
ATOM     23  H   UNL     1      12.595   2.785 -17.696  0.00  0.00    +0.000 HD
ATOM     24  C   UNL     1      10.463   0.888 -19.462  0.00  0.00    +0.000 C 
ATOM     25  C   UNL     1      12.331   2.364 -20.390  0.00  0.00    +0.000 C 
ENDBRANCH  14  17
ENDBRANCH   3  11
BRANCH   8  26
ATOM     26  C   UNL     1      -1.561   0.741 -20.567  0.00  0.00    +0.000 C 
ATOM     27  C   UNL     1      -2.847   1.078 -21.328  0.00  0.00    +0.000 C 
BRANCH  27  28
ATOM     28  C   UNL     1      -4.038   1.398 -22.041  0.00  0.00    +0.000 A 
ATOM     29  C   UNL     1      -5.046   2.127 -21.415  0.00  0.00    +0.000 A 
ATOM     30  C   UNL     1      -6.215   2.448 -22.110  0.00  0.00    +0.000 A 
ATOM     31  C   UNL     1      -6.357   2.036 -23.437  0.00  0.00    +0.000 A 
ATOM     32  C   UNL     1      -5.351   1.301 -24.067  0.00  0.00    +0.000 A 
ATOM     33  C   UNL     1      -4.188   0.986 -23.361  0.00  0.00    +0.000 A 
BRANCH  30  34
ATOM     34  O   UNL     1      -7.266   3.166 -21.595  0.00  0.00    +0.000 OA
ATOM     35  C   UNL     1      -8.401   3.238 -22.411  0.00  0.00    +0.000 C 
ENDBRANCH  30  34
BRANCH  32  36
ATOM     36  O   UNL     1      -5.600   0.950 -25.371  0.00  0.00    +0.000 OA
ATOM     37  C   UNL     1      -6.833   1.374 -25.883  0.00  0.00    +0.000 C 
ENDBRANCH  32  36
ENDBRANCH  27  28
ENDBRANCH   8  26
TORSDOF 6
ENDMDL
