MODEL 1
REMARK VINA RESULT:      -6.5      0.000      0.000
REMARK  Name = Belinostat.pdbqt.pdb
REMARK  6 active torsions:
REMARK  status: ('A' for Active; 'I' for Inactive)
REMARK    1  A    between atoms: C_1  and  S_7
REMARK    2  A    between atoms: C_3  and  C_18
REMARK    3  A    between atoms: S_7  and  N_10
REMARK    4  A    between atoms: N_10  and  C_12
REMARK    5  A    between atoms: C_19  and  C_20
REMARK    6  A    between atoms: N_22  and  O_24
REMARK                            x       y       z     vdW  Elec       q    Type
REMARK                         _______ _______ _______ _____ _____    ______ ____
ROOT
ATOM      1  C   UNL     1      -3.647  -1.028 -19.365  0.00  0.00    +0.000 A 
ATOM      2  C   UNL     1      -2.305  -1.280 -19.105  0.00  0.00    +0.000 A 
ATOM      3  C   UNL     1      -1.436  -0.207 -18.942  0.00  0.00    +0.000 A 
ATOM      4  C   UNL     1      -4.143   0.270 -19.436  0.00  0.00    +0.000 A 
ATOM      5  C   UNL     1      -1.913   1.101 -19.026  0.00  0.00    +0.000 A 
ATOM      6  C   UNL     1      -3.266   1.338 -19.271  0.00  0.00    +0.000 A 
ENDROOT
BRANCH   1   7
ATOM      7  S   UNL     1      -4.761  -2.375 -19.531  0.00  0.00    +0.000 S 
ATOM      8  O   UNL     1      -4.349  -3.386 -18.581  0.00  0.00    +0.000 OA
ATOM      9  O   UNL     1      -4.894  -2.682 -20.939  0.00  0.00    +0.000 OA
BRANCH   7  10
ATOM     10  N   UNL     1      -6.210  -1.754 -18.964  0.00  0.00    +0.000 N 
ATOM     11  H   UNL     1      -6.258  -0.736 -18.954  0.00  0.00    +0.000 HD
BRANCH  10  12
ATOM     12  C   UNL     1      -7.411  -2.514 -18.892  0.00  0.00    +0.000 A 
ATOM     13  C   UNL     1      -7.452  -3.886 -19.129  0.00  0.00    +0.000 A 
ATOM     14  C   UNL     1      -8.639  -4.596 -18.965  0.00  0.00    +0.000 A 
ATOM     15  C   UNL     1      -9.787  -3.938 -18.535  0.00  0.00    +0.000 A 
ATOM     16  C   UNL     1      -9.745  -2.574 -18.261  0.00  0.00    +0.000 A 
ATOM     17  C   UNL     1      -8.557  -1.868 -18.427  0.00  0.00    +0.000 A 
ENDBRANCH  10  12
ENDBRANCH   7  10
ENDBRANCH   1   7
BRANCH   3  18
ATOM     18  C   UNL     1      -0.052  -0.446 -18.689  0.00  0.00    +0.000 C 
ATOM     19  C   UNL     1       1.112  -0.651 -18.476  0.00  0.00    +0.000 C 
BRANCH  19  20
ATOM     20  C   UNL     1       2.509  -0.898 -18.220  0.00  0.00    +0.000 C 
ATOM     21  O   UNL     1       3.366  -0.154 -18.682  0.00  0.00    +0.000 OA
ATOM     22  N   UNL     1       2.791  -1.983 -17.439  0.00  0.00    +0.000 N 
ATOM     23  H   UNL     1       2.093  -2.573 -17.002  0.00  0.00    +0.000 HD
BRANCH  22  24
ATOM     24  O   UNL     1       4.147  -2.229 -17.127  0.00  0.00    +0.000 OA
ATOM     25  H   UNL     1       4.115  -2.421 -16.164  0.00  0.00    +0.000 HD
ENDBRANCH  22  24
ENDBRANCH  19  20
ENDBRANCH   3  18
TORSDOF 6
ENDMDL
MODEL 2
REMARK VINA RESULT:      -6.4      7.142     12.682
REMARK  Name = Belinostat.pdbqt.pdb
REMARK  6 active torsions:
REMARK  status: ('A' for Active; 'I' for Inactive)
REMARK    1  A    between atoms: C_1  and  S_7
REMARK    2  A    between atoms: C_3  and  C_18
REMARK    3  A    between atoms: S_7  and  N_10
REMARK    4  A    between atoms: N_10  and  C_12
REMARK    5  A    between atoms: C_19  and  C_20
REMARK    6  A    between atoms: N_22  and  O_24
REMARK                            x       y       z     vdW  Elec       q    Type
REMARK                         _______ _______ _______ _____ _____    ______ ____
ROOT
ATOM      1  C   UNL     1       5.602   0.195 -18.812  0.00  0.00    +0.000 A 
ATOM      2  C   UNL     1       4.833  -0.948 -19.000  0.00  0.00    +0.000 A 
ATOM      3  C   UNL     1       3.518  -0.958 -18.547  0.00  0.00    +0.000 A 
ATOM      4  C   UNL     1       5.077   1.333 -18.209  0.00  0.00    +0.000 A 
ATOM      5  C   UNL     1       2.980   0.169 -17.926  0.00  0.00    +0.000 A 
ATOM      6  C   UNL     1       3.760   1.315 -17.760  0.00  0.00    +0.000 A 
ENDROOT
BRANCH   1   7
ATOM      7  S   UNL     1       7.250   0.234 -19.416  0.00  0.00    +0.000 S 
ATOM      8  O   UNL     1       7.201   0.802 -20.746  0.00  0.00    +0.000 OA
ATOM      9  O   UNL     1       7.850  -1.061 -19.177  0.00  0.00    +0.000 OA
BRANCH   7  10
ATOM     10  N   UNL     1       7.994   1.375 -18.441  0.00  0.00    +0.000 N 
ATOM     11  H   UNL     1       7.355   1.920 -17.864  0.00  0.00    +0.000 HD
BRANCH  10  12
ATOM     12  C   UNL     1       9.378   1.336 -18.109  0.00  0.00    +0.000 A 
ATOM     13  C   UNL     1      10.381   1.675 -19.014  0.00  0.00    +0.000 A 
ATOM     14  C   UNL     1      11.715   1.700 -18.613  0.00  0.00    +0.000 A 
ATOM     15  C   UNL     1      12.048   1.410 -17.294  0.00  0.00    +0.000 A 
ATOM     16  C   UNL     1      11.048   1.106 -16.375  0.00  0.00    +0.000 A 
ATOM     17  C   UNL     1       9.716   1.082 -16.780  0.00  0.00    +0.000 A 
ENDBRANCH  10  12
ENDBRANCH   7  10
ENDBRANCH   1   7
BRANCH   3  18
ATOM     18  C   UNL     1       2.718  -2.127 -18.719  0.00  0.00    +0.000 C 
ATOM     19  C   UNL     1       2.042  -3.109 -18.862  0.00  0.00    +0.000 C 
BRANCH  19  20
ATOM     20  C   UNL     1       1.229  -4.288 -19.035  0.00  0.00    +0.000 C 
ATOM     21  O   UNL     1       1.212  -5.162 -18.176  0.00  0.00    +0.000 OA
ATOM     22  N   UNL     1       0.498  -4.347 -20.188  0.00  0.00    +0.000 N 
ATOM     23  H   UNL     1       0.457  -3.607 -20.880  0.00  0.00    +0.000 HD
BRANCH  22  24
ATOM     24  O   UNL     1      -0.346  -5.464 -20.370  0.00  0.00    +0.000 OA
ATOM     25  H   UNL     1       0.268  -6.221 -20.249  0.00  0.00    +0.000 HD
ENDBRANCH  22  24
ENDBRANCH  19  20
ENDBRANCH   3  18
TORSDOF 6
ENDMDL
MODEL 3
REMARK VINA RESULT:      -6.4      8.868     13.936
REMARK  Name = Belinostat.pdbqt.pdb
REMARK  6 active torsions:
REMARK  status: ('A' for Active; 'I' for Inactive)
REMARK    1  A    between atoms: C_1  and  S_7
REMARK    2  A    between atoms: C_3  and  C_18
REMARK    3  A    between atoms: S_7  and  N_10
REMARK    4  A    between atoms: N_10  and  C_12
REMARK    5  A    between atoms: C_19  and  C_20
REMARK    6  A    between atoms: N_22  and  O_24
REMARK                            x       y       z     vdW  Elec       q    Type
REMARK                         _______ _______ _______ _____ _____    ______ ____
ROOT
ATOM      1  C   UNL     1       8.764   1.587 -19.951  0.00  0.00    +0.000 A 
ATOM      2  C   UNL     1       7.826   0.565 -19.865  0.00  0.00    +0.000 A 
ATOM      3  C   UNL     1       6.636   0.797 -19.183  0.00  0.00    +0.000 A 
ATOM      4  C   UNL     1       8.527   2.840 -19.395  0.00  0.00    +0.000 A 
ATOM      5  C   UNL     1       6.388   2.043 -18.607  0.00  0.00    +0.000 A 
ATOM      6  C   UNL     1       7.333   3.064 -18.715  0.00  0.00    +0.000 A 
ENDROOT
BRANCH   1   7
ATOM      7  S   UNL     1      10.252   1.319 -20.845  0.00  0.00    +0.000 S 
ATOM      8  O   UNL     1      10.787   2.622 -21.177  0.00  0.00    +0.000 OA
ATOM      9  O   UNL     1       9.991   0.333 -21.871  0.00  0.00    +0.000 OA
BRANCH   7  10
ATOM     10  N   UNL     1      11.281   0.663 -19.698  0.00  0.00    +0.000 N 
ATOM     11  H   UNL     1      12.151   0.290 -20.075  0.00  0.00    +0.000 HD
BRANCH  10  12
ATOM     12  C   UNL     1      11.185   0.948 -18.307  0.00  0.00    +0.000 A 
ATOM     13  C   UNL     1      11.527   2.185 -17.765  0.00  0.00    +0.000 A 
ATOM     14  C   UNL     1      11.337   2.439 -16.409  0.00  0.00    +0.000 A 
ATOM     15  C   UNL     1      10.776   1.461 -15.592  0.00  0.00    +0.000 A 
ATOM     16  C   UNL     1      10.398   0.236 -16.134  0.00  0.00    +0.000 A 
ATOM     17  C   UNL     1      10.591  -0.014 -17.490  0.00  0.00    +0.000 A 
ENDBRANCH  10  12
ENDBRANCH   7  10
ENDBRANCH   1   7
BRANCH   3  18
ATOM     18  C   UNL     1       5.667  -0.245 -19.073  0.00  0.00    +0.000 C 
ATOM     19  C   UNL     1       4.852  -1.122 -18.984  0.00  0.00    +0.000 C 
BRANCH  19  20
ATOM     20  C   UNL     1       3.873  -2.176 -18.877  0.00  0.00    +0.000 C 
ATOM     21  O   UNL     1       3.948  -3.168 -19.592  0.00  0.00    +0.000 OA
ATOM     22  N   UNL     1       2.895  -1.990 -17.941  0.00  0.00    +0.000 N 
ATOM     23  H   UNL     1       2.852  -1.204 -17.303  0.00  0.00    +0.000 HD
BRANCH  22  24
ATOM     24  O   UNL     1       1.946  -3.024 -17.774  0.00  0.00    +0.000 OA
ATOM     25  H   UNL     1       2.442  -3.820 -18.065  0.00  0.00    +0.000 HD
ENDBRANCH  22  24
ENDBRANCH  19  20
ENDBRANCH   3  18
TORSDOF 6
ENDMDL
MODEL 4
REMARK VINA RESULT:      -6.4      3.853      5.646
REMARK  Name = Belinostat.pdbqt.pdb
REMARK  6 active torsions:
REMARK  status: ('A' for Active; 'I' for Inactive)
REMARK    1  A    between atoms: C_1  and  S_7
REMARK    2  A    between atoms: C_3  and  C_18
REMARK    3  A    between atoms: S_7  and  N_10
REMARK    4  A    between atoms: N_10  and  C_12
REMARK    5  A    between atoms: C_19  and  C_20
REMARK    6  A    between atoms: N_22  and  O_24
REMARK                            x       y       z     vdW  Elec       q    Type
REMARK                         _______ _______ _______ _____ _____    ______ ____
ROOT
ATOM      1  C   UNL     1      -8.405  -3.175 -19.106  0.00  0.00    +0.000 A 
ATOM      2  C   UNL     1      -7.489  -2.203 -18.720  0.00  0.00    +0.000 A 
ATOM      3  C   UNL     1      -6.219  -2.208 -19.288  0.00  0.00    +0.000 A 
ATOM      4  C   UNL     1      -8.089  -4.130 -20.067  0.00  0.00    +0.000 A 
ATOM      5  C   UNL     1      -5.881  -3.169 -20.241  0.00  0.00    +0.000 A 
ATOM      6  C   UNL     1      -6.817  -4.128 -20.631  0.00  0.00    +0.000 A 
ENDROOT
BRANCH   1   7
ATOM      7  S   UNL     1     -10.024  -3.153 -18.426  0.00  0.00    +0.000 S 
ATOM      8  O   UNL     1      -9.978  -2.313 -17.248  0.00  0.00    +0.000 OA
ATOM      9  O   UNL     1     -10.502  -4.516 -18.354  0.00  0.00    +0.000 OA
BRANCH   7  10
ATOM     10  N   UNL     1     -10.915  -2.315 -19.570  0.00  0.00    +0.000 N 
ATOM     11  H   UNL     1     -11.178  -1.371 -19.293  0.00  0.00    +0.000 HD
BRANCH  10  12
ATOM     12  C   UNL     1     -10.961  -2.681 -20.945  0.00  0.00    +0.000 A 
ATOM     13  C   UNL     1     -10.291  -1.969 -21.938  0.00  0.00    +0.000 A 
ATOM     14  C   UNL     1     -10.303  -2.416 -23.257  0.00  0.00    +0.000 A 
ATOM     15  C   UNL     1     -10.963  -3.597 -23.584  0.00  0.00    +0.000 A 
ATOM     16  C   UNL     1     -11.603  -4.333 -22.590  0.00  0.00    +0.000 A 
ATOM     17  C   UNL     1     -11.591  -3.881 -21.273  0.00  0.00    +0.000 A 
ENDBRANCH  10  12
ENDBRANCH   7  10
ENDBRANCH   1   7
BRANCH   3  18
ATOM     18  C   UNL     1      -5.261  -1.228 -18.893  0.00  0.00    +0.000 C 
ATOM     19  C   UNL     1      -4.456  -0.402 -18.558  0.00  0.00    +0.000 C 
BRANCH  19  20
ATOM     20  C   UNL     1      -3.490   0.590 -18.155  0.00  0.00    +0.000 C 
ATOM     21  O   UNL     1      -3.559   1.111 -17.047  0.00  0.00    +0.000 OA
ATOM     22  N   UNL     1      -2.520   0.886 -19.070  0.00  0.00    +0.000 N 
ATOM     23  H   UNL     1      -2.415   0.423 -19.966  0.00  0.00    +0.000 HD
BRANCH  22  24
ATOM     24  O   UNL     1      -1.528   1.817 -18.692  0.00  0.00    +0.000 OA
ATOM     25  H   UNL     1      -1.953   2.679 -18.894  0.00  0.00    +0.000 HD
ENDBRANCH  22  24
ENDBRANCH  19  20
ENDBRANCH   3  18
TORSDOF 6
ENDMDL
MODEL 5
REMARK VINA RESULT:      -6.4     18.992     20.864
REMARK  Name = Belinostat.pdbqt.pdb
REMARK  6 active torsions:
REMARK  status: ('A' for Active; 'I' for Inactive)
REMARK    1  A    between atoms: C_1  and  S_7
REMARK    2  A    between atoms: C_3  and  C_18
REMARK    3  A    between atoms: S_7  and  N_10
REMARK    4  A    between atoms: N_10  and  C_12
REMARK    5  A    between atoms: C_19  and  C_20
REMARK    6  A    between atoms: N_22  and  O_24
REMARK                            x       y       z     vdW  Elec       q    Type
REMARK                         _______ _______ _______ _____ _____    ______ ____
ROOT
ATOM      1  C   UNL     1      -6.681  -0.152   1.448  0.00  0.00    +0.000 A 
ATOM      2  C   UNL     1      -7.087  -0.663   0.221  0.00  0.00    +0.000 A 
ATOM      3  C   UNL     1      -8.097  -1.619   0.190  0.00  0.00    +0.000 A 
ATOM      4  C   UNL     1      -7.281  -0.552   2.638  0.00  0.00    +0.000 A 
ATOM      5  C   UNL     1      -8.699  -2.044   1.374  0.00  0.00    +0.000 A 
ATOM      6  C   UNL     1      -8.292  -1.508   2.597  0.00  0.00    +0.000 A 
ENDROOT
BRANCH   1   7
ATOM      7  S   UNL     1      -5.435   1.085   1.497  0.00  0.00    +0.000 S 
ATOM      8  O   UNL     1      -5.645   1.852   2.706  0.00  0.00    +0.000 OA
ATOM      9  O   UNL     1      -5.386   1.729   0.202  0.00  0.00    +0.000 OA
BRANCH   7  10
ATOM     10  N   UNL     1      -4.027   0.209   1.730  0.00  0.00    +0.000 N 
ATOM     11  H   UNL     1      -4.161  -0.800   1.784  0.00  0.00    +0.000 HD
BRANCH  10  12
ATOM     12  C   UNL     1      -2.729   0.731   1.468  0.00  0.00    +0.000 A 
ATOM     13  C   UNL     1      -1.885   1.195   2.475  0.00  0.00    +0.000 A 
ATOM     14  C   UNL     1      -0.593   1.619   2.173  0.00  0.00    +0.000 A 
ATOM     15  C   UNL     1      -0.130   1.555   0.862  0.00  0.00    +0.000 A 
ATOM     16  C   UNL     1      -0.955   1.059  -0.143  0.00  0.00    +0.000 A 
ATOM     17  C   UNL     1      -2.246   0.636   0.163  0.00  0.00    +0.000 A 
ENDBRANCH  10  12
ENDBRANCH   7  10
ENDBRANCH   1   7
BRANCH   3  18
ATOM     18  C   UNL     1      -8.517  -2.166  -1.059  0.00  0.00    +0.000 C 
ATOM     19  C   UNL     1      -8.868  -2.626  -2.112  0.00  0.00    +0.000 C 
BRANCH  19  20
ATOM     20  C   UNL     1      -9.288  -3.178  -3.376  0.00  0.00    +0.000 C 
ATOM     21  O   UNL     1      -9.792  -4.294  -3.430  0.00  0.00    +0.000 OA
ATOM     22  N   UNL     1      -9.096  -2.382  -4.470  0.00  0.00    +0.000 N 
ATOM     23  H   UNL     1      -8.735  -1.435  -4.435  0.00  0.00    +0.000 HD
BRANCH  22  24
ATOM     24  O   UNL     1      -9.540  -2.869  -5.719  0.00  0.00    +0.000 OA
ATOM     25  H   UNL     1     -10.516  -2.881  -5.611  0.00  0.00    +0.000 HD
ENDBRANCH  22  24
ENDBRANCH  19  20
ENDBRANCH   3  18
TORSDOF 6
ENDMDL
MODEL 6
REMARK VINA RESULT:      -6.2      8.958     13.990
REMARK  Name = Belinostat.pdbqt.pdb
REMARK  6 active torsions:
REMARK  status: ('A' for Active; 'I' for Inactive)
REMARK    1  A    between atoms: C_1  and  S_7
REMARK    2  A    between atoms: C_3  and  C_18
REMARK    3  A    between atoms: S_7  and  N_10
REMARK    4  A    between atoms: N_10  and  C_12
REMARK    5  A    between atoms: C_19  and  C_20
REMARK    6  A    between atoms: N_22  and  O_24
REMARK                            x       y       z     vdW  Elec       q    Type
REMARK                         _______ _______ _______ _____ _____    ______ ____
ROOT
ATOM      1  C   UNL     1       8.993   0.685 -20.662  0.00  0.00    +0.000 A 
ATOM      2  C   UNL     1       7.855   0.321 -19.952  0.00  0.00    +0.000 A 
ATOM      3  C   UNL     1       7.420  -0.999 -20.005  0.00  0.00    +0.000 A 
ATOM      4  C   UNL     1       9.719  -0.246 -21.398  0.00  0.00    +0.000 A 
ATOM      5  C   UNL     1       8.127  -1.942 -20.750  0.00  0.00    +0.000 A 
ATOM      6  C   UNL     1       9.277  -1.565 -21.445  0.00  0.00    +0.000 A 
ENDROOT
BRANCH   1   7
ATOM      7  S   UNL     1       9.575   2.339 -20.570  0.00  0.00    +0.000 S 
ATOM      8  O   UNL     1       8.546   3.115 -19.912  0.00  0.00    +0.000 OA
ATOM      9  O   UNL     1      10.077   2.715 -21.874  0.00  0.00    +0.000 OA
BRANCH   7  10
ATOM     10  N   UNL     1      10.855   2.241 -19.494  0.00  0.00    +0.000 N 
ATOM     11  H   UNL     1      11.489   3.038 -19.518  0.00  0.00    +0.000 HD
BRANCH  10  12
ATOM     12  C   UNL     1      10.864   1.371 -18.367  0.00  0.00    +0.000 A 
ATOM     13  C   UNL     1      11.685   0.248 -18.287  0.00  0.00    +0.000 A 
ATOM     14  C   UNL     1      11.715  -0.523 -17.128  0.00  0.00    +0.000 A 
ATOM     15  C   UNL     1      10.941  -0.158 -16.031  0.00  0.00    +0.000 A 
ATOM     16  C   UNL     1      10.146   0.983 -16.091  0.00  0.00    +0.000 A 
ATOM     17  C   UNL     1      10.119   1.751 -17.252  0.00  0.00    +0.000 A 
ENDBRANCH  10  12
ENDBRANCH   7  10
ENDBRANCH   1   7
BRANCH   3  18
ATOM     18  C   UNL     1       6.246  -1.388 -19.293  0.00  0.00    +0.000 C 
ATOM     19  C   UNL     1       5.256  -1.713 -18.696  0.00  0.00    +0.000 C 
BRANCH  19  20
ATOM     20  C   UNL     1       4.067  -2.102 -17.979  0.00  0.00    +0.000 C 
ATOM     21  O   UNL     1       4.046  -2.083 -16.754  0.00  0.00    +0.000 OA
ATOM     22  N   UNL     1       3.000  -2.473 -18.748  0.00  0.00    +0.000 N 
ATOM     23  H   UNL     1       2.982  -2.439 -19.760  0.00  0.00    +0.000 HD
BRANCH  22  24
ATOM     24  O   UNL     1       1.802  -2.815 -18.081  0.00  0.00    +0.000 OA
ATOM     25  H   UNL     1       1.908  -3.779 -17.929  0.00  0.00    +0.000 HD
ENDBRANCH  22  24
ENDBRANCH  19  20
ENDBRANCH   3  18
TORSDOF 6
ENDMDL
MODEL 7
REMARK VINA RESULT:      -6.0      8.800     15.173
REMARK  Name = Belinostat.pdbqt.pdb
REMARK  6 active torsions:
REMARK  status: ('A' for Active; 'I' for Inactive)
REMARK    1  A    between atoms: C_1  and  S_7
REMARK    2  A    between atoms: C_3  and  C_18
REMARK    3  A    between atoms: S_7  and  N_10
REMARK    4  A    between atoms: N_10  and  C_12
REMARK    5  A    between atoms: C_19  and  C_20
REMARK    6  A    between atoms: N_22  and  O_24
REMARK                            x       y       z     vdW  Elec       q    Type
REMARK                         _______ _______ _______ _____ _____    ______ ____
ROOT
ATOM      1  C   UNL     1       9.579   0.836 -18.581  0.00  0.00    +0.000 A 
ATOM      2  C   UNL     1       8.205   0.626 -18.564  0.00  0.00    +0.000 A 
ATOM      3  C   UNL     1       7.354   1.726 -18.509  0.00  0.00    +0.000 A 
ATOM      4  C   UNL     1      10.118   2.118 -18.575  0.00  0.00    +0.000 A 
ATOM      5  C   UNL     1       7.879   3.018 -18.487  0.00  0.00    +0.000 A 
ATOM      6  C   UNL     1       9.261   3.213 -18.521  0.00  0.00    +0.000 A 
ENDROOT
BRANCH   1   7
ATOM      7  S   UNL     1      10.660  -0.543 -18.691  0.00  0.00    +0.000 S 
ATOM      8  O   UNL     1       9.866  -1.726 -18.440  0.00  0.00    +0.000 OA
ATOM      9  O   UNL     1      11.841  -0.255 -17.907  0.00  0.00    +0.000 OA
BRANCH   7  10
ATOM     10  N   UNL     1      11.072  -0.585 -20.314  0.00  0.00    +0.000 N 
ATOM     11  H   UNL     1      10.293  -0.428 -20.952  0.00  0.00    +0.000 HD
BRANCH  10  12
ATOM     12  C   UNL     1      12.407  -0.431 -20.786  0.00  0.00    +0.000 A 
ATOM     13  C   UNL     1      13.249  -1.514 -21.031  0.00  0.00    +0.000 A 
ATOM     14  C   UNL     1      14.518  -1.313 -21.570  0.00  0.00    +0.000 A 
ATOM     15  C   UNL     1      14.939  -0.026 -21.892  0.00  0.00    +0.000 A 
ATOM     16  C   UNL     1      14.089   1.056 -21.683  0.00  0.00    +0.000 A 
ATOM     17  C   UNL     1      12.822   0.851 -21.144  0.00  0.00    +0.000 A 
ENDBRANCH  10  12
ENDBRANCH   7  10
ENDBRANCH   1   7
BRANCH   3  18
ATOM     18  C   UNL     1       5.942   1.530 -18.477  0.00  0.00    +0.000 C 
ATOM     19  C   UNL     1       4.752   1.367 -18.448  0.00  0.00    +0.000 C 
BRANCH  19  20
ATOM     20  C   UNL     1       3.324   1.173 -18.414  0.00  0.00    +0.000 C 
ATOM     21  O   UNL     1       2.567   2.059 -18.794  0.00  0.00    +0.000 OA
ATOM     22  N   UNL     1       2.896  -0.039 -17.950  0.00  0.00    +0.000 N 
ATOM     23  H   UNL     1       3.509  -0.802 -17.687  0.00  0.00    +0.000 HD
BRANCH  22  24
ATOM     24  O   UNL     1       1.505  -0.283 -17.947  0.00  0.00    +0.000 OA
ATOM     25  H   UNL     1       1.130   0.600 -18.158  0.00  0.00    +0.000 HD
ENDBRANCH  22  24
ENDBRANCH  19  20
ENDBRANCH   3  18
TORSDOF 6
ENDMDL
MODEL 8
REMARK VINA RESULT:      -6.0      3.092      3.693
REMARK  Name = Belinostat.pdbqt.pdb
REMARK  6 active torsions:
REMARK  status: ('A' for Active; 'I' for Inactive)
REMARK    1  A    between atoms: C_1  and  S_7
REMARK    2  A    between atoms: C_3  and  C_18
REMARK    3  A    between atoms: S_7  and  N_10
REMARK    4  A    between atoms: N_10  and  C_12
REMARK    5  A    between atoms: C_19  and  C_20
REMARK    6  A    between atoms: N_22  and  O_24
REMARK                            x       y       z     vdW  Elec       q    Type
REMARK                         _______ _______ _______ _____ _____    ______ ____
ROOT
ATOM      1  C   UNL     1      -5.545  -1.231 -19.334  0.00  0.00    +0.000 A 
ATOM      2  C   UNL     1      -4.566  -0.306 -19.677  0.00  0.00    +0.000 A 
ATOM      3  C   UNL     1      -3.565  -0.010 -18.758  0.00  0.00    +0.000 A 
ATOM      4  C   UNL     1      -5.528  -1.886 -18.106  0.00  0.00    +0.000 A 
ATOM      5  C   UNL     1      -3.541  -0.646 -17.517  0.00  0.00    +0.000 A 
ATOM      6  C   UNL     1      -4.522  -1.584 -17.193  0.00  0.00    +0.000 A 
ENDROOT
BRANCH   1   7
ATOM      7  S   UNL     1      -6.790  -1.644 -20.501  0.00  0.00    +0.000 S 
ATOM      8  O   UNL     1      -6.197  -2.563 -21.448  0.00  0.00    +0.000 OA
ATOM      9  O   UNL     1      -7.419  -0.418 -20.944  0.00  0.00    +0.000 OA
BRANCH   7  10
ATOM     10  N   UNL     1      -7.888  -2.533 -19.601  0.00  0.00    +0.000 N 
ATOM     11  H   UNL     1      -7.514  -3.398 -19.214  0.00  0.00    +0.000 HD
BRANCH  10  12
ATOM     12  C   UNL     1      -9.084  -1.982 -19.061  0.00  0.00    +0.000 A 
ATOM     13  C   UNL     1      -9.472  -2.173 -17.737  0.00  0.00    +0.000 A 
ATOM     14  C   UNL     1     -10.610  -1.544 -17.237  0.00  0.00    +0.000 A 
ATOM     15  C   UNL     1     -11.351  -0.696 -18.056  0.00  0.00    +0.000 A 
ATOM     16  C   UNL     1     -10.948  -0.471 -19.369  0.00  0.00    +0.000 A 
ATOM     17  C   UNL     1      -9.811  -1.103 -19.865  0.00  0.00    +0.000 A 
ENDBRANCH  10  12
ENDBRANCH   7  10
ENDBRANCH   1   7
BRANCH   3  18
ATOM     18  C   UNL     1      -2.560   0.948 -19.088  0.00  0.00    +0.000 C 
ATOM     19  C   UNL     1      -1.716   1.755 -19.368  0.00  0.00    +0.000 C 
BRANCH  19  20
ATOM     20  C   UNL     1      -0.704   2.725 -19.704  0.00  0.00    +0.000 C 
ATOM     21  O   UNL     1      -0.718   3.840 -19.197  0.00  0.00    +0.000 OA
ATOM     22  N   UNL     1       0.246   2.312 -20.596  0.00  0.00    +0.000 N 
ATOM     23  H   UNL     1       0.306   1.376 -20.980  0.00  0.00    +0.000 HD
BRANCH  22  24
ATOM     24  O   UNL     1       1.282   3.218 -20.913  0.00  0.00    +0.000 OA
ATOM     25  H   UNL     1       1.041   3.514 -21.818  0.00  0.00    +0.000 HD
ENDBRANCH  22  24
ENDBRANCH  19  20
ENDBRANCH   3  18
TORSDOF 6
ENDMDL
MODEL 9
REMARK VINA RESULT:      -6.0     15.419     17.610
REMARK  Name = Belinostat.pdbqt.pdb
REMARK  6 active torsions:
REMARK  status: ('A' for Active; 'I' for Inactive)
REMARK    1  A    between atoms: C_1  and  S_7
REMARK    2  A    between atoms: C_3  and  C_18
REMARK    3  A    between atoms: S_7  and  N_10
REMARK    4  A    between atoms: N_10  and  C_12
REMARK    5  A    between atoms: C_19  and  C_20
REMARK    6  A    between atoms: N_22  and  O_24
REMARK                            x       y       z     vdW  Elec       q    Type
REMARK                         _______ _______ _______ _____ _____    ______ ____
ROOT
ATOM      1  C   UNL     1     -11.665   6.527  -8.395  0.00  0.00    +0.000 A 
ATOM      2  C   UNL     1     -12.508   7.628  -8.493  0.00  0.00    +0.000 A 
ATOM      3  C   UNL     1     -12.356   8.678  -7.593  0.00  0.00    +0.000 A 
ATOM      4  C   UNL     1     -10.657   6.467  -7.438  0.00  0.00    +0.000 A 
ATOM      5  C   UNL     1     -11.361   8.627  -6.617  0.00  0.00    +0.000 A 
ATOM      6  C   UNL     1     -10.511   7.522  -6.542  0.00  0.00    +0.000 A 
ENDROOT
BRANCH   1   7
ATOM      7  S   UNL     1     -11.822   5.215  -9.551  0.00  0.00    +0.000 S 
ATOM      8  O   UNL     1     -13.123   4.618  -9.341  0.00  0.00    +0.000 OA
ATOM      9  O   UNL     1     -10.615   4.418  -9.497  0.00  0.00    +0.000 OA
BRANCH   7  10
ATOM     10  N   UNL     1     -11.895   6.005 -11.027  0.00  0.00    +0.000 N 
ATOM     11  H   UNL     1     -10.987   6.219 -11.436  0.00  0.00    +0.000 HD
BRANCH  10  12
ATOM     12  C   UNL     1     -13.056   6.018 -11.849  0.00  0.00    +0.000 A 
ATOM     13  C   UNL     1     -13.508   4.892 -12.535  0.00  0.00    +0.000 A 
ATOM     14  C   UNL     1     -14.697   4.938 -13.260  0.00  0.00    +0.000 A 
ATOM     15  C   UNL     1     -15.454   6.105 -13.280  0.00  0.00    +0.000 A 
ATOM     16  C   UNL     1     -15.027   7.222 -12.567  0.00  0.00    +0.000 A 
ATOM     17  C   UNL     1     -13.838   7.173 -11.844  0.00  0.00    +0.000 A 
ENDBRANCH  10  12
ENDBRANCH   7  10
ENDBRANCH   1   7
BRANCH   3  18
ATOM     18  C   UNL     1     -13.221   9.810  -7.670  0.00  0.00    +0.000 C 
ATOM     19  C   UNL     1     -13.952  10.761  -7.733  0.00  0.00    +0.000 C 
BRANCH  19  20
ATOM     20  C   UNL     1     -14.829  11.903  -7.807  0.00  0.00    +0.000 C 
ATOM     21  O   UNL     1     -15.889  11.833  -8.418  0.00  0.00    +0.000 OA
ATOM     22  N   UNL     1     -14.403  13.027  -7.158  0.00  0.00    +0.000 N 
ATOM     23  H   UNL     1     -13.558  13.084  -6.601  0.00  0.00    +0.000 HD
BRANCH  22  24
ATOM     24  O   UNL     1     -15.258  14.151  -7.168  0.00  0.00    +0.000 OA
ATOM     25  H   UNL     1     -16.125  13.765  -6.914  0.00  0.00    +0.000 HD
ENDBRANCH  22  24
ENDBRANCH  19  20
ENDBRANCH   3  18
TORSDOF 6
ENDMDL
