MODEL 1
REMARK VINA RESULT:      -6.8      0.000      0.000
REMARK  Name = Benzo[a]pyrene.pdbqt.pdb
REMARK  0 active torsions:
REMARK  status: ('A' for Active; 'I' for Inactive)
REMARK                            x       y       z     vdW  Elec       q    Type
REMARK                         _______ _______ _______ _____ _____    ______ ____
ROOT
ATOM      1  C   UNL     1       7.588   5.148   0.188  0.00  0.00    +0.000 A 
ATOM      2  C   UNL     1       8.831   5.805   0.052  0.00  0.00    +0.000 A 
ATOM      3  C   UNL     1       7.097   4.805   1.468  0.00  0.00    +0.000 A 
ATOM      4  C   UNL     1       6.843   4.839  -0.970  0.00  0.00    +0.000 A 
ATOM      5  C   UNL     1       5.847   4.147   1.575  0.00  0.00    +0.000 A 
ATOM      6  C   UNL     1       9.591   6.122   1.195  0.00  0.00    +0.000 A 
ATOM      7  C   UNL     1       9.317   6.144  -1.229  0.00  0.00    +0.000 A 
ATOM      8  C   UNL     1       5.117   3.847   0.402  0.00  0.00    +0.000 A 
ATOM      9  C   UNL     1       5.618   4.193  -0.850  0.00  0.00    +0.000 A 
ATOM     10  C   UNL     1       7.881   5.137   2.586  0.00  0.00    +0.000 A 
ATOM     11  C   UNL     1       7.336   5.181  -2.229  0.00  0.00    +0.000 A 
ATOM     12  C   UNL     1       9.108   5.785   2.457  0.00  0.00    +0.000 A 
ATOM     13  C   UNL     1       8.564   5.829  -2.359  0.00  0.00    +0.000 A 
ATOM     14  C   UNL     1      10.817   6.770   1.051  0.00  0.00    +0.000 A 
ATOM     15  C   UNL     1      10.545   6.793  -1.351  0.00  0.00    +0.000 A 
ATOM     16  C   UNL     1       5.291   3.773   2.810  0.00  0.00    +0.000 A 
ATOM     17  C   UNL     1       3.884   3.199   0.484  0.00  0.00    +0.000 A 
ATOM     18  C   UNL     1      11.292   7.104  -0.216  0.00  0.00    +0.000 A 
ATOM     19  C   UNL     1       4.059   3.127   2.885  0.00  0.00    +0.000 A 
ATOM     20  C   UNL     1       3.356   2.840   1.721  0.00  0.00    +0.000 A 
ENDROOT
TORSDOF 0
ENDMDL
MODEL 2
REMARK VINA RESULT:      -6.7     23.713     25.499
REMARK  Name = Benzo[a]pyrene.pdbqt.pdb
REMARK  0 active torsions:
REMARK  status: ('A' for Active; 'I' for Inactive)
REMARK                            x       y       z     vdW  Elec       q    Type
REMARK                         _______ _______ _______ _____ _____    ______ ____
ROOT
ATOM      1  C   UNL     1       3.861 -16.974 -10.585  0.00  0.00    +0.000 A 
ATOM      2  C   UNL     1       3.992 -17.653  -9.353  0.00  0.00    +0.000 A 
ATOM      3  C   UNL     1       2.723 -17.181 -11.398  0.00  0.00    +0.000 A 
ATOM      4  C   UNL     1       4.879 -16.087 -10.993  0.00  0.00    +0.000 A 
ATOM      5  C   UNL     1       2.618 -16.488 -12.628  0.00  0.00    +0.000 A 
ATOM      6  C   UNL     1       2.987 -18.543  -8.927  0.00  0.00    +0.000 A 
ATOM      7  C   UNL     1       5.130 -17.442  -8.546  0.00  0.00    +0.000 A 
ATOM      8  C   UNL     1       3.649 -15.603 -13.019  0.00  0.00    +0.000 A 
ATOM      9  C   UNL     1       4.762 -15.413 -12.204  0.00  0.00    +0.000 A 
ATOM     10  C   UNL     1       1.740 -18.076 -10.941  0.00  0.00    +0.000 A 
ATOM     11  C   UNL     1       5.998 -15.889 -10.185  0.00  0.00    +0.000 A 
ATOM     12  C   UNL     1       1.866 -18.748  -9.726  0.00  0.00    +0.000 A 
ATOM     13  C   UNL     1       6.124 -16.561  -8.969  0.00  0.00    +0.000 A 
ATOM     14  C   UNL     1       3.125 -19.208  -7.709  0.00  0.00    +0.000 A 
ATOM     15  C   UNL     1       5.249 -18.117  -7.332  0.00  0.00    +0.000 A 
ATOM     16  C   UNL     1       1.519 -16.639 -13.492  0.00  0.00    +0.000 A 
ATOM     17  C   UNL     1       3.566 -14.910 -14.226  0.00  0.00    +0.000 A 
ATOM     18  C   UNL     1       4.251 -18.997  -6.915  0.00  0.00    +0.000 A 
ATOM     19  C   UNL     1       1.442 -15.944 -14.696  0.00  0.00    +0.000 A 
ATOM     20  C   UNL     1       2.466 -15.079 -15.063  0.00  0.00    +0.000 A 
ENDROOT
TORSDOF 0
ENDMDL
MODEL 3
REMARK VINA RESULT:      -6.7     21.949     22.534
REMARK  Name = Benzo[a]pyrene.pdbqt.pdb
REMARK  0 active torsions:
REMARK  status: ('A' for Active; 'I' for Inactive)
REMARK                            x       y       z     vdW  Elec       q    Type
REMARK                         _______ _______ _______ _____ _____    ______ ____
ROOT
ATOM      1  C   UNL     1      -4.164  16.998 -14.037  0.00  0.00    +0.000 A 
ATOM      2  C   UNL     1      -4.442  17.908 -12.992  0.00  0.00    +0.000 A 
ATOM      3  C   UNL     1      -2.919  17.038 -14.706  0.00  0.00    +0.000 A 
ATOM      4  C   UNL     1      -5.143  16.051 -14.402  0.00  0.00    +0.000 A 
ATOM      5  C   UNL     1      -2.667  16.114 -15.750  0.00  0.00    +0.000 A 
ATOM      6  C   UNL     1      -3.478  18.862 -12.611  0.00  0.00    +0.000 A 
ATOM      7  C   UNL     1      -5.686  17.864 -12.327  0.00  0.00    +0.000 A 
ATOM      8  C   UNL     1      -3.662  15.173 -16.101  0.00  0.00    +0.000 A 
ATOM      9  C   UNL     1      -4.881  15.150 -15.429  0.00  0.00    +0.000 A 
ATOM     10  C   UNL     1      -1.981  18.002 -14.300  0.00  0.00    +0.000 A 
ATOM     11  C   UNL     1      -6.368  16.020 -13.736  0.00  0.00    +0.000 A 
ATOM     12  C   UNL     1      -2.252  18.902 -13.270  0.00  0.00    +0.000 A 
ATOM     13  C   UNL     1      -6.638  16.919 -12.706  0.00  0.00    +0.000 A 
ATOM     14  C   UNL     1      -3.762  19.756 -11.579  0.00  0.00    +0.000 A 
ATOM     15  C   UNL     1      -5.950  18.766 -11.298  0.00  0.00    +0.000 A 
ATOM     16  C   UNL     1      -1.457  16.089 -16.463  0.00  0.00    +0.000 A 
ATOM     17  C   UNL     1      -3.435  14.254 -17.125  0.00  0.00    +0.000 A 
ATOM     18  C   UNL     1      -4.992  19.708 -10.925  0.00  0.00    +0.000 A 
ATOM     19  C   UNL     1      -1.236  15.169 -17.485  0.00  0.00    +0.000 A 
ATOM     20  C   UNL     1      -2.226  14.251 -17.817  0.00  0.00    +0.000 A 
ENDROOT
TORSDOF 0
ENDMDL
MODEL 4
REMARK VINA RESULT:      -6.7     23.848     25.681
REMARK  Name = Benzo[a]pyrene.pdbqt.pdb
REMARK  0 active torsions:
REMARK  status: ('A' for Active; 'I' for Inactive)
REMARK                            x       y       z     vdW  Elec       q    Type
REMARK                         _______ _______ _______ _____ _____    ______ ____
ROOT
ATOM      1  C   UNL     1       3.368 -16.985 -11.426  0.00  0.00    +0.000 A 
ATOM      2  C   UNL     1       3.985 -17.262 -10.186  0.00  0.00    +0.000 A 
ATOM      3  C   UNL     1       3.964 -16.082 -12.335  0.00  0.00    +0.000 A 
ATOM      4  C   UNL     1       2.150 -17.623 -11.745  0.00  0.00    +0.000 A 
ATOM      5  C   UNL     1       3.323 -15.823 -13.572  0.00  0.00    +0.000 A 
ATOM      6  C   UNL     1       5.201 -16.637  -9.847  0.00  0.00    +0.000 A 
ATOM      7  C   UNL     1       3.385 -18.165  -9.282  0.00  0.00    +0.000 A 
ATOM      8  C   UNL     1       2.103 -16.472 -13.872  0.00  0.00    +0.000 A 
ATOM      9  C   UNL     1       1.532 -17.359 -12.963  0.00  0.00    +0.000 A 
ATOM     10  C   UNL     1       5.177 -15.477 -11.965  0.00  0.00    +0.000 A 
ATOM     11  C   UNL     1       1.570 -18.512 -10.842  0.00  0.00    +0.000 A 
ATOM     12  C   UNL     1       5.789 -15.747 -10.742  0.00  0.00    +0.000 A 
ATOM     13  C   UNL     1       2.182 -18.782  -9.619  0.00  0.00    +0.000 A 
ATOM     14  C   UNL     1       5.803 -16.916  -8.620  0.00  0.00    +0.000 A 
ATOM     15  C   UNL     1       4.003 -18.430  -8.060  0.00  0.00    +0.000 A 
ATOM     16  C   UNL     1       3.851 -14.940 -14.528  0.00  0.00    +0.000 A 
ATOM     17  C   UNL     1       1.456 -16.232 -15.084  0.00  0.00    +0.000 A 
ATOM     18  C   UNL     1       5.207 -17.808  -7.731  0.00  0.00    +0.000 A 
ATOM     19  C   UNL     1       3.199 -14.704 -15.736  0.00  0.00    +0.000 A 
ATOM     20  C   UNL     1       2.001 -15.351 -16.014  0.00  0.00    +0.000 A 
ENDROOT
TORSDOF 0
ENDMDL
MODEL 5
REMARK VINA RESULT:      -6.7     19.855     22.323
REMARK  Name = Benzo[a]pyrene.pdbqt.pdb
REMARK  0 active torsions:
REMARK  status: ('A' for Active; 'I' for Inactive)
REMARK                            x       y       z     vdW  Elec       q    Type
REMARK                         _______ _______ _______ _____ _____    ______ ____
ROOT
ATOM      1  C   UNL     1     -12.185   8.029  -8.259  0.00  0.00    +0.000 A 
ATOM      2  C   UNL     1     -12.141   7.221  -9.417  0.00  0.00    +0.000 A 
ATOM      3  C   UNL     1     -13.008   9.178  -8.221  0.00  0.00    +0.000 A 
ATOM      4  C   UNL     1     -11.398   7.675  -7.143  0.00  0.00    +0.000 A 
ATOM      5  C   UNL     1     -13.033   9.970  -7.046  0.00  0.00    +0.000 A 
ATOM      6  C   UNL     1     -12.919   7.557 -10.543  0.00  0.00    +0.000 A 
ATOM      7  C   UNL     1     -11.318   6.075  -9.450  0.00  0.00    +0.000 A 
ATOM      8  C   UNL     1     -12.237   9.598  -5.939  0.00  0.00    +0.000 A 
ATOM      9  C   UNL     1     -11.433   8.462  -5.997  0.00  0.00    +0.000 A 
ATOM     10  C   UNL     1     -13.771   9.483  -9.361  0.00  0.00    +0.000 A 
ATOM     11  C   UNL     1     -10.590   6.540  -7.191  0.00  0.00    +0.000 A 
ATOM     12  C   UNL     1     -13.730   8.688 -10.506  0.00  0.00    +0.000 A 
ATOM     13  C   UNL     1     -10.549   5.745  -8.336  0.00  0.00    +0.000 A 
ATOM     14  C   UNL     1     -12.869   6.753 -11.681  0.00  0.00    +0.000 A 
ATOM     15  C   UNL     1     -11.282   5.284 -10.599  0.00  0.00    +0.000 A 
ATOM     16  C   UNL     1     -13.824  11.126  -6.929  0.00  0.00    +0.000 A 
ATOM     17  C   UNL     1     -12.246  10.363  -4.774  0.00  0.00    +0.000 A 
ATOM     18  C   UNL     1     -12.054   5.622 -11.709  0.00  0.00    +0.000 A 
ATOM     19  C   UNL     1     -13.829  11.886  -5.762  0.00  0.00    +0.000 A 
ATOM     20  C   UNL     1     -13.039  11.504  -4.684  0.00  0.00    +0.000 A 
ENDROOT
TORSDOF 0
ENDMDL
MODEL 6
REMARK VINA RESULT:      -6.7     24.273     25.687
REMARK  Name = Benzo[a]pyrene.pdbqt.pdb
REMARK  0 active torsions:
REMARK  status: ('A' for Active; 'I' for Inactive)
REMARK                            x       y       z     vdW  Elec       q    Type
REMARK                         _______ _______ _______ _____ _____    ______ ____
ROOT
ATOM      1  C   UNL     1       5.118 -16.015 -13.013  0.00  0.00    +0.000 A 
ATOM      2  C   UNL     1       4.322 -15.474 -14.047  0.00  0.00    +0.000 A 
ATOM      3  C   UNL     1       6.399 -16.540 -13.297  0.00  0.00    +0.000 A 
ATOM      4  C   UNL     1       4.618 -16.024 -11.694  0.00  0.00    +0.000 A 
ATOM      5  C   UNL     1       7.176 -17.076 -12.241  0.00  0.00    +0.000 A 
ATOM      6  C   UNL     1       4.802 -15.456 -15.372  0.00  0.00    +0.000 A 
ATOM      7  C   UNL     1       3.044 -14.952 -13.758  0.00  0.00    +0.000 A 
ATOM      8  C   UNL     1       6.657 -17.075 -10.926  0.00  0.00    +0.000 A 
ATOM      9  C   UNL     1       5.392 -16.553 -10.667  0.00  0.00    +0.000 A 
ATOM     10  C   UNL     1       6.846 -16.505 -14.629  0.00  0.00    +0.000 A 
ATOM     11  C   UNL     1       3.353 -15.504 -11.423  0.00  0.00    +0.000 A 
ATOM     12  C   UNL     1       6.064 -15.972 -15.653  0.00  0.00    +0.000 A 
ATOM     13  C   UNL     1       2.570 -14.971 -12.447  0.00  0.00    +0.000 A 
ATOM     14  C   UNL     1       4.009 -14.920 -16.386  0.00  0.00    +0.000 A 
ATOM     15  C   UNL     1       2.266 -14.421 -14.786  0.00  0.00    +0.000 A 
ATOM     16  C   UNL     1       8.458 -17.615 -12.441  0.00  0.00    +0.000 A 
ATOM     17  C   UNL     1       7.404 -17.597  -9.871  0.00  0.00    +0.000 A 
ATOM     18  C   UNL     1       2.747 -14.405 -16.095  0.00  0.00    +0.000 A 
ATOM     19  C   UNL     1       9.200 -18.136 -11.384  0.00  0.00    +0.000 A 
ATOM     20  C   UNL     1       8.672 -18.126 -10.098  0.00  0.00    +0.000 A 
ENDROOT
TORSDOF 0
ENDMDL
MODEL 7
REMARK VINA RESULT:      -6.6     21.736     23.676
REMARK  Name = Benzo[a]pyrene.pdbqt.pdb
REMARK  0 active torsions:
REMARK  status: ('A' for Active; 'I' for Inactive)
REMARK                            x       y       z     vdW  Elec       q    Type
REMARK                         _______ _______ _______ _____ _____    ______ ____
ROOT
ATOM      1  C   UNL     1      -5.107  15.786 -16.474  0.00  0.00    +0.000 A 
ATOM      2  C   UNL     1      -4.200  15.007 -17.226  0.00  0.00    +0.000 A 
ATOM      3  C   UNL     1      -4.802  16.155 -15.144  0.00  0.00    +0.000 A 
ATOM      4  C   UNL     1      -6.322  16.191 -17.068  0.00  0.00    +0.000 A 
ATOM      5  C   UNL     1      -5.730  16.937 -14.413  0.00  0.00    +0.000 A 
ATOM      6  C   UNL     1      -2.982  14.592 -16.652  0.00  0.00    +0.000 A 
ATOM      7  C   UNL     1      -4.510  14.642 -18.553  0.00  0.00    +0.000 A 
ATOM      8  C   UNL     1      -6.941  17.332 -15.026  0.00  0.00    +0.000 A 
ATOM      9  C   UNL     1      -7.223  16.959 -16.338  0.00  0.00    +0.000 A 
ATOM     10  C   UNL     1      -3.578  15.724 -14.604  0.00  0.00    +0.000 A 
ATOM     11  C   UNL     1      -6.614  15.823 -18.380  0.00  0.00    +0.000 A 
ATOM     12  C   UNL     1      -2.680  14.955 -15.343  0.00  0.00    +0.000 A 
ATOM     13  C   UNL     1      -5.716  15.054 -19.119  0.00  0.00    +0.000 A 
ATOM     14  C   UNL     1      -2.092  13.823 -17.402  0.00  0.00    +0.000 A 
ATOM     15  C   UNL     1      -3.608  13.873 -19.286  0.00  0.00    +0.000 A 
ATOM     16  C   UNL     1      -5.500  17.344 -13.088  0.00  0.00    +0.000 A 
ATOM     17  C   UNL     1      -7.869  18.102 -14.326  0.00  0.00    +0.000 A 
ATOM     18  C   UNL     1      -2.404  13.465 -18.713  0.00  0.00    +0.000 A 
ATOM     19  C   UNL     1      -6.431  18.112 -12.393  0.00  0.00    +0.000 A 
ATOM     20  C   UNL     1      -7.616  18.492 -13.013  0.00  0.00    +0.000 A 
ENDROOT
TORSDOF 0
ENDMDL
MODEL 8
REMARK VINA RESULT:      -6.6     13.897     14.797
REMARK  Name = Benzo[a]pyrene.pdbqt.pdb
REMARK  0 active torsions:
REMARK  status: ('A' for Active; 'I' for Inactive)
REMARK                            x       y       z     vdW  Elec       q    Type
REMARK                         _______ _______ _______ _____ _____    ______ ____
ROOT
ATOM      1  C   UNL     1      11.578  -6.930  -6.221  0.00  0.00    +0.000 A 
ATOM      2  C   UNL     1      12.063  -6.616  -7.510  0.00  0.00    +0.000 A 
ATOM      3  C   UNL     1      12.175  -7.965  -5.466  0.00  0.00    +0.000 A 
ATOM      4  C   UNL     1      10.491  -6.199  -5.698  0.00  0.00    +0.000 A 
ATOM      5  C   UNL     1      11.669  -8.259  -4.176  0.00  0.00    +0.000 A 
ATOM      6  C   UNL     1      13.147  -7.334  -8.052  0.00  0.00    +0.000 A 
ATOM      7  C   UNL     1      11.463  -5.582  -8.259  0.00  0.00    +0.000 A 
ATOM      8  C   UNL     1      10.579  -7.514  -3.670  0.00  0.00    +0.000 A 
ATOM      9  C   UNL     1      10.005  -6.499  -4.430  0.00  0.00    +0.000 A 
ATOM     10  C   UNL     1      13.255  -8.661  -6.037  0.00  0.00    +0.000 A 
ATOM     11  C   UNL     1       9.909  -5.179  -6.450  0.00  0.00    +0.000 A 
ATOM     12  C   UNL     1      13.736  -8.353  -7.309  0.00  0.00    +0.000 A 
ATOM     13  C   UNL     1      10.390  -4.872  -7.722  0.00  0.00    +0.000 A 
ATOM     14  C   UNL     1      13.619  -7.016  -9.325  0.00  0.00    +0.000 A 
ATOM     15  C   UNL     1      11.949  -5.279  -9.531  0.00  0.00    +0.000 A 
ATOM     16  C   UNL     1      12.207  -9.272  -3.364  0.00  0.00    +0.000 A 
ATOM     17  C   UNL     1      10.065  -7.787  -2.403  0.00  0.00    +0.000 A 
ATOM     18  C   UNL     1      13.023  -5.994 -10.061  0.00  0.00    +0.000 A 
ATOM     19  C   UNL     1      11.689  -9.539  -2.099  0.00  0.00    +0.000 A 
ATOM     20  C   UNL     1      10.617  -8.796  -1.618  0.00  0.00    +0.000 A 
ENDROOT
TORSDOF 0
ENDMDL
MODEL 9
REMARK VINA RESULT:      -6.6     20.372     22.620
REMARK  Name = Benzo[a]pyrene.pdbqt.pdb
REMARK  0 active torsions:
REMARK  status: ('A' for Active; 'I' for Inactive)
REMARK                            x       y       z     vdW  Elec       q    Type
REMARK                         _______ _______ _______ _____ _____    ______ ____
ROOT
ATOM      1  C   UNL     1     -12.919   9.158  -8.164  0.00  0.00    +0.000 A 
ATOM      2  C   UNL     1     -12.996  10.008  -7.039  0.00  0.00    +0.000 A 
ATOM      3  C   UNL     1     -12.056   8.039  -8.157  0.00  0.00    +0.000 A 
ATOM      4  C   UNL     1     -13.714   9.440  -9.295  0.00  0.00    +0.000 A 
ATOM      5  C   UNL     1     -11.998   7.203  -9.299  0.00  0.00    +0.000 A 
ATOM      6  C   UNL     1     -12.210   9.744  -5.899  0.00  0.00    +0.000 A 
ATOM      7  C   UNL     1     -13.859  11.124  -7.052  0.00  0.00    +0.000 A 
ATOM      8  C   UNL     1     -12.803   7.503 -10.422  0.00  0.00    +0.000 A 
ATOM      9  C   UNL     1     -13.647   8.611 -10.409  0.00  0.00    +0.000 A 
ATOM     10  C   UNL     1     -11.287   7.806  -7.003  0.00  0.00    +0.000 A 
ATOM     11  C   UNL     1     -14.563  10.547  -9.293  0.00  0.00    +0.000 A 
ATOM     12  C   UNL     1     -11.360   8.642  -5.891  0.00  0.00    +0.000 A 
ATOM     13  C   UNL     1     -14.636  11.383  -8.180  0.00  0.00    +0.000 A 
ATOM     14  C   UNL     1     -12.293  10.589  -4.793  0.00  0.00    +0.000 A 
ATOM     15  C   UNL     1     -13.928  11.957  -5.936  0.00  0.00    +0.000 A 
ATOM     16  C   UNL     1     -11.167   6.073  -9.370  0.00  0.00    +0.000 A 
ATOM     17  C   UNL     1     -12.763   6.694 -11.557  0.00  0.00    +0.000 A 
ATOM     18  C   UNL     1     -13.148  11.691  -4.811  0.00  0.00    +0.000 A 
ATOM     19  C   UNL     1     -11.131   5.268 -10.506  0.00  0.00    +0.000 A 
ATOM     20  C   UNL     1     -11.929   5.579 -11.600  0.00  0.00    +0.000 A 
ENDROOT
TORSDOF 0
ENDMDL
