MODEL 1
REMARK VINA RESULT:      -6.8      0.000      0.000
REMARK  Name = Bicalutamide.pdbqt.pdb
REMARK  8 active torsions:
REMARK  status: ('A' for Active; 'I' for Inactive)
REMARK    1  A    between atoms: C_2  and  N_13
REMARK    2  A    between atoms: C_5  and  C_9
REMARK    3  A    between atoms: C_6  and  C_8
REMARK    4  A    between atoms: C_14  and  C_17
REMARK    5  A    between atoms: C_17  and  O_19
REMARK    6  A    between atoms: C_17  and  C_21
REMARK    7  A    between atoms: C_21  and  S_22
REMARK    8  A    between atoms: S_22  and  C_25
REMARK                            x       y       z     vdW  Elec       q    Type
REMARK                         _______ _______ _______ _____ _____    ______ ____
ROOT
ATOM      1  N   UNL     1      -5.229  -1.793 -18.734  0.00  0.00    +0.000 N 
ATOM      2  C   UNL     1      -4.741  -0.514 -18.990  0.00  0.00    +0.000 C 
ATOM      3  O   UNL     1      -5.286   0.311 -19.731  0.00  0.00    +0.000 OA
ATOM      4  H   UNL     1      -4.735  -2.335 -18.024  0.00  0.00    +0.000 HD
ENDROOT
BRANCH   1   5
ATOM      5  C   UNL     1      -6.380  -2.366 -19.301  0.00  0.00    +0.000 A 
ATOM      6  C   UNL     1      -7.571  -2.278 -18.581  0.00  0.00    +0.000 A 
ATOM      7  C   UNL     1      -6.374  -3.019 -20.529  0.00  0.00    +0.000 A 
ATOM      8  C   UNL     1      -8.759  -2.831 -19.073  0.00  0.00    +0.000 A 
ATOM      9  C   UNL     1      -8.739  -3.485 -20.314  0.00  0.00    +0.000 A 
ATOM     10  C   UNL     1      -7.546  -3.576 -21.033  0.00  0.00    +0.000 A 
BRANCH   8  11
ATOM     11  C   UNL     1     -10.013  -2.708 -18.258  0.00  0.00    +0.000 C 
ATOM     12  F   UNL     1     -10.529  -3.910 -17.880  0.00  0.00    +0.000 F 
ATOM     13  F   UNL     1      -9.816  -2.011 -17.108  0.00  0.00    +0.000 F 
ATOM     14  F   UNL     1     -11.009  -2.072 -18.930  0.00  0.00    +0.000 F 
ENDBRANCH   8  11
BRANCH   9  16
ATOM     15  N   UNL     1     -10.853  -4.561 -21.358  0.00  0.00    +0.000 NA
ATOM     16  C   UNL     1      -9.911  -4.077 -20.884  0.00  0.00    +0.000 C 
ENDBRANCH   9  16
ENDBRANCH   1   5
BRANCH   2  17
ATOM     17  C   UNL     1      -3.367  -0.164 -18.287  0.00  0.00    +0.000 C 
ATOM     18  C   UNL     1      -3.471  -0.300 -16.742  0.00  0.00    +0.000 C 
BRANCH  17  19
ATOM     19  O   UNL     1      -3.001   1.178 -18.565  0.00  0.00    +0.000 OA
ATOM     20  H   UNL     1      -2.064   1.239 -18.299  0.00  0.00    +0.000 HD
ENDBRANCH  17  19
BRANCH  17  21
ATOM     21  C   UNL     1      -2.364  -1.037 -18.814  0.00  0.00    +0.000 C 
BRANCH  21  22
ATOM     22  S   UNL     1      -1.312  -2.163 -19.588  0.00  0.00    +0.000 S 
ATOM     23  O   UNL     1      -1.576  -1.777 -20.951  0.00  0.00    +0.000 OA
ATOM     24  O   UNL     1      -1.822  -3.344 -18.935  0.00  0.00    +0.000 OA
BRANCH  22  25
ATOM     25  C   UNL     1       0.323  -1.827 -19.127  0.00  0.00    +0.000 A 
ATOM     26  C   UNL     1       0.636  -0.536 -18.718  0.00  0.00    +0.000 A 
ATOM     27  C   UNL     1       1.949  -0.235 -18.364  0.00  0.00    +0.000 A 
ATOM     28  C   UNL     1       2.920  -1.230 -18.433  0.00  0.00    +0.000 A 
ATOM     29  F   UNL     1       4.184  -0.940 -18.092  0.00  0.00    +0.000 F 
ATOM     30  C   UNL     1       2.604  -2.520 -18.850  0.00  0.00    +0.000 A 
ATOM     31  C   UNL     1       1.293  -2.822 -19.204  0.00  0.00    +0.000 A 
ENDBRANCH  22  25
ENDBRANCH  21  22
ENDBRANCH  17  21
ENDBRANCH   2  17
TORSDOF 8
ENDMDL
MODEL 2
REMARK VINA RESULT:      -6.7      1.552      2.048
REMARK  Name = Bicalutamide.pdbqt.pdb
REMARK  8 active torsions:
REMARK  status: ('A' for Active; 'I' for Inactive)
REMARK    1  A    between atoms: C_2  and  N_13
REMARK    2  A    between atoms: C_5  and  C_9
REMARK    3  A    between atoms: C_6  and  C_8
REMARK    4  A    between atoms: C_14  and  C_17
REMARK    5  A    between atoms: C_17  and  O_19
REMARK    6  A    between atoms: C_17  and  C_21
REMARK    7  A    between atoms: C_21  and  S_22
REMARK    8  A    between atoms: S_22  and  C_25
REMARK                            x       y       z     vdW  Elec       q    Type
REMARK                         _______ _______ _______ _____ _____    ______ ____
ROOT
ATOM      1  N   UNL     1      -5.464  -1.763 -18.728  0.00  0.00    +0.000 N 
ATOM      2  C   UNL     1      -4.914  -0.509 -18.983  0.00  0.00    +0.000 C 
ATOM      3  O   UNL     1      -5.252   0.230 -19.913  0.00  0.00    +0.000 OA
ATOM      4  H   UNL     1      -5.165  -2.225 -17.868  0.00  0.00    +0.000 HD
ENDROOT
BRANCH   1   5
ATOM      5  C   UNL     1      -6.447  -2.405 -19.498  0.00  0.00    +0.000 A 
ATOM      6  C   UNL     1      -7.737  -2.480 -18.974  0.00  0.00    +0.000 A 
ATOM      7  C   UNL     1      -6.184  -2.972 -20.741  0.00  0.00    +0.000 A 
ATOM      8  C   UNL     1      -8.771  -3.111 -19.675  0.00  0.00    +0.000 A 
ATOM      9  C   UNL     1      -8.492  -3.677 -20.928  0.00  0.00    +0.000 A 
ATOM     10  C   UNL     1      -7.201  -3.605 -21.453  0.00  0.00    +0.000 A 
BRANCH   8  11
ATOM     11  C   UNL     1     -10.141  -3.163 -19.065  0.00  0.00    +0.000 C 
ATOM     12  F   UNL     1     -11.089  -2.540 -19.819  0.00  0.00    +0.000 F 
ATOM     13  F   UNL     1     -10.583  -4.437 -18.893  0.00  0.00    +0.000 F 
ATOM     14  F   UNL     1     -10.189  -2.568 -17.844  0.00  0.00    +0.000 F 
ENDBRANCH   8  11
BRANCH   9  16
ATOM     15  N   UNL     1     -10.297  -4.887 -22.340  0.00  0.00    +0.000 NA
ATOM     16  C   UNL     1      -9.494  -4.339 -21.707  0.00  0.00    +0.000 C 
ENDBRANCH   9  16
ENDBRANCH   1   5
BRANCH   2  17
ATOM     17  C   UNL     1      -3.750  -0.072 -18.004  0.00  0.00    +0.000 C 
ATOM     18  C   UNL     1      -3.753  -0.924 -16.703  0.00  0.00    +0.000 C 
BRANCH  17  19
ATOM     19  O   UNL     1      -3.915   1.283 -17.617  0.00  0.00    +0.000 OA
ATOM     20  H   UNL     1      -4.868   1.369 -17.422  0.00  0.00    +0.000 HD
ENDBRANCH  17  19
BRANCH  17  21
ATOM     21  C   UNL     1      -2.509  -0.206 -18.703  0.00  0.00    +0.000 C 
BRANCH  21  22
ATOM     22  S   UNL     1      -1.096  -0.223 -19.692  0.00  0.00    +0.000 S 
ATOM     23  O   UNL     1      -0.385   0.848 -19.041  0.00  0.00    +0.000 OA
ATOM     24  O   UNL     1      -1.779  -0.130 -20.960  0.00  0.00    +0.000 OA
BRANCH  22  25
ATOM     25  C   UNL     1      -0.286  -1.742 -19.506  0.00  0.00    +0.000 A 
ATOM     26  C   UNL     1       1.056  -1.729 -19.140  0.00  0.00    +0.000 A 
ATOM     27  C   UNL     1       1.734  -2.937 -19.006  0.00  0.00    +0.000 A 
ATOM     28  C   UNL     1       1.059  -4.131 -19.245  0.00  0.00    +0.000 A 
ATOM     29  F   UNL     1       1.713  -5.294 -19.116  0.00  0.00    +0.000 F 
ATOM     30  C   UNL     1      -0.283  -4.139 -19.618  0.00  0.00    +0.000 A 
ATOM     31  C   UNL     1      -0.962  -2.933 -19.752  0.00  0.00    +0.000 A 
ENDBRANCH  22  25
ENDBRANCH  21  22
ENDBRANCH  17  21
ENDBRANCH   2  17
TORSDOF 8
ENDMDL
MODEL 3
REMARK VINA RESULT:      -6.6      2.877      9.915
REMARK  Name = Bicalutamide.pdbqt.pdb
REMARK  8 active torsions:
REMARK  status: ('A' for Active; 'I' for Inactive)
REMARK    1  A    between atoms: C_2  and  N_13
REMARK    2  A    between atoms: C_5  and  C_9
REMARK    3  A    between atoms: C_6  and  C_8
REMARK    4  A    between atoms: C_14  and  C_17
REMARK    5  A    between atoms: C_17  and  O_19
REMARK    6  A    between atoms: C_17  and  C_21
REMARK    7  A    between atoms: C_21  and  S_22
REMARK    8  A    between atoms: S_22  and  C_25
REMARK                            x       y       z     vdW  Elec       q    Type
REMARK                         _______ _______ _______ _____ _____    ______ ____
ROOT
ATOM      1  N   UNL     1      -0.501  -0.695 -18.732  0.00  0.00    +0.000 N 
ATOM      2  C   UNL     1      -1.137   0.527 -18.937  0.00  0.00    +0.000 C 
ATOM      3  O   UNL     1      -0.564   1.571 -19.263  0.00  0.00    +0.000 OA
ATOM      4  H   UNL     1      -1.106  -1.501 -18.566  0.00  0.00    +0.000 HD
ENDROOT
BRANCH   1   5
ATOM      5  C   UNL     1       0.880  -0.931 -18.817  0.00  0.00    +0.000 A 
ATOM      6  C   UNL     1       1.739   0.119 -18.495  0.00  0.00    +0.000 A 
ATOM      7  C   UNL     1       1.417  -2.150 -19.217  0.00  0.00    +0.000 A 
ATOM      8  C   UNL     1       3.129  -0.032 -18.562  0.00  0.00    +0.000 A 
ATOM      9  C   UNL     1       3.657  -1.268 -18.965  0.00  0.00    +0.000 A 
ATOM     10  C   UNL     1       2.798  -2.319 -19.290  0.00  0.00    +0.000 A 
BRANCH   8  11
ATOM     11  C   UNL     1       4.008   1.130 -18.204  0.00  0.00    +0.000 C 
ATOM     12  F   UNL     1       4.658   0.967 -17.018  0.00  0.00    +0.000 F 
ATOM     13  F   UNL     1       4.978   1.350 -19.130  0.00  0.00    +0.000 F 
ATOM     14  F   UNL     1       3.312   2.291 -18.089  0.00  0.00    +0.000 F 
ENDBRANCH   8  11
BRANCH   9  16
ATOM     15  N   UNL     1       6.209  -1.691 -19.121  0.00  0.00    +0.000 NA
ATOM     16  C   UNL     1       5.066  -1.503 -19.059  0.00  0.00    +0.000 C 
ENDBRANCH   9  16
ENDBRANCH   1   5
BRANCH   2  17
ATOM     17  C   UNL     1      -2.699   0.527 -18.680  0.00  0.00    +0.000 C 
ATOM     18  C   UNL     1      -3.463   1.230 -19.837  0.00  0.00    +0.000 C 
BRANCH  17  19
ATOM     19  O   UNL     1      -3.001   1.234 -17.488  0.00  0.00    +0.000 OA
ATOM     20  H   UNL     1      -3.554   1.983 -17.779  0.00  0.00    +0.000 HD
ENDBRANCH  17  19
BRANCH  17  21
ATOM     21  C   UNL     1      -3.124  -0.831 -18.534  0.00  0.00    +0.000 C 
BRANCH  21  22
ATOM     22  S   UNL     1      -3.633  -2.479 -18.581  0.00  0.00    +0.000 S 
ATOM     23  O   UNL     1      -3.428  -2.790 -17.190  0.00  0.00    +0.000 OA
ATOM     24  O   UNL     1      -2.777  -2.886 -19.669  0.00  0.00    +0.000 OA
BRANCH  22  25
ATOM     25  C   UNL     1      -5.307  -2.547 -19.018  0.00  0.00    +0.000 A 
ATOM     26  C   UNL     1      -5.935  -3.788 -19.018  0.00  0.00    +0.000 A 
ATOM     27  C   UNL     1      -7.275  -3.871 -19.387  0.00  0.00    +0.000 A 
ATOM     28  C   UNL     1      -7.956  -2.714 -19.753  0.00  0.00    +0.000 A 
ATOM     29  F   UNL     1      -9.246  -2.795 -20.109  0.00  0.00    +0.000 F 
ATOM     30  C   UNL     1      -7.322  -1.475 -19.759  0.00  0.00    +0.000 A 
ATOM     31  C   UNL     1      -5.984  -1.389 -19.391  0.00  0.00    +0.000 A 
ENDBRANCH  22  25
ENDBRANCH  21  22
ENDBRANCH  17  21
ENDBRANCH   2  17
TORSDOF 8
ENDMDL
MODEL 4
REMARK VINA RESULT:      -6.6      8.336     14.073
REMARK  Name = Bicalutamide.pdbqt.pdb
REMARK  8 active torsions:
REMARK  status: ('A' for Active; 'I' for Inactive)
REMARK    1  A    between atoms: C_2  and  N_13
REMARK    2  A    between atoms: C_5  and  C_9
REMARK    3  A    between atoms: C_6  and  C_8
REMARK    4  A    between atoms: C_14  and  C_17
REMARK    5  A    between atoms: C_17  and  O_19
REMARK    6  A    between atoms: C_17  and  C_21
REMARK    7  A    between atoms: C_21  and  S_22
REMARK    8  A    between atoms: S_22  and  C_25
REMARK                            x       y       z     vdW  Elec       q    Type
REMARK                         _______ _______ _______ _____ _____    ______ ____
ROOT
ATOM      1  N   UNL     1       6.556   0.709 -18.829  0.00  0.00    +0.000 N 
ATOM      2  C   UNL     1       5.554   1.654 -18.624  0.00  0.00    +0.000 C 
ATOM      3  O   UNL     1       5.723   2.877 -18.660  0.00  0.00    +0.000 OA
ATOM      4  H   UNL     1       6.260  -0.267 -18.871  0.00  0.00    +0.000 HD
ENDROOT
BRANCH   1   5
ATOM      5  C   UNL     1       7.913   0.984 -19.064  0.00  0.00    +0.000 A 
ATOM      6  C   UNL     1       8.780   0.957 -17.972  0.00  0.00    +0.000 A 
ATOM      7  C   UNL     1       8.417   1.289 -20.324  0.00  0.00    +0.000 A 
ATOM      8  C   UNL     1      10.145   1.229 -18.121  0.00  0.00    +0.000 A 
ATOM      9  C   UNL     1      10.640   1.533 -19.398  0.00  0.00    +0.000 A 
ATOM     10  C   UNL     1       9.772   1.562 -20.491  0.00  0.00    +0.000 A 
BRANCH   8  11
ATOM     11  C   UNL     1      11.033   1.186 -16.912  0.00  0.00    +0.000 C 
ATOM     12  F   UNL     1      12.045   0.281 -17.020  0.00  0.00    +0.000 F 
ATOM     13  F   UNL     1      11.631   2.382 -16.667  0.00  0.00    +0.000 F 
ATOM     14  F   UNL     1      10.357   0.853 -15.782  0.00  0.00    +0.000 F 
ENDBRANCH   8  11
BRANCH   9  16
ATOM     15  N   UNL     1      13.145   2.041 -19.822  0.00  0.00    +0.000 NA
ATOM     16  C   UNL     1      12.022   1.821 -19.633  0.00  0.00    +0.000 C 
ENDBRANCH   9  16
ENDBRANCH   1   5
BRANCH   2  17
ATOM     17  C   UNL     1       4.127   1.061 -18.283  0.00  0.00    +0.000 C 
ATOM     18  C   UNL     1       3.094   1.397 -19.395  0.00  0.00    +0.000 C 
BRANCH  17  19
ATOM     19  O   UNL     1       3.637   1.620 -17.075  0.00  0.00    +0.000 OA
ATOM     20  H   UNL     1       3.184   0.881 -16.626  0.00  0.00    +0.000 HD
ENDBRANCH  17  19
BRANCH  17  21
ATOM     21  C   UNL     1       4.262  -0.354 -18.118  0.00  0.00    +0.000 C 
BRANCH  21  22
ATOM     22  S   UNL     1       4.445  -2.069 -18.141  0.00  0.00    +0.000 S 
ATOM     23  O   UNL     1       4.150  -2.319 -16.753  0.00  0.00    +0.000 OA
ATOM     24  O   UNL     1       5.758  -2.088 -18.738  0.00  0.00    +0.000 OA
BRANCH  22  25
ATOM     25  C   UNL     1       3.250  -2.756 -19.189  0.00  0.00    +0.000 A 
ATOM     26  C   UNL     1       1.914  -2.654 -18.815  0.00  0.00    +0.000 A 
ATOM     27  C   UNL     1       0.936  -3.219 -19.629  0.00  0.00    +0.000 A 
ATOM     28  C   UNL     1       1.314  -3.877 -20.796  0.00  0.00    +0.000 A 
ATOM     29  F   UNL     1       0.373  -4.420 -21.579  0.00  0.00    +0.000 F 
ATOM     30  C   UNL     1       2.653  -3.983 -21.162  0.00  0.00    +0.000 A 
ATOM     31  C   UNL     1       3.632  -3.420 -20.350  0.00  0.00    +0.000 A 
ENDBRANCH  22  25
ENDBRANCH  21  22
ENDBRANCH  17  21
ENDBRANCH   2  17
TORSDOF 8
ENDMDL
MODEL 5
REMARK VINA RESULT:      -6.4      6.821     13.865
REMARK  Name = Bicalutamide.pdbqt.pdb
REMARK  8 active torsions:
REMARK  status: ('A' for Active; 'I' for Inactive)
REMARK    1  A    between atoms: C_2  and  N_13
REMARK    2  A    between atoms: C_5  and  C_9
REMARK    3  A    between atoms: C_6  and  C_8
REMARK    4  A    between atoms: C_14  and  C_17
REMARK    5  A    between atoms: C_17  and  O_19
REMARK    6  A    between atoms: C_17  and  C_21
REMARK    7  A    between atoms: C_21  and  S_22
REMARK    8  A    between atoms: S_22  and  C_25
REMARK                            x       y       z     vdW  Elec       q    Type
REMARK                         _______ _______ _______ _____ _____    ______ ____
ROOT
ATOM      1  N   UNL     1       6.364   0.379 -19.171  0.00  0.00    +0.000 N 
ATOM      2  C   UNL     1       5.236   1.118 -18.823  0.00  0.00    +0.000 C 
ATOM      3  O   UNL     1       5.225   2.340 -18.642  0.00  0.00    +0.000 OA
ATOM      4  H   UNL     1       6.213  -0.607 -19.390  0.00  0.00    +0.000 HD
ENDROOT
BRANCH   1   5
ATOM      5  C   UNL     1       7.665   0.884 -19.328  0.00  0.00    +0.000 A 
ATOM      6  C   UNL     1       8.435   1.064 -18.180  0.00  0.00    +0.000 A 
ATOM      7  C   UNL     1       8.203   1.219 -20.567  0.00  0.00    +0.000 A 
ATOM      8  C   UNL     1       9.738   1.572 -18.251  0.00  0.00    +0.000 A 
ATOM      9  C   UNL     1      10.268   1.903 -19.506  0.00  0.00    +0.000 A 
ATOM     10  C   UNL     1       9.497   1.725 -20.656  0.00  0.00    +0.000 A 
BRANCH   8  11
ATOM     11  C   UNL     1      10.523   1.745 -16.984  0.00  0.00    +0.000 C 
ATOM     12  F   UNL     1      10.762   3.050 -16.674  0.00  0.00    +0.000 F 
ATOM     13  F   UNL     1       9.886   1.219 -15.904  0.00  0.00    +0.000 F 
ATOM     14  F   UNL     1      11.743   1.149 -17.043  0.00  0.00    +0.000 F 
ENDBRANCH   8  11
BRANCH   9  16
ATOM     15  N   UNL     1      12.660   2.862 -19.781  0.00  0.00    +0.000 NA
ATOM     16  C   UNL     1      11.592   2.426 -19.663  0.00  0.00    +0.000 C 
ENDBRANCH   9  16
ENDBRANCH   1   5
BRANCH   2  17
ATOM     17  C   UNL     1       3.913   0.274 -18.619  0.00  0.00    +0.000 C 
ATOM     18  C   UNL     1       3.536   0.167 -17.114  0.00  0.00    +0.000 C 
BRANCH  17  19
ATOM     19  O   UNL     1       4.094  -1.049 -19.099  0.00  0.00    +0.000 OA
ATOM     20  H   UNL     1       3.342  -1.197 -19.703  0.00  0.00    +0.000 HD
ENDBRANCH  17  19
BRANCH  17  21
ATOM     21  C   UNL     1       2.867   0.900 -19.367  0.00  0.00    +0.000 C 
BRANCH  21  22
ATOM     22  S   UNL     1       1.563   1.772 -20.084  0.00  0.00    +0.000 S 
ATOM     23  O   UNL     1       1.864   1.481 -21.463  0.00  0.00    +0.000 OA
ATOM     24  O   UNL     1       1.814   3.026 -19.416  0.00  0.00    +0.000 OA
BRANCH  22  25
ATOM     25  C   UNL     1       0.062   1.066 -19.587  0.00  0.00    +0.000 A 
ATOM     26  C   UNL     1      -1.101   1.808 -19.761  0.00  0.00    +0.000 A 
ATOM     27  C   UNL     1      -2.317   1.271 -19.348  0.00  0.00    +0.000 A 
ATOM     28  C   UNL     1      -2.344   0.006 -18.766  0.00  0.00    +0.000 A 
ATOM     29  F   UNL     1      -3.515  -0.511 -18.369  0.00  0.00    +0.000 F 
ATOM     30  C   UNL     1      -1.176  -0.730 -18.588  0.00  0.00    +0.000 A 
ATOM     31  C   UNL     1       0.040  -0.195 -18.999  0.00  0.00    +0.000 A 
ENDBRANCH  22  25
ENDBRANCH  21  22
ENDBRANCH  17  21
ENDBRANCH   2  17
TORSDOF 8
ENDMDL
MODEL 6
REMARK VINA RESULT:      -6.4      2.390      2.805
REMARK  Name = Bicalutamide.pdbqt.pdb
REMARK  8 active torsions:
REMARK  status: ('A' for Active; 'I' for Inactive)
REMARK    1  A    between atoms: C_2  and  N_13
REMARK    2  A    between atoms: C_5  and  C_9
REMARK    3  A    between atoms: C_6  and  C_8
REMARK    4  A    between atoms: C_14  and  C_17
REMARK    5  A    between atoms: C_17  and  O_19
REMARK    6  A    between atoms: C_17  and  C_21
REMARK    7  A    between atoms: C_21  and  S_22
REMARK    8  A    between atoms: S_22  and  C_25
REMARK                            x       y       z     vdW  Elec       q    Type
REMARK                         _______ _______ _______ _____ _____    ______ ____
ROOT
ATOM      1  N   UNL     1      -5.481  -1.674 -18.742  0.00  0.00    +0.000 N 
ATOM      2  C   UNL     1      -4.920  -0.430 -19.021  0.00  0.00    +0.000 C 
ATOM      3  O   UNL     1      -5.214   0.271 -19.994  0.00  0.00    +0.000 OA
ATOM      4  H   UNL     1      -5.222  -2.101 -17.851  0.00  0.00    +0.000 HD
ENDROOT
BRANCH   1   5
ATOM      5  C   UNL     1      -6.429  -2.347 -19.530  0.00  0.00    +0.000 A 
ATOM      6  C   UNL     1      -7.732  -2.437 -19.043  0.00  0.00    +0.000 A 
ATOM      7  C   UNL     1      -6.118  -2.930 -20.754  0.00  0.00    +0.000 A 
ATOM      8  C   UNL     1      -8.733  -3.100 -19.764  0.00  0.00    +0.000 A 
ATOM      9  C   UNL     1      -8.406  -3.681 -20.998  0.00  0.00    +0.000 A 
ATOM     10  C   UNL     1      -7.101  -3.593 -21.485  0.00  0.00    +0.000 A 
BRANCH   8  11
ATOM     11  C   UNL     1     -10.120  -3.167 -19.194  0.00  0.00    +0.000 C 
ATOM     12  F   UNL     1     -10.231  -2.564 -17.978  0.00  0.00    +0.000 F 
ATOM     13  F   UNL     1     -11.037  -2.562 -19.994  0.00  0.00    +0.000 F 
ATOM     14  F   UNL     1     -10.545  -4.445 -19.014  0.00  0.00    +0.000 F 
ENDBRANCH   8  11
BRANCH   9  16
ATOM     15  N   UNL     1     -10.144  -4.946 -22.445  0.00  0.00    +0.000 NA
ATOM     16  C   UNL     1      -9.372  -4.375 -21.795  0.00  0.00    +0.000 C 
ENDBRANCH   9  16
ENDBRANCH   1   5
BRANCH   2  17
ATOM     17  C   UNL     1      -3.801   0.047 -18.009  0.00  0.00    +0.000 C 
ATOM     18  C   UNL     1      -3.836  -0.782 -16.694  0.00  0.00    +0.000 C 
BRANCH  17  19
ATOM     19  O   UNL     1      -4.006   1.405 -17.653  0.00  0.00    +0.000 OA
ATOM     20  H   UNL     1      -3.385   1.564 -16.918  0.00  0.00    +0.000 HD
ENDBRANCH  17  19
BRANCH  17  21
ATOM     21  C   UNL     1      -2.532  -0.075 -18.659  0.00  0.00    +0.000 C 
BRANCH  21  22
ATOM     22  S   UNL     1      -1.090  -0.401 -19.547  0.00  0.00    +0.000 S 
ATOM     23  O   UNL     1      -1.673  -1.217 -20.581  0.00  0.00    +0.000 OA
ATOM     24  O   UNL     1      -0.313  -0.885 -18.432  0.00  0.00    +0.000 OA
BRANCH  22  25
ATOM     25  C   UNL     1      -0.460   1.085 -20.176  0.00  0.00    +0.000 A 
ATOM     26  C   UNL     1      -1.032   2.276 -19.742  0.00  0.00    +0.000 A 
ATOM     27  C   UNL     1      -0.558   3.482 -20.250  0.00  0.00    +0.000 A 
ATOM     28  C   UNL     1       0.474   3.472 -21.185  0.00  0.00    +0.000 A 
ATOM     29  F   UNL     1       0.930   4.633 -21.674  0.00  0.00    +0.000 F 
ATOM     30  C   UNL     1       1.039   2.277 -21.622  0.00  0.00    +0.000 A 
ATOM     31  C   UNL     1       0.567   1.070 -21.115  0.00  0.00    +0.000 A 
ENDBRANCH  22  25
ENDBRANCH  21  22
ENDBRANCH  17  21
ENDBRANCH   2  17
TORSDOF 8
ENDMDL
MODEL 7
REMARK VINA RESULT:      -6.4      1.489      1.991
REMARK  Name = Bicalutamide.pdbqt.pdb
REMARK  8 active torsions:
REMARK  status: ('A' for Active; 'I' for Inactive)
REMARK    1  A    between atoms: C_2  and  N_13
REMARK    2  A    between atoms: C_5  and  C_9
REMARK    3  A    between atoms: C_6  and  C_8
REMARK    4  A    between atoms: C_14  and  C_17
REMARK    5  A    between atoms: C_17  and  O_19
REMARK    6  A    between atoms: C_17  and  C_21
REMARK    7  A    between atoms: C_21  and  S_22
REMARK    8  A    between atoms: S_22  and  C_25
REMARK                            x       y       z     vdW  Elec       q    Type
REMARK                         _______ _______ _______ _____ _____    ______ ____
ROOT
ATOM      1  N   UNL     1      -5.354  -1.632 -18.903  0.00  0.00    +0.000 N 
ATOM      2  C   UNL     1      -4.836  -0.370 -19.186  0.00  0.00    +0.000 C 
ATOM      3  O   UNL     1      -5.205   0.348 -20.121  0.00  0.00    +0.000 OA
ATOM      4  H   UNL     1      -5.030  -2.074 -18.042  0.00  0.00    +0.000 HD
ENDROOT
BRANCH   1   5
ATOM      5  C   UNL     1      -6.334  -2.307 -19.648  0.00  0.00    +0.000 A 
ATOM      6  C   UNL     1      -7.619  -2.384 -19.111  0.00  0.00    +0.000 A 
ATOM      7  C   UNL     1      -6.074  -2.904 -20.877  0.00  0.00    +0.000 A 
ATOM      8  C   UNL     1      -8.650  -3.047 -19.786  0.00  0.00    +0.000 A 
ATOM      9  C   UNL     1      -8.375  -3.643 -21.026  0.00  0.00    +0.000 A 
ATOM     10  C   UNL     1      -7.088  -3.569 -21.563  0.00  0.00    +0.000 A 
BRANCH   8  11
ATOM     11  C   UNL     1     -10.015  -3.099 -19.164  0.00  0.00    +0.000 C 
ATOM     12  F   UNL     1     -10.982  -2.536 -19.940  0.00  0.00    +0.000 F 
ATOM     13  F   UNL     1     -10.426  -4.373 -18.925  0.00  0.00    +0.000 F 
ATOM     14  F   UNL     1     -10.068  -2.446 -17.973  0.00  0.00    +0.000 F 
ENDBRANCH   8  11
BRANCH   9  16
ATOM     15  N   UNL     1     -10.179  -4.915 -22.382  0.00  0.00    +0.000 NA
ATOM     16  C   UNL     1      -9.374  -4.339 -21.778  0.00  0.00    +0.000 C 
ENDBRANCH   9  16
ENDBRANCH   1   5
BRANCH   2  17
ATOM     17  C   UNL     1      -3.666   0.108 -18.233  0.00  0.00    +0.000 C 
ATOM     18  C   UNL     1      -3.239  -1.020 -17.252  0.00  0.00    +0.000 C 
BRANCH  17  19
ATOM     19  O   UNL     1      -4.091   1.209 -17.446  0.00  0.00    +0.000 OA
ATOM     20  H   UNL     1      -3.406   1.298 -16.756  0.00  0.00    +0.000 HD
ENDBRANCH  17  19
BRANCH  17  21
ATOM     21  C   UNL     1      -2.568   0.520 -19.052  0.00  0.00    +0.000 C 
BRANCH  21  22
ATOM     22  S   UNL     1      -1.113   0.963 -19.866  0.00  0.00    +0.000 S 
ATOM     23  O   UNL     1      -0.888   2.221 -19.200  0.00  0.00    +0.000 OA
ATOM     24  O   UNL     1      -1.616   0.801 -21.208  0.00  0.00    +0.000 OA
BRANCH  22  25
ATOM     25  C   UNL     1       0.122  -0.193 -19.496  0.00  0.00    +0.000 A 
ATOM     26  C   UNL     1      -0.155  -1.539 -19.707  0.00  0.00    +0.000 A 
ATOM     27  C   UNL     1       0.813  -2.489 -19.396  0.00  0.00    +0.000 A 
ATOM     28  C   UNL     1       2.036  -2.074 -18.876  0.00  0.00    +0.000 A 
ATOM     29  F   UNL     1       2.968  -2.989 -18.576  0.00  0.00    +0.000 F 
ATOM     30  C   UNL     1       2.307  -0.726 -18.659  0.00  0.00    +0.000 A 
ATOM     31  C   UNL     1       1.341   0.225 -18.970  0.00  0.00    +0.000 A 
ENDBRANCH  22  25
ENDBRANCH  21  22
ENDBRANCH  17  21
ENDBRANCH   2  17
TORSDOF 8
ENDMDL
MODEL 8
REMARK VINA RESULT:      -6.3      4.329      7.988
REMARK  Name = Bicalutamide.pdbqt.pdb
REMARK  8 active torsions:
REMARK  status: ('A' for Active; 'I' for Inactive)
REMARK    1  A    between atoms: C_2  and  N_13
REMARK    2  A    between atoms: C_5  and  C_9
REMARK    3  A    between atoms: C_6  and  C_8
REMARK    4  A    between atoms: C_14  and  C_17
REMARK    5  A    between atoms: C_17  and  O_19
REMARK    6  A    between atoms: C_17  and  C_21
REMARK    7  A    between atoms: C_21  and  S_22
REMARK    8  A    between atoms: S_22  and  C_25
REMARK                            x       y       z     vdW  Elec       q    Type
REMARK                         _______ _______ _______ _____ _____    ______ ____
ROOT
ATOM      1  N   UNL     1      -0.345  -0.123 -20.881  0.00  0.00    +0.000 N 
ATOM      2  C   UNL     1      -0.121   0.991 -20.077  0.00  0.00    +0.000 C 
ATOM      3  O   UNL     1       0.817   1.106 -19.281  0.00  0.00    +0.000 OA
ATOM      4  H   UNL     1      -1.098  -0.046 -21.566  0.00  0.00    +0.000 HD
ENDROOT
BRANCH   1   5
ATOM      5  C   UNL     1       0.419  -1.301 -20.891  0.00  0.00    +0.000 A 
ATOM      6  C   UNL     1      -0.084  -2.408 -20.207  0.00  0.00    +0.000 A 
ATOM      7  C   UNL     1       1.648  -1.402 -21.536  0.00  0.00    +0.000 A 
ATOM      8  C   UNL     1       0.622  -3.616 -20.161  0.00  0.00    +0.000 A 
ATOM      9  C   UNL     1       1.858  -3.704 -20.818  0.00  0.00    +0.000 A 
ATOM     10  C   UNL     1       2.364  -2.596 -21.501  0.00  0.00    +0.000 A 
BRANCH   8  11
ATOM     11  C   UNL     1       0.035  -4.776 -19.411  0.00  0.00    +0.000 C 
ATOM     12  F   UNL     1       0.840  -5.233 -18.413  0.00  0.00    +0.000 F 
ATOM     13  F   UNL     1      -1.149  -4.463 -18.820  0.00  0.00    +0.000 F 
ATOM     14  F   UNL     1      -0.204  -5.846 -20.214  0.00  0.00    +0.000 F 
ENDBRANCH   8  11
BRANCH   9  16
ATOM     15  N   UNL     1       3.283  -5.868 -20.809  0.00  0.00    +0.000 NA
ATOM     16  C   UNL     1       2.640  -4.903 -20.818  0.00  0.00    +0.000 C 
ENDBRANCH   9  16
ENDBRANCH   1   5
BRANCH   2  17
ATOM     17  C   UNL     1      -1.200   2.142 -20.203  0.00  0.00    +0.000 C 
ATOM     18  C   UNL     1      -0.883   3.086 -21.398  0.00  0.00    +0.000 C 
BRANCH  17  19
ATOM     19  O   UNL     1      -1.207   2.940 -19.030  0.00  0.00    +0.000 OA
ATOM     20  H   UNL     1      -2.033   3.457 -19.089  0.00  0.00    +0.000 HD
ENDBRANCH  17  19
BRANCH  17  21
ATOM     21  C   UNL     1      -2.484   1.532 -20.358  0.00  0.00    +0.000 C 
BRANCH  21  22
ATOM     22  S   UNL     1      -3.958   0.637 -20.407  0.00  0.00    +0.000 S 
ATOM     23  O   UNL     1      -3.572  -0.326 -21.407  0.00  0.00    +0.000 OA
ATOM     24  O   UNL     1      -4.831   1.765 -20.619  0.00  0.00    +0.000 OA
BRANCH  22  25
ATOM     25  C   UNL     1      -4.226  -0.106 -18.866  0.00  0.00    +0.000 A 
ATOM     26  C   UNL     1      -3.652   0.485 -17.745  0.00  0.00    +0.000 A 
ATOM     27  C   UNL     1      -3.834  -0.106 -16.498  0.00  0.00    +0.000 A 
ATOM     28  C   UNL     1      -4.580  -1.277 -16.398  0.00  0.00    +0.000 A 
ATOM     29  F   UNL     1      -4.755  -1.845 -15.197  0.00  0.00    +0.000 F 
ATOM     30  C   UNL     1      -5.147  -1.869 -17.524  0.00  0.00    +0.000 A 
ATOM     31  C   UNL     1      -4.966  -1.280 -18.771  0.00  0.00    +0.000 A 
ENDBRANCH  22  25
ENDBRANCH  21  22
ENDBRANCH  17  21
ENDBRANCH   2  17
TORSDOF 8
ENDMDL
MODEL 9
REMARK VINA RESULT:      -6.2      4.822      6.809
REMARK  Name = Bicalutamide.pdbqt.pdb
REMARK  8 active torsions:
REMARK  status: ('A' for Active; 'I' for Inactive)
REMARK    1  A    between atoms: C_2  and  N_13
REMARK    2  A    between atoms: C_5  and  C_9
REMARK    3  A    between atoms: C_6  and  C_8
REMARK    4  A    between atoms: C_14  and  C_17
REMARK    5  A    between atoms: C_17  and  O_19
REMARK    6  A    between atoms: C_17  and  C_21
REMARK    7  A    between atoms: C_21  and  S_22
REMARK    8  A    between atoms: S_22  and  C_25
REMARK                            x       y       z     vdW  Elec       q    Type
REMARK                         _______ _______ _______ _____ _____    ______ ____
ROOT
ATOM      1  N   UNL     1       0.954  -0.574 -18.493  0.00  0.00    +0.000 N 
ATOM      2  C   UNL     1       1.716   0.437 -19.074  0.00  0.00    +0.000 C 
ATOM      3  O   UNL     1       1.362   1.114 -20.045  0.00  0.00    +0.000 OA
ATOM      4  H   UNL     1       1.322  -0.985 -17.635  0.00  0.00    +0.000 HD
ENDROOT
BRANCH   1   5
ATOM      5  C   UNL     1      -0.305  -1.015 -18.934  0.00  0.00    +0.000 A 
ATOM      6  C   UNL     1      -1.434  -0.471 -18.323  0.00  0.00    +0.000 A 
ATOM      7  C   UNL     1      -0.465  -1.970 -19.933  0.00  0.00    +0.000 A 
ATOM      8  C   UNL     1      -2.724  -0.865 -18.699  0.00  0.00    +0.000 A 
ATOM      9  C   UNL     1      -2.871  -1.827 -19.709  0.00  0.00    +0.000 A 
ATOM     10  C   UNL     1      -1.741  -2.374 -20.319  0.00  0.00    +0.000 A 
BRANCH   8  11
ATOM     11  C   UNL     1      -3.905  -0.247 -18.009  0.00  0.00    +0.000 C 
ATOM     12  F   UNL     1      -3.558   0.683 -17.077  0.00  0.00    +0.000 F 
ATOM     13  F   UNL     1      -4.736   0.389 -18.877  0.00  0.00    +0.000 F 
ATOM     14  F   UNL     1      -4.662  -1.166 -17.352  0.00  0.00    +0.000 F 
ENDBRANCH   8  11
BRANCH   9  16
ATOM     15  N   UNL     1      -5.197  -2.638 -20.513  0.00  0.00    +0.000 NA
ATOM     16  C   UNL     1      -4.155  -2.282 -20.149  0.00  0.00    +0.000 C 
ENDBRANCH   9  16
ENDBRANCH   1   5
BRANCH   2  17
ATOM     17  C   UNL     1       3.143   0.661 -18.429  0.00  0.00    +0.000 C 
ATOM     18  C   UNL     1       3.411  -0.353 -17.281  0.00  0.00    +0.000 C 
BRANCH  17  19
ATOM     19  O   UNL     1       3.231   1.961 -17.868  0.00  0.00    +0.000 OA
ATOM     20  H   UNL     1       4.024   2.354 -18.281  0.00  0.00    +0.000 HD
ENDBRANCH  17  19
BRANCH  17  21
ATOM     21  C   UNL     1       4.123   0.535 -19.464  0.00  0.00    +0.000 C 
BRANCH  21  22
ATOM     22  S   UNL     1       5.411   0.550 -20.611  0.00  0.00    +0.000 S 
ATOM     23  O   UNL     1       4.754   1.320 -21.637  0.00  0.00    +0.000 OA
ATOM     24  O   UNL     1       5.627  -0.876 -20.639  0.00  0.00    +0.000 OA
BRANCH  22  25
ATOM     25  C   UNL     1       6.765   1.394 -19.937  0.00  0.00    +0.000 A 
ATOM     26  C   UNL     1       7.634   2.041 -20.809  0.00  0.00    +0.000 A 
ATOM     27  C   UNL     1       8.743   2.707 -20.293  0.00  0.00    +0.000 A 
ATOM     28  C   UNL     1       8.960   2.708 -18.918  0.00  0.00    +0.000 A 
ATOM     29  F   UNL     1      10.027   3.349 -18.422  0.00  0.00    +0.000 F 
ATOM     30  C   UNL     1       8.091   2.053 -18.050  0.00  0.00    +0.000 A 
ATOM     31  C   UNL     1       6.983   1.387 -18.563  0.00  0.00    +0.000 A 
ENDBRANCH  22  25
ENDBRANCH  21  22
ENDBRANCH  17  21
ENDBRANCH   2  17
TORSDOF 8
ENDMDL
