MODEL 1
REMARK VINA RESULT:      -6.2      0.000      0.000
REMARK  Name = BX795.pdbqt.pdb
REMARK  7 active torsions:
REMARK  status: ('A' for Active; 'I' for Inactive)
REMARK    1  A    between atoms: C_4  and  N_25
REMARK    2  A    between atoms: N_8  and  C_10
REMARK    3  A    between atoms: C_12  and  N_16
REMARK    4  A    between atoms: N_25  and  C_27
REMARK    5  A    between atoms: C_27  and  C_28
REMARK    6  A    between atoms: C_29  and  N_30
REMARK    7  A    between atoms: C_31  and  C_34
REMARK                            x       y       z     vdW  Elec       q    Type
REMARK                         _______ _______ _______ _____ _____    ______ ____
ROOT
ATOM      1  I   UNL     1       7.572   3.687 -25.417  0.00  0.00    +0.000 I 
ATOM      2  N   UNL     1       5.842   1.703 -21.986  0.00  0.00    +0.000 NA
ATOM      3  N   UNL     1       8.084   2.176 -21.446  0.00  0.00    +0.000 NA
ATOM      4  C   UNL     1       5.993   2.233 -23.218  0.00  0.00    +0.000 A 
ATOM      5  C   UNL     1       6.881   1.684 -21.138  0.00  0.00    +0.000 A 
ATOM      6  C   UNL     1       7.192   2.806 -23.593  0.00  0.00    +0.000 A 
ATOM      7  C   UNL     1       8.200   2.739 -22.663  0.00  0.00    +0.000 A 
ATOM      8  N   UNL     1       6.755   1.093 -19.885  0.00  0.00    +0.000 N 
ATOM      9  H   UNL     1       7.634   1.087 -19.389  0.00  0.00    +0.000 HD
ENDROOT
BRANCH   8  10
ATOM     10  C   UNL     1       5.608   0.710 -19.179  0.00  0.00    +0.000 A 
ATOM     11  C   UNL     1       4.963  -0.510 -19.402  0.00  0.00    +0.000 A 
ATOM     12  C   UNL     1       3.881  -0.926 -18.628  0.00  0.00    +0.000 A 
ATOM     13  C   UNL     1       3.445  -0.118 -17.583  0.00  0.00    +0.000 A 
ATOM     14  C   UNL     1       4.077   1.097 -17.331  0.00  0.00    +0.000 A 
ATOM     15  C   UNL     1       5.151   1.503 -18.123  0.00  0.00    +0.000 A 
BRANCH  12  16
ATOM     16  N   UNL     1       3.256  -2.135 -18.982  0.00  0.00    +0.000 N 
ATOM     17  C   UNL     1       1.894  -2.374 -18.998  0.00  0.00    +0.000 C 
ATOM     18  O   UNL     1       1.050  -1.589 -18.566  0.00  0.00    +0.000 OA
ATOM     19  N   UNL     1       1.551  -3.617 -19.529  0.00  0.00    +0.000 N 
ATOM     20  C   UNL     1       2.297  -4.640 -20.032  0.00  0.00    +0.000 A 
ATOM     21  C   UNL     1       0.313  -4.165 -19.682  0.00  0.00    +0.000 A 
ATOM     22  C   UNL     1       1.621  -5.921 -20.534  0.00  0.00    +0.000 A 
ATOM     23  C   UNL     1       0.149  -5.569 -20.275  0.00  0.00    +0.000 A 
ATOM     24  H   UNL     1       3.867  -2.920 -19.171  0.00  0.00    +0.000 HD
ENDBRANCH  12  16
ENDBRANCH   8  10
BRANCH   4  25
ATOM     25  N   UNL     1       4.875   2.251 -24.092  0.00  0.00    +0.000 N 
ATOM     26  H   UNL     1       5.020   1.585 -24.848  0.00  0.00    +0.000 HD
BRANCH  25  27
ATOM     27  C   UNL     1       3.564   2.162 -23.454  0.00  0.00    +0.000 C 
BRANCH  27  28
ATOM     28  C   UNL     1       2.145   2.073 -22.883  0.00  0.00    +0.000 C 
ATOM     29  C   UNL     1       0.754   1.907 -22.265  0.00  0.00    +0.000 C 
BRANCH  29  30
ATOM     30  N   UNL     1      -0.451   1.737 -21.675  0.00  0.00    +0.000 N 
ATOM     31  C   UNL     1      -0.740   1.504 -20.338  0.00  0.00    +0.000 C 
ATOM     32  O   UNL     1       0.154   1.455 -19.494  0.00  0.00    +0.000 OA
ATOM     33  H   UNL     1      -1.223   1.722 -22.331  0.00  0.00    +0.000 HD
BRANCH  31  34
ATOM     34  C   UNL     1      -2.149   1.308 -20.041  0.00  0.00    +0.000 A 
ATOM     35  S   UNL     1      -2.628   0.720 -18.496  0.00  0.00    +0.000 S 
ATOM     36  C   UNL     1      -4.265   0.753 -18.932  0.00  0.00    +0.000 A 
ATOM     37  C   UNL     1      -4.474   1.197 -20.208  0.00  0.00    +0.000 A 
ATOM     38  C   UNL     1      -3.253   1.516 -20.843  0.00  0.00    +0.000 A 
ENDBRANCH  31  34
ENDBRANCH  29  30
ENDBRANCH  27  28
ENDBRANCH  25  27
ENDBRANCH   4  25
TORSDOF 7
ENDMDL
MODEL 2
REMARK VINA RESULT:      -5.5     10.219     15.067
REMARK  Name = BX795.pdbqt.pdb
REMARK  7 active torsions:
REMARK  status: ('A' for Active; 'I' for Inactive)
REMARK    1  A    between atoms: C_4  and  N_25
REMARK    2  A    between atoms: N_8  and  C_10
REMARK    3  A    between atoms: C_12  and  N_16
REMARK    4  A    between atoms: N_25  and  C_27
REMARK    5  A    between atoms: C_27  and  C_28
REMARK    6  A    between atoms: C_29  and  N_30
REMARK    7  A    between atoms: C_31  and  C_34
REMARK                            x       y       z     vdW  Elec       q    Type
REMARK                         _______ _______ _______ _____ _____    ______ ____
ROOT
ATOM      1  I   UNL     1     -13.432  -3.785 -28.613  0.00  0.00    +0.000 I 
ATOM      2  N   UNL     1     -12.309  -0.718 -25.777  0.00  0.00    +0.000 NA
ATOM      3  N   UNL     1     -14.574  -0.364 -26.309  0.00  0.00    +0.000 NA
ATOM      4  C   UNL     1     -12.239  -1.766 -26.625  0.00  0.00    +0.000 A 
ATOM      5  C   UNL     1     -13.462  -0.046 -25.642  0.00  0.00    +0.000 A 
ATOM      6  C   UNL     1     -13.360  -2.186 -27.313  0.00  0.00    +0.000 A 
ATOM      7  C   UNL     1     -14.495  -1.438 -27.115  0.00  0.00    +0.000 A 
ATOM      8  N   UNL     1     -13.532   1.068 -24.812  0.00  0.00    +0.000 N 
ATOM      9  H   UNL     1     -14.436   1.513 -24.868  0.00  0.00    +0.000 HD
ENDROOT
BRANCH   8  10
ATOM     10  C   UNL     1     -12.649   1.513 -23.822  0.00  0.00    +0.000 A 
ATOM     11  C   UNL     1     -12.184   0.677 -22.802  0.00  0.00    +0.000 A 
ATOM     12  C   UNL     1     -11.229   1.100 -21.878  0.00  0.00    +0.000 A 
ATOM     13  C   UNL     1     -10.701   2.382 -21.988  0.00  0.00    +0.000 A 
ATOM     14  C   UNL     1     -11.138   3.231 -23.001  0.00  0.00    +0.000 A 
ATOM     15  C   UNL     1     -12.103   2.796 -23.910  0.00  0.00    +0.000 A 
BRANCH  12  16
ATOM     16  N   UNL     1     -10.883   0.208 -20.848  0.00  0.00    +0.000 N 
ATOM     17  C   UNL     1     -11.209   0.343 -19.510  0.00  0.00    +0.000 C 
ATOM     18  O   UNL     1     -11.732   1.345 -19.024  0.00  0.00    +0.000 OA
ATOM     19  N   UNL     1     -10.861  -0.764 -18.736  0.00  0.00    +0.000 N 
ATOM     20  C   UNL     1     -10.262  -1.949 -19.042  0.00  0.00    +0.000 A 
ATOM     21  C   UNL     1     -11.031  -0.954 -17.397  0.00  0.00    +0.000 A 
ATOM     22  C   UNL     1      -9.986  -2.985 -17.947  0.00  0.00    +0.000 A 
ATOM     23  C   UNL     1     -10.556  -2.248 -16.726  0.00  0.00    +0.000 A 
ATOM     24  H   UNL     1     -10.279  -0.565 -21.103  0.00  0.00    +0.000 HD
ENDBRANCH  12  16
ENDBRANCH   8  10
BRANCH   4  25
ATOM     25  N   UNL     1     -11.012  -2.467 -26.741  0.00  0.00    +0.000 N 
ATOM     26  H   UNL     1     -10.545  -2.200 -27.606  0.00  0.00    +0.000 HD
BRANCH  25  27
ATOM     27  C   UNL     1     -10.151  -2.447 -25.562  0.00  0.00    +0.000 C 
BRANCH  27  28
ATOM     28  C   UNL     1      -9.191  -2.349 -24.372  0.00  0.00    +0.000 C 
ATOM     29  C   UNL     1      -8.306  -2.248 -23.126  0.00  0.00    +0.000 C 
BRANCH  29  30
ATOM     30  N   UNL     1      -7.565  -2.183 -21.997  0.00  0.00    +0.000 N 
ATOM     31  C   UNL     1      -7.345  -1.098 -21.161  0.00  0.00    +0.000 C 
ATOM     32  O   UNL     1      -7.875  -0.009 -21.380  0.00  0.00    +0.000 OA
ATOM     33  H   UNL     1      -7.067  -3.041 -21.792  0.00  0.00    +0.000 HD
BRANCH  31  34
ATOM     34  C   UNL     1      -6.443  -1.353 -20.051  0.00  0.00    +0.000 A 
ATOM     35  S   UNL     1      -4.999  -0.430 -19.887  0.00  0.00    +0.000 S 
ATOM     36  C   UNL     1      -4.549  -1.282 -18.493  0.00  0.00    +0.000 A 
ATOM     37  C   UNL     1      -5.451  -2.245 -18.135  0.00  0.00    +0.000 A 
ATOM     38  C   UNL     1      -6.539  -2.282 -19.035  0.00  0.00    +0.000 A 
ENDBRANCH  31  34
ENDBRANCH  29  30
ENDBRANCH  27  28
ENDBRANCH  25  27
ENDBRANCH   4  25
TORSDOF 7
ENDMDL
MODEL 3
REMARK VINA RESULT:      -5.5     21.962     23.841
REMARK  Name = BX795.pdbqt.pdb
REMARK  7 active torsions:
REMARK  status: ('A' for Active; 'I' for Inactive)
REMARK    1  A    between atoms: C_4  and  N_25
REMARK    2  A    between atoms: N_8  and  C_10
REMARK    3  A    between atoms: C_12  and  N_16
REMARK    4  A    between atoms: N_25  and  C_27
REMARK    5  A    between atoms: C_27  and  C_28
REMARK    6  A    between atoms: C_29  and  N_30
REMARK    7  A    between atoms: C_31  and  C_34
REMARK                            x       y       z     vdW  Elec       q    Type
REMARK                         _______ _______ _______ _____ _____    ______ ____
ROOT
ATOM      1  I   UNL     1      10.121  -2.582   4.238  0.00  0.00    +0.000 I 
ATOM      2  N   UNL     1       9.063   1.153   2.330  0.00  0.00    +0.000 NA
ATOM      3  N   UNL     1      10.825   0.220   1.080  0.00  0.00    +0.000 NA
ATOM      4  C   UNL     1       9.097   0.126   3.206  0.00  0.00    +0.000 A 
ATOM      5  C   UNL     1       9.922   1.177   1.300  0.00  0.00    +0.000 A 
ATOM      6  C   UNL     1       9.970  -0.927   3.018  0.00  0.00    +0.000 A 
ATOM      7  C   UNL     1      10.812  -0.816   1.939  0.00  0.00    +0.000 A 
ATOM      8  N   UNL     1       9.933   2.255   0.421  0.00  0.00    +0.000 N 
ATOM      9  H   UNL     1      10.677   2.172  -0.255  0.00  0.00    +0.000 HD
ENDROOT
BRANCH   8  10
ATOM     10  C   UNL     1       8.993   3.275   0.231  0.00  0.00    +0.000 A 
ATOM     11  C   UNL     1       7.619   3.066   0.384  0.00  0.00    +0.000 A 
ATOM     12  C   UNL     1       6.698   4.108   0.289  0.00  0.00    +0.000 A 
ATOM     13  C   UNL     1       7.158   5.401   0.064  0.00  0.00    +0.000 A 
ATOM     14  C   UNL     1       8.522   5.639  -0.081  0.00  0.00    +0.000 A 
ATOM     15  C   UNL     1       9.430   4.583   0.005  0.00  0.00    +0.000 A 
BRANCH  12  16
ATOM     16  N   UNL     1       5.334   3.779   0.384  0.00  0.00    +0.000 N 
ATOM     17  C   UNL     1       4.809   2.504   0.494  0.00  0.00    +0.000 C 
ATOM     18  O   UNL     1       5.471   1.472   0.381  0.00  0.00    +0.000 OA
ATOM     19  N   UNL     1       3.433   2.483   0.718  0.00  0.00    +0.000 N 
ATOM     20  C   UNL     1       2.507   3.475   0.848  0.00  0.00    +0.000 A 
ATOM     21  C   UNL     1       2.610   1.407   0.863  0.00  0.00    +0.000 A 
ATOM     22  C   UNL     1       1.030   3.134   1.072  0.00  0.00    +0.000 A 
ATOM     23  C   UNL     1       1.105   1.600   1.084  0.00  0.00    +0.000 A 
ATOM     24  H   UNL     1       4.677   4.545   0.291  0.00  0.00    +0.000 HD
ENDBRANCH  12  16
ENDBRANCH   8  10
BRANCH   4  25
ATOM     25  N   UNL     1       8.171   0.118   4.281  0.00  0.00    +0.000 N 
ATOM     26  H   UNL     1       8.673   0.127   5.166  0.00  0.00    +0.000 HD
BRANCH  25  27
ATOM     27  C   UNL     1       7.084   1.090   4.194  0.00  0.00    +0.000 C 
BRANCH  27  28
ATOM     28  C   UNL     1       5.992   2.165   4.183  0.00  0.00    +0.000 C 
ATOM     29  C   UNL     1       4.968   3.303   4.192  0.00  0.00    +0.000 C 
BRANCH  29  30
ATOM     30  N   UNL     1       4.104   4.343   4.184  0.00  0.00    +0.000 N 
ATOM     31  C   UNL     1       3.116   4.661   5.105  0.00  0.00    +0.000 C 
ATOM     32  O   UNL     1       2.944   3.977   6.114  0.00  0.00    +0.000 OA
ATOM     33  H   UNL     1       4.170   4.916   3.351  0.00  0.00    +0.000 HD
BRANCH  31  34
ATOM     34  C   UNL     1       2.317   5.826   4.767  0.00  0.00    +0.000 A 
ATOM     35  S   UNL     1       2.530   7.297   5.636  0.00  0.00    +0.000 S 
ATOM     36  C   UNL     1       1.326   8.071   4.730  0.00  0.00    +0.000 A 
ATOM     37  C   UNL     1       0.761   7.262   3.783  0.00  0.00    +0.000 A 
ATOM     38  C   UNL     1       1.335   5.971   3.809  0.00  0.00    +0.000 A 
ENDBRANCH  31  34
ENDBRANCH  29  30
ENDBRANCH  27  28
ENDBRANCH  25  27
ENDBRANCH   4  25
TORSDOF 7
ENDMDL
MODEL 4
REMARK VINA RESULT:      -5.4      3.998      6.353
REMARK  Name = BX795.pdbqt.pdb
REMARK  7 active torsions:
REMARK  status: ('A' for Active; 'I' for Inactive)
REMARK    1  A    between atoms: C_4  and  N_25
REMARK    2  A    between atoms: N_8  and  C_10
REMARK    3  A    between atoms: C_12  and  N_16
REMARK    4  A    between atoms: N_25  and  C_27
REMARK    5  A    between atoms: C_27  and  C_28
REMARK    6  A    between atoms: C_29  and  N_30
REMARK    7  A    between atoms: C_31  and  C_34
REMARK                            x       y       z     vdW  Elec       q    Type
REMARK                         _______ _______ _______ _____ _____    ______ ____
ROOT
ATOM      1  I   UNL     1       1.606  -7.659 -23.007  0.00  0.00    +0.000 I 
ATOM      2  N   UNL     1       2.446  -4.269 -20.457  0.00  0.00    +0.000 NA
ATOM      3  N   UNL     1       4.502  -4.971 -21.363  0.00  0.00    +0.000 NA
ATOM      4  C   UNL     1       1.789  -5.262 -21.093  0.00  0.00    +0.000 A 
ATOM      5  C   UNL     1       3.774  -4.150 -20.602  0.00  0.00    +0.000 A 
ATOM      6  C   UNL     1       2.465  -6.121 -21.936  0.00  0.00    +0.000 A 
ATOM      7  C   UNL     1       3.821  -5.926 -22.023  0.00  0.00    +0.000 A 
ATOM      8  N   UNL     1       4.471  -3.165 -19.910  0.00  0.00    +0.000 N 
ATOM      9  H   UNL     1       5.466  -3.243 -20.059  0.00  0.00    +0.000 HD
ENDROOT
BRANCH   8  10
ATOM     10  C   UNL     1       4.001  -2.029 -19.240  0.00  0.00    +0.000 A 
ATOM     11  C   UNL     1       3.199  -1.069 -19.864  0.00  0.00    +0.000 A 
ATOM     12  C   UNL     1       2.655   0.007 -19.164  0.00  0.00    +0.000 A 
ATOM     13  C   UNL     1       2.892   0.117 -17.798  0.00  0.00    +0.000 A 
ATOM     14  C   UNL     1       3.678  -0.832 -17.150  0.00  0.00    +0.000 A 
ATOM     15  C   UNL     1       4.225  -1.896 -17.867  0.00  0.00    +0.000 A 
BRANCH  12  16
ATOM     16  N   UNL     1       1.923   0.957 -19.900  0.00  0.00    +0.000 N 
ATOM     17  C   UNL     1       0.572   1.224 -19.768  0.00  0.00    +0.000 C 
ATOM     18  O   UNL     1      -0.200   0.560 -19.078  0.00  0.00    +0.000 OA
ATOM     19  N   UNL     1       0.143   2.316 -20.523  0.00  0.00    +0.000 N 
ATOM     20  C   UNL     1       0.796   3.167 -21.364  0.00  0.00    +0.000 A 
ATOM     21  C   UNL     1      -1.111   2.838 -20.628  0.00  0.00    +0.000 A 
ATOM     22  C   UNL     1       0.034   4.285 -22.083  0.00  0.00    +0.000 A 
ATOM     23  C   UNL     1      -1.381   4.042 -21.537  0.00  0.00    +0.000 A 
ATOM     24  H   UNL     1       2.421   1.434 -20.641  0.00  0.00    +0.000 HD
ENDBRANCH  12  16
ENDBRANCH   8  10
BRANCH   4  25
ATOM     25  N   UNL     1       0.383  -5.359 -20.932  0.00  0.00    +0.000 N 
ATOM     26  H   UNL     1       0.170  -5.805 -20.042  0.00  0.00    +0.000 HD
BRANCH  25  27
ATOM     27  C   UNL     1      -0.375  -4.138 -21.191  0.00  0.00    +0.000 C 
BRANCH  27  28
ATOM     28  C   UNL     1      -1.148  -2.826 -21.361  0.00  0.00    +0.000 C 
ATOM     29  C   UNL     1      -1.998  -1.567 -21.548  0.00  0.00    +0.000 C 
BRANCH  29  30
ATOM     30  N   UNL     1      -2.793  -0.483 -21.695  0.00  0.00    +0.000 N 
ATOM     31  C   UNL     1      -3.033   0.273 -22.834  0.00  0.00    +0.000 C 
ATOM     32  O   UNL     1      -2.517  -0.021 -23.912  0.00  0.00    +0.000 OA
ATOM     33  H   UNL     1      -3.210  -0.167 -20.827  0.00  0.00    +0.000 HD
BRANCH  31  34
ATOM     34  C   UNL     1      -3.904   1.419 -22.637  0.00  0.00    +0.000 A 
ATOM     35  S   UNL     1      -4.767   1.597 -21.158  0.00  0.00    +0.000 S 
ATOM     36  C   UNL     1      -5.493   3.032 -21.692  0.00  0.00    +0.000 A 
ATOM     37  C   UNL     1      -5.108   3.394 -22.953  0.00  0.00    +0.000 A 
ATOM     38  C   UNL     1      -4.193   2.462 -23.492  0.00  0.00    +0.000 A 
ENDBRANCH  31  34
ENDBRANCH  29  30
ENDBRANCH  27  28
ENDBRANCH  25  27
ENDBRANCH   4  25
TORSDOF 7
ENDMDL
MODEL 5
REMARK VINA RESULT:      -5.4      4.396      8.361
REMARK  Name = BX795.pdbqt.pdb
REMARK  7 active torsions:
REMARK  status: ('A' for Active; 'I' for Inactive)
REMARK    1  A    between atoms: C_4  and  N_25
REMARK    2  A    between atoms: N_8  and  C_10
REMARK    3  A    between atoms: C_12  and  N_16
REMARK    4  A    between atoms: N_25  and  C_27
REMARK    5  A    between atoms: C_27  and  C_28
REMARK    6  A    between atoms: C_29  and  N_30
REMARK    7  A    between atoms: C_31  and  C_34
REMARK                            x       y       z     vdW  Elec       q    Type
REMARK                         _______ _______ _______ _____ _____    ______ ____
ROOT
ATOM      1  I   UNL     1       1.164  -5.034 -23.623  0.00  0.00    +0.000 I 
ATOM      2  N   UNL     1       2.684  -2.095 -20.838  0.00  0.00    +0.000 NA
ATOM      3  N   UNL     1       2.830  -4.188 -19.773  0.00  0.00    +0.000 NA
ATOM      4  C   UNL     1       2.131  -2.654 -21.935  0.00  0.00    +0.000 A 
ATOM      5  C   UNL     1       3.014  -2.866 -19.792  0.00  0.00    +0.000 A 
ATOM      6  C   UNL     1       1.955  -4.022 -22.011  0.00  0.00    +0.000 A 
ATOM      7  C   UNL     1       2.319  -4.732 -20.893  0.00  0.00    +0.000 A 
ATOM      8  N   UNL     1       3.534  -2.295 -18.635  0.00  0.00    +0.000 N 
ATOM      9  H   UNL     1       3.665  -2.985 -17.910  0.00  0.00    +0.000 HD
ENDROOT
BRANCH   8  10
ATOM     10  C   UNL     1       4.058  -1.015 -18.417  0.00  0.00    +0.000 A 
ATOM     11  C   UNL     1       5.299  -0.617 -18.922  0.00  0.00    +0.000 A 
ATOM     12  C   UNL     1       5.768   0.689 -18.784  0.00  0.00    +0.000 A 
ATOM     13  C   UNL     1       4.969   1.633 -18.149  0.00  0.00    +0.000 A 
ATOM     14  C   UNL     1       3.724   1.266 -17.647  0.00  0.00    +0.000 A 
ATOM     15  C   UNL     1       3.274  -0.048 -17.783  0.00  0.00    +0.000 A 
BRANCH  12  16
ATOM     16  N   UNL     1       7.061   0.968 -19.263  0.00  0.00    +0.000 N 
ATOM     17  C   UNL     1       7.371   1.736 -20.371  0.00  0.00    +0.000 C 
ATOM     18  O   UNL     1       6.539   2.165 -21.169  0.00  0.00    +0.000 OA
ATOM     19  N   UNL     1       8.738   1.964 -20.527  0.00  0.00    +0.000 N 
ATOM     20  C   UNL     1       9.825   1.576 -19.802  0.00  0.00    +0.000 A 
ATOM     21  C   UNL     1       9.377   2.665 -21.505  0.00  0.00    +0.000 A 
ATOM     22  C   UNL     1      11.237   1.974 -20.245  0.00  0.00    +0.000 A 
ATOM     23  C   UNL     1      10.906   2.782 -21.509  0.00  0.00    +0.000 A 
ATOM     24  H   UNL     1       7.827   0.502 -18.792  0.00  0.00    +0.000 HD
ENDBRANCH  12  16
ENDBRANCH   8  10
BRANCH   4  25
ATOM     25  N   UNL     1       1.801  -1.818 -23.033  0.00  0.00    +0.000 N 
ATOM     26  H   UNL     1       0.816  -1.565 -22.986  0.00  0.00    +0.000 HD
BRANCH  25  27
ATOM     27  C   UNL     1       2.702  -0.694 -23.272  0.00  0.00    +0.000 C 
BRANCH  27  28
ATOM     28  C   UNL     1       3.585   0.544 -23.456  0.00  0.00    +0.000 C 
ATOM     29  C   UNL     1       4.484   1.753 -23.729  0.00  0.00    +0.000 C 
BRANCH  29  30
ATOM     30  N   UNL     1       5.264   2.818 -24.023  0.00  0.00    +0.000 N 
ATOM     31  C   UNL     1       6.578   2.838 -24.469  0.00  0.00    +0.000 C 
ATOM     32  O   UNL     1       7.193   1.794 -24.679  0.00  0.00    +0.000 OA
ATOM     33  H   UNL     1       4.822   3.709 -23.825  0.00  0.00    +0.000 HD
BRANCH  31  34
ATOM     34  C   UNL     1       7.146   4.165 -24.637  0.00  0.00    +0.000 A 
ATOM     35  S   UNL     1       6.127   5.493 -25.036  0.00  0.00    +0.000 S 
ATOM     36  C   UNL     1       7.441   6.562 -25.069  0.00  0.00    +0.000 A 
ATOM     37  C   UNL     1       8.634   5.958 -24.786  0.00  0.00    +0.000 A 
ATOM     38  C   UNL     1       8.459   4.578 -24.537  0.00  0.00    +0.000 A 
ENDBRANCH  31  34
ENDBRANCH  29  30
ENDBRANCH  27  28
ENDBRANCH  25  27
ENDBRANCH   4  25
TORSDOF 7
ENDMDL
MODEL 6
REMARK VINA RESULT:      -5.2      3.360      3.861
REMARK  Name = BX795.pdbqt.pdb
REMARK  7 active torsions:
REMARK  status: ('A' for Active; 'I' for Inactive)
REMARK    1  A    between atoms: C_4  and  N_25
REMARK    2  A    between atoms: N_8  and  C_10
REMARK    3  A    between atoms: C_12  and  N_16
REMARK    4  A    between atoms: N_25  and  C_27
REMARK    5  A    between atoms: C_27  and  C_28
REMARK    6  A    between atoms: C_29  and  N_30
REMARK    7  A    between atoms: C_31  and  C_34
REMARK                            x       y       z     vdW  Elec       q    Type
REMARK                         _______ _______ _______ _____ _____    ______ ____
ROOT
ATOM      1  I   UNL     1       8.077   3.128 -25.265  0.00  0.00    +0.000 I 
ATOM      2  N   UNL     1       6.042   1.462 -21.832  0.00  0.00    +0.000 NA
ATOM      3  N   UNL     1       8.141   2.221 -21.083  0.00  0.00    +0.000 NA
ATOM      4  C   UNL     1       6.323   1.834 -23.099  0.00  0.00    +0.000 A 
ATOM      5  C   UNL     1       6.950   1.659 -20.864  0.00  0.00    +0.000 A 
ATOM      6  C   UNL     1       7.513   2.466 -23.396  0.00  0.00    +0.000 A 
ATOM      7  C   UNL     1       8.382   2.624 -22.344  0.00  0.00    +0.000 A 
ATOM      8  N   UNL     1       6.695   1.233 -19.565  0.00  0.00    +0.000 N 
ATOM      9  H   UNL     1       7.493   1.380 -18.965  0.00  0.00    +0.000 HD
ENDROOT
BRANCH   8  10
ATOM     10  C   UNL     1       5.494   0.838 -18.964  0.00  0.00    +0.000 A 
ATOM     11  C   UNL     1       4.893  -0.396 -19.230  0.00  0.00    +0.000 A 
ATOM     12  C   UNL     1       3.751  -0.823 -18.554  0.00  0.00    +0.000 A 
ATOM     13  C   UNL     1       3.206  -0.012 -17.565  0.00  0.00    +0.000 A 
ATOM     14  C   UNL     1       3.791   1.217 -17.272  0.00  0.00    +0.000 A 
ATOM     15  C   UNL     1       4.927   1.634 -17.965  0.00  0.00    +0.000 A 
BRANCH  12  16
ATOM     16  N   UNL     1       3.182  -2.047 -18.949  0.00  0.00    +0.000 N 
ATOM     17  C   UNL     1       1.830  -2.335 -19.013  0.00  0.00    +0.000 C 
ATOM     18  O   UNL     1       0.945  -1.589 -18.596  0.00  0.00    +0.000 OA
ATOM     19  N   UNL     1       1.550  -3.579 -19.577  0.00  0.00    +0.000 N 
ATOM     20  C   UNL     1       2.348  -4.566 -20.073  0.00  0.00    +0.000 A 
ATOM     21  C   UNL     1       0.338  -4.168 -19.780  0.00  0.00    +0.000 A 
ATOM     22  C   UNL     1       1.736  -5.860 -20.619  0.00  0.00    +0.000 A 
ATOM     23  C   UNL     1       0.244  -5.566 -20.402  0.00  0.00    +0.000 A 
ATOM     24  H   UNL     1       3.827  -2.807 -19.132  0.00  0.00    +0.000 HD
ENDBRANCH  12  16
ENDBRANCH   8  10
BRANCH   4  25
ATOM     25  N   UNL     1       5.342   1.624 -24.102  0.00  0.00    +0.000 N 
ATOM     26  H   UNL     1       4.981   0.675 -24.036  0.00  0.00    +0.000 HD
BRANCH  25  27
ATOM     27  C   UNL     1       4.312   2.654 -24.212  0.00  0.00    +0.000 C 
BRANCH  27  28
ATOM     28  C   UNL     1       3.277   3.764 -24.422  0.00  0.00    +0.000 C 
ATOM     29  C   UNL     1       2.183   4.807 -24.664  0.00  0.00    +0.000 C 
BRANCH  29  30
ATOM     30  N   UNL     1       1.178   5.689 -24.868  0.00  0.00    +0.000 N 
ATOM     31  C   UNL     1       0.048   5.916 -24.096  0.00  0.00    +0.000 C 
ATOM     32  O   UNL     1      -0.141   5.296 -23.050  0.00  0.00    +0.000 OA
ATOM     33  H   UNL     1       1.259   6.197 -25.741  0.00  0.00    +0.000 HD
BRANCH  31  34
ATOM     34  C   UNL     1      -0.872   6.905 -24.632  0.00  0.00    +0.000 A 
ATOM     35  S   UNL     1      -1.066   8.419 -23.836  0.00  0.00    +0.000 S 
ATOM     36  C   UNL     1      -2.214   8.930 -24.973  0.00  0.00    +0.000 A 
ATOM     37  C   UNL     1      -2.462   8.000 -25.944  0.00  0.00    +0.000 A 
ATOM     38  C   UNL     1      -1.687   6.836 -25.744  0.00  0.00    +0.000 A 
ENDBRANCH  31  34
ENDBRANCH  29  30
ENDBRANCH  27  28
ENDBRANCH  25  27
ENDBRANCH   4  25
TORSDOF 7
ENDMDL
MODEL 7
REMARK VINA RESULT:      -5.1     20.251     23.326
REMARK  Name = BX795.pdbqt.pdb
REMARK  7 active torsions:
REMARK  status: ('A' for Active; 'I' for Inactive)
REMARK    1  A    between atoms: C_4  and  N_25
REMARK    2  A    between atoms: N_8  and  C_10
REMARK    3  A    between atoms: C_12  and  N_16
REMARK    4  A    between atoms: N_25  and  C_27
REMARK    5  A    between atoms: C_27  and  C_28
REMARK    6  A    between atoms: C_29  and  N_30
REMARK    7  A    between atoms: C_31  and  C_34
REMARK                            x       y       z     vdW  Elec       q    Type
REMARK                         _______ _______ _______ _____ _____    ______ ____
ROOT
ATOM      1  I   UNL     1     -22.237   8.476 -13.794  0.00  0.00    +0.000 I 
ATOM      2  N   UNL     1     -18.709   6.241 -12.672  0.00  0.00    +0.000 NA
ATOM      3  N   UNL     1     -18.052   7.765 -14.340  0.00  0.00    +0.000 NA
ATOM      4  C   UNL     1     -19.990   6.661 -12.745  0.00  0.00    +0.000 A 
ATOM      5  C   UNL     1     -17.780   6.794 -13.465  0.00  0.00    +0.000 A 
ATOM      6  C   UNL     1     -20.341   7.694 -13.591  0.00  0.00    +0.000 A 
ATOM      7  C   UNL     1     -19.326   8.199 -14.366  0.00  0.00    +0.000 A 
ATOM      8  N   UNL     1     -16.468   6.334 -13.437  0.00  0.00    +0.000 N 
ATOM      9  H   UNL     1     -15.902   6.791 -14.136  0.00  0.00    +0.000 HD
ENDROOT
BRANCH   8  10
ATOM     10  C   UNL     1     -15.816   5.523 -12.501  0.00  0.00    +0.000 A 
ATOM     11  C   UNL     1     -15.060   6.051 -11.450  0.00  0.00    +0.000 A 
ATOM     12  C   UNL     1     -14.495   5.240 -10.466  0.00  0.00    +0.000 A 
ATOM     13  C   UNL     1     -14.712   3.867 -10.512  0.00  0.00    +0.000 A 
ATOM     14  C   UNL     1     -15.470   3.317 -11.542  0.00  0.00    +0.000 A 
ATOM     15  C   UNL     1     -16.018   4.141 -12.525  0.00  0.00    +0.000 A 
BRANCH  12  16
ATOM     16  N   UNL     1     -13.691   5.863  -9.494  0.00  0.00    +0.000 N 
ATOM     17  C   UNL     1     -12.325   5.704  -9.344  0.00  0.00    +0.000 C 
ATOM     18  O   UNL     1     -11.653   4.881  -9.963  0.00  0.00    +0.000 OA
ATOM     19  N   UNL     1     -11.765   6.554  -8.390  0.00  0.00    +0.000 N 
ATOM     20  C   UNL     1     -12.304   7.507  -7.578  0.00  0.00    +0.000 A 
ATOM     21  C   UNL     1     -10.466   6.651  -7.994  0.00  0.00    +0.000 A 
ATOM     22  C   UNL     1     -11.418   8.281  -6.595  0.00  0.00    +0.000 A 
ATOM     23  C   UNL     1     -10.054   7.646  -6.904  0.00  0.00    +0.000 A 
ATOM     24  H   UNL     1     -14.173   6.420  -8.799  0.00  0.00    +0.000 HD
ENDBRANCH  12  16
ENDBRANCH   8  10
BRANCH   4  25
ATOM     25  N   UNL     1     -20.951   6.066 -11.888  0.00  0.00    +0.000 N 
ATOM     26  H   UNL     1     -21.888   6.305 -12.206  0.00  0.00    +0.000 HD
BRANCH  25  27
ATOM     27  C   UNL     1     -20.756   4.649 -11.596  0.00  0.00    +0.000 C 
BRANCH  27  28
ATOM     28  C   UNL     1     -20.537   3.146 -11.396  0.00  0.00    +0.000 C 
ATOM     29  C   UNL     1     -20.258   1.664 -11.126  0.00  0.00    +0.000 C 
BRANCH  29  30
ATOM     30  N   UNL     1     -20.000   0.369 -10.835  0.00  0.00    +0.000 N 
ATOM     31  C   UNL     1     -19.087  -0.155  -9.931  0.00  0.00    +0.000 C 
ATOM     32  O   UNL     1     -18.388   0.581  -9.235  0.00  0.00    +0.000 OA
ATOM     33  H   UNL     1     -20.516  -0.284 -11.412  0.00  0.00    +0.000 HD
BRANCH  31  34
ATOM     34  C   UNL     1     -19.020  -1.606  -9.901  0.00  0.00    +0.000 A 
ATOM     35  S   UNL     1     -17.682  -2.389  -9.152  0.00  0.00    +0.000 S 
ATOM     36  C   UNL     1     -18.298  -3.922  -9.531  0.00  0.00    +0.000 A 
ATOM     37  C   UNL     1     -19.487  -3.873 -10.205  0.00  0.00    +0.000 A 
ATOM     38  C   UNL     1     -19.898  -2.538 -10.416  0.00  0.00    +0.000 A 
ENDBRANCH  31  34
ENDBRANCH  29  30
ENDBRANCH  27  28
ENDBRANCH  25  27
ENDBRANCH   4  25
TORSDOF 7
ENDMDL
MODEL 8
REMARK VINA RESULT:      -5.1     22.337     25.718
REMARK  Name = BX795.pdbqt.pdb
REMARK  7 active torsions:
REMARK  status: ('A' for Active; 'I' for Inactive)
REMARK    1  A    between atoms: C_4  and  N_25
REMARK    2  A    between atoms: N_8  and  C_10
REMARK    3  A    between atoms: C_12  and  N_16
REMARK    4  A    between atoms: N_25  and  C_27
REMARK    5  A    between atoms: C_27  and  C_28
REMARK    6  A    between atoms: C_29  and  N_30
REMARK    7  A    between atoms: C_31  and  C_34
REMARK                            x       y       z     vdW  Elec       q    Type
REMARK                         _______ _______ _______ _____ _____    ______ ____
ROOT
ATOM      1  I   UNL     1       1.247   4.443   9.482  0.00  0.00    +0.000 I 
ATOM      2  N   UNL     1       1.515   3.187   5.352  0.00  0.00    +0.000 NA
ATOM      3  N   UNL     1       0.335   5.223   5.374  0.00  0.00    +0.000 NA
ATOM      4  C   UNL     1       1.623   3.197   6.698  0.00  0.00    +0.000 A 
ATOM      5  C   UNL     1       0.877   4.188   4.728  0.00  0.00    +0.000 A 
ATOM      6  C   UNL     1       1.131   4.257   7.432  0.00  0.00    +0.000 A 
ATOM      7  C   UNL     1       0.492   5.236   6.711  0.00  0.00    +0.000 A 
ATOM      8  N   UNL     1       0.712   4.163   3.347  0.00  0.00    +0.000 N 
ATOM      9  H   UNL     1       0.152   4.939   3.028  0.00  0.00    +0.000 HD
ENDROOT
BRANCH   8  10
ATOM     10  C   UNL     1       1.343   3.375   2.377  0.00  0.00    +0.000 A 
ATOM     11  C   UNL     1       2.728   3.379   2.193  0.00  0.00    +0.000 A 
ATOM     12  C   UNL     1       3.357   2.519   1.293  0.00  0.00    +0.000 A 
ATOM     13  C   UNL     1       2.588   1.610   0.575  0.00  0.00    +0.000 A 
ATOM     14  C   UNL     1       1.207   1.577   0.747  0.00  0.00    +0.000 A 
ATOM     15  C   UNL     1       0.593   2.452   1.644  0.00  0.00    +0.000 A 
BRANCH  12  16
ATOM     16  N   UNL     1       4.747   2.655   1.128  0.00  0.00    +0.000 N 
ATOM     17  C   UNL     1       5.384   3.532   0.269  0.00  0.00    +0.000 C 
ATOM     18  O   UNL     1       4.805   4.219  -0.571  0.00  0.00    +0.000 OA
ATOM     19  N   UNL     1       6.771   3.553   0.419  0.00  0.00    +0.000 N 
ATOM     20  C   UNL     1       7.617   2.876   1.245  0.00  0.00    +0.000 A 
ATOM     21  C   UNL     1       7.690   4.289  -0.266  0.00  0.00    +0.000 A 
ATOM     22  C   UNL     1       9.130   3.101   1.161  0.00  0.00    +0.000 A 
ATOM     23  C   UNL     1       9.185   4.150   0.040  0.00  0.00    +0.000 A 
ATOM     24  H   UNL     1       5.328   1.997   1.635  0.00  0.00    +0.000 HD
ENDBRANCH  12  16
ENDBRANCH   8  10
BRANCH   4  25
ATOM     25  N   UNL     1       2.313   2.132   7.333  0.00  0.00    +0.000 N 
ATOM     26  H   UNL     1       1.664   1.372   7.528  0.00  0.00    +0.000 HD
BRANCH  25  27
ATOM     27  C   UNL     1       3.560   1.712   6.700  0.00  0.00    +0.000 C 
BRANCH  27  28
ATOM     28  C   UNL     1       4.828   1.171   6.031  0.00  0.00    +0.000 C 
ATOM     29  C   UNL     1       6.047   0.552   5.341  0.00  0.00    +0.000 C 
BRANCH  29  30
ATOM     30  N   UNL     1       7.088  -0.023   4.698  0.00  0.00    +0.000 N 
ATOM     31  C   UNL     1       8.282   0.552   4.287  0.00  0.00    +0.000 C 
ATOM     32  O   UNL     1       8.530   1.735   4.517  0.00  0.00    +0.000 OA
ATOM     33  H   UNL     1       6.920  -0.989   4.442  0.00  0.00    +0.000 HD
BRANCH  31  34
ATOM     34  C   UNL     1       9.174  -0.339   3.565  0.00  0.00    +0.000 A 
ATOM     35  S   UNL     1       9.273  -2.000   4.007  0.00  0.00    +0.000 S 
ATOM     36  C   UNL     1      10.434  -2.305   2.811  0.00  0.00    +0.000 A 
ATOM     37  C   UNL     1      10.756  -1.197   2.078  0.00  0.00    +0.000 A 
ATOM     38  C   UNL     1      10.028  -0.068   2.515  0.00  0.00    +0.000 A 
ENDBRANCH  31  34
ENDBRANCH  29  30
ENDBRANCH  27  28
ENDBRANCH  25  27
ENDBRANCH   4  25
TORSDOF 7
ENDMDL
MODEL 9
REMARK VINA RESULT:      -5.0     21.947     24.770
REMARK  Name = BX795.pdbqt.pdb
REMARK  7 active torsions:
REMARK  status: ('A' for Active; 'I' for Inactive)
REMARK    1  A    between atoms: C_4  and  N_25
REMARK    2  A    between atoms: N_8  and  C_10
REMARK    3  A    between atoms: C_12  and  N_16
REMARK    4  A    between atoms: N_25  and  C_27
REMARK    5  A    between atoms: C_27  and  C_28
REMARK    6  A    between atoms: C_29  and  N_30
REMARK    7  A    between atoms: C_31  and  C_34
REMARK                            x       y       z     vdW  Elec       q    Type
REMARK                         _______ _______ _______ _____ _____    ______ ____
ROOT
ATOM      1  I   UNL     1       9.909  -4.784   5.864  0.00  0.00    +0.000 I 
ATOM      2  N   UNL     1      10.380  -0.575   4.989  0.00  0.00    +0.000 NA
ATOM      3  N   UNL     1      12.248  -1.678   4.075  0.00  0.00    +0.000 NA
ATOM      4  C   UNL     1       9.890  -1.736   5.474  0.00  0.00    +0.000 A 
ATOM      5  C   UNL     1      11.537  -0.573   4.310  0.00  0.00    +0.000 A 
ATOM      6  C   UNL     1      10.542  -2.928   5.229  0.00  0.00    +0.000 A 
ATOM      7  C   UNL     1      11.719  -2.830   4.529  0.00  0.00    +0.000 A 
ATOM      8  N   UNL     1      12.080   0.623   3.852  0.00  0.00    +0.000 N 
ATOM      9  H   UNL     1      12.984   0.479   3.427  0.00  0.00    +0.000 HD
ENDROOT
BRANCH   8  10
ATOM     10  C   UNL     1      11.497   1.889   3.724  0.00  0.00    +0.000 A 
ATOM     11  C   UNL     1      10.645   2.218   2.665  0.00  0.00    +0.000 A 
ATOM     12  C   UNL     1       9.991   3.448   2.599  0.00  0.00    +0.000 A 
ATOM     13  C   UNL     1      10.166   4.366   3.628  0.00  0.00    +0.000 A 
ATOM     14  C   UNL     1      11.000   4.059   4.700  0.00  0.00    +0.000 A 
ATOM     15  C   UNL     1      11.656   2.828   4.746  0.00  0.00    +0.000 A 
BRANCH  12  16
ATOM     16  N   UNL     1       9.215   3.709   1.455  0.00  0.00    +0.000 N 
ATOM     17  C   UNL     1       7.838   3.611   1.365  0.00  0.00    +0.000 C 
ATOM     18  O   UNL     1       7.119   3.145   2.248  0.00  0.00    +0.000 OA
ATOM     19  N   UNL     1       7.323   4.069   0.152  0.00  0.00    +0.000 N 
ATOM     20  C   UNL     1       7.914   4.591  -0.959  0.00  0.00    +0.000 A 
ATOM     21  C   UNL     1       6.026   4.107  -0.261  0.00  0.00    +0.000 A 
ATOM     22  C   UNL     1       7.068   4.993  -2.172  0.00  0.00    +0.000 A 
ATOM     23  C   UNL     1       5.667   4.634  -1.655  0.00  0.00    +0.000 A 
ATOM     24  H   UNL     1       9.722   3.916   0.603  0.00  0.00    +0.000 HD
ENDBRANCH  12  16
ENDBRANCH   8  10
BRANCH   4  25
ATOM     25  N   UNL     1       8.659  -1.713   6.178  0.00  0.00    +0.000 N 
ATOM     26  H   UNL     1       8.835  -1.571   7.171  0.00  0.00    +0.000 HD
BRANCH  25  27
ATOM     27  C   UNL     1       7.621  -0.850   5.621  0.00  0.00    +0.000 C 
BRANCH  27  28
ATOM     28  C   UNL     1       6.586   0.053   4.942  0.00  0.00    +0.000 C 
ATOM     29  C   UNL     1       5.523   0.881   4.215  0.00  0.00    +0.000 C 
BRANCH  29  30
ATOM     30  N   UNL     1       4.552   1.566   3.568  0.00  0.00    +0.000 N 
ATOM     31  C   UNL     1       3.599   1.093   2.678  0.00  0.00    +0.000 C 
ATOM     32  O   UNL     1       3.531  -0.103   2.396  0.00  0.00    +0.000 OA
ATOM     33  H   UNL     1       4.589   2.566   3.728  0.00  0.00    +0.000 HD
BRANCH  31  34
ATOM     34  C   UNL     1       2.731   2.111   2.112  0.00  0.00    +0.000 A 
ATOM     35  S   UNL     1       1.544   2.874   3.099  0.00  0.00    +0.000 S 
ATOM     36  C   UNL     1       0.999   3.822   1.804  0.00  0.00    +0.000 A 
ATOM     37  C   UNL     1       1.682   3.591   0.643  0.00  0.00    +0.000 A 
ATOM     38  C   UNL     1       2.678   2.606   0.825  0.00  0.00    +0.000 A 
ENDBRANCH  31  34
ENDBRANCH  29  30
ENDBRANCH  27  28
ENDBRANCH  25  27
ENDBRANCH   4  25
TORSDOF 7
ENDMDL
