MODEL 1
REMARK VINA RESULT:      -2.7      0.000      0.000
REMARK  Name = CadmiumAcetate.pdbqt.pdb
REMARK  1 active torsions:
REMARK  status: ('A' for Active; 'I' for Inactive)
REMARK    1  A    between atoms: C_3  and  O_4
REMARK                            x       y       z     vdW  Elec       q    Type
REMARK                         _______ _______ _______ _____ _____    ______ ____
ROOT
ATOM      1  O   UNL     1      -9.649   0.659  -8.884  0.00  0.00    +0.000 OA
ATOM      2  C   UNL     1      -9.937  -0.096  -6.731  0.00  0.00    +0.000 C 
ATOM      3  C   UNL     1     -10.218   0.848  -7.829  0.00  0.00    +0.000 C 
ENDROOT
BRANCH   3   4
ATOM      4  O   UNL     1     -11.079   1.827  -7.556  0.00  0.00    +0.000 OA
ATOM      5  H   UNL     1     -11.939   1.423  -7.776  0.00  0.00    +0.000 HD
ENDBRANCH   3   4
TORSDOF 1
ENDMDL
MODEL 2
REMARK VINA RESULT:      -2.6     24.181     24.467
REMARK  Name = CadmiumAcetate.pdbqt.pdb
REMARK  1 active torsions:
REMARK  status: ('A' for Active; 'I' for Inactive)
REMARK    1  A    between atoms: C_3  and  O_4
REMARK                            x       y       z     vdW  Elec       q    Type
REMARK                         _______ _______ _______ _____ _____    ______ ____
ROOT
ATOM      1  O   UNL     1      13.926   4.809  -8.241  0.00  0.00    +0.000 OA
ATOM      2  C   UNL     1      14.643   4.250  -6.129  0.00  0.00    +0.000 C 
ATOM      3  C   UNL     1      13.829   5.057  -7.057  0.00  0.00    +0.000 C 
ENDROOT
BRANCH   3   4
ATOM      4  O   UNL     1      13.058   5.990  -6.501  0.00  0.00    +0.000 OA
ATOM      5  H   UNL     1      13.664   6.418  -5.868  0.00  0.00    +0.000 HD
ENDBRANCH   3   4
TORSDOF 1
ENDMDL
MODEL 3
REMARK VINA RESULT:      -2.6     10.125     10.446
REMARK  Name = CadmiumAcetate.pdbqt.pdb
REMARK  1 active torsions:
REMARK  status: ('A' for Active; 'I' for Inactive)
REMARK    1  A    between atoms: C_3  and  O_4
REMARK                            x       y       z     vdW  Elec       q    Type
REMARK                         _______ _______ _______ _____ _____    ______ ____
ROOT
ATOM      1  O   UNL     1     -10.678   1.230 -18.653  0.00  0.00    +0.000 OA
ATOM      2  C   UNL     1     -10.259  -1.009 -18.339  0.00  0.00    +0.000 C 
ATOM      3  C   UNL     1     -11.034   0.220 -18.082  0.00  0.00    +0.000 C 
ENDROOT
BRANCH   3   4
ATOM      4  O   UNL     1     -12.060   0.101 -17.241  0.00  0.00    +0.000 OA
ATOM      5  H   UNL     1     -12.819   0.366 -17.793  0.00  0.00    +0.000 HD
ENDBRANCH   3   4
TORSDOF 1
ENDMDL
MODEL 4
REMARK VINA RESULT:      -2.5     19.750     20.114
REMARK  Name = CadmiumAcetate.pdbqt.pdb
REMARK  1 active torsions:
REMARK  status: ('A' for Active; 'I' for Inactive)
REMARK    1  A    between atoms: C_3  and  O_4
REMARK                            x       y       z     vdW  Elec       q    Type
REMARK                         _______ _______ _______ _____ _____    ______ ____
ROOT
ATOM      1  O   UNL     1       8.905  -2.789  -7.155  0.00  0.00    +0.000 OA
ATOM      2  C   UNL     1      10.431  -4.381  -6.502  0.00  0.00    +0.000 C 
ATOM      3  C   UNL     1       9.241  -3.543  -6.265  0.00  0.00    +0.000 C 
ENDROOT
BRANCH   3   4
ATOM      4  O   UNL     1       8.641  -3.696  -5.085  0.00  0.00    +0.000 OA
ATOM      5  H   UNL     1       9.331  -4.134  -4.552  0.00  0.00    +0.000 HD
ENDBRANCH   3   4
TORSDOF 1
ENDMDL
MODEL 5
REMARK VINA RESULT:      -2.5     24.702     25.072
REMARK  Name = CadmiumAcetate.pdbqt.pdb
REMARK  1 active torsions:
REMARK  status: ('A' for Active; 'I' for Inactive)
REMARK    1  A    between atoms: C_3  and  O_4
REMARK                            x       y       z     vdW  Elec       q    Type
REMARK                         _______ _______ _______ _____ _____    ______ ____
ROOT
ATOM      1  O   UNL     1      13.608   5.017  -8.046  0.00  0.00    +0.000 OA
ATOM      2  C   UNL     1      14.488   3.322  -6.765  0.00  0.00    +0.000 C 
ATOM      3  C   UNL     1      14.547   4.263  -7.900  0.00  0.00    +0.000 C 
ENDROOT
BRANCH   3   4
ATOM      4  O   UNL     1      15.637   4.193  -8.663  0.00  0.00    +0.000 OA
ATOM      5  H   UNL     1      15.532   4.961  -9.254  0.00  0.00    +0.000 HD
ENDBRANCH   3   4
TORSDOF 1
ENDMDL
MODEL 6
REMARK VINA RESULT:      -2.4     23.188     23.612
REMARK  Name = CadmiumAcetate.pdbqt.pdb
REMARK  1 active torsions:
REMARK  status: ('A' for Active; 'I' for Inactive)
REMARK    1  A    between atoms: C_3  and  O_4
REMARK                            x       y       z     vdW  Elec       q    Type
REMARK                         _______ _______ _______ _____ _____    ______ ____
ROOT
ATOM      1  O   UNL     1      12.325   1.496 -17.091  0.00  0.00    +0.000 OA
ATOM      2  C   UNL     1      10.532   1.191 -15.685  0.00  0.00    +0.000 C 
ATOM      3  C   UNL     1      11.964   1.441 -15.934  0.00  0.00    +0.000 C 
ENDROOT
BRANCH   3   4
ATOM      4  O   UNL     1      12.731   1.584 -14.854  0.00  0.00    +0.000 OA
ATOM      5  H   UNL     1      12.343   0.941 -14.232  0.00  0.00    +0.000 HD
ENDBRANCH   3   4
TORSDOF 1
ENDMDL
MODEL 7
REMARK VINA RESULT:      -2.3     12.353     12.881
REMARK  Name = CadmiumAcetate.pdbqt.pdb
REMARK  1 active torsions:
REMARK  status: ('A' for Active; 'I' for Inactive)
REMARK    1  A    between atoms: C_3  and  O_4
REMARK                            x       y       z     vdW  Elec       q    Type
REMARK                         _______ _______ _______ _____ _____    ______ ____
ROOT
ATOM      1  O   UNL     1      -3.371  -2.724 -19.274  0.00  0.00    +0.000 OA
ATOM      2  C   UNL     1      -4.045  -1.642 -17.360  0.00  0.00    +0.000 C 
ATOM      3  C   UNL     1      -3.456  -2.796 -18.065  0.00  0.00    +0.000 C 
ENDROOT
BRANCH   3   4
ATOM      4  O   UNL     1      -3.070  -3.816 -17.301  0.00  0.00    +0.000 OA
ATOM      5  H   UNL     1      -3.556  -3.656 -16.471  0.00  0.00    +0.000 HD
ENDBRANCH   3   4
TORSDOF 1
ENDMDL
MODEL 8
REMARK VINA RESULT:      -2.3     11.997     12.357
REMARK  Name = CadmiumAcetate.pdbqt.pdb
REMARK  1 active torsions:
REMARK  status: ('A' for Active; 'I' for Inactive)
REMARK    1  A    between atoms: C_3  and  O_4
REMARK                            x       y       z     vdW  Elec       q    Type
REMARK                         _______ _______ _______ _____ _____    ______ ____
ROOT
ATOM      1  O   UNL     1      -4.511   1.346 -18.945  0.00  0.00    +0.000 OA
ATOM      2  C   UNL     1      -3.430  -0.653 -18.595  0.00  0.00    +0.000 C 
ATOM      3  C   UNL     1      -3.797   0.718 -18.191  0.00  0.00    +0.000 C 
ENDROOT
BRANCH   3   4
ATOM      4  O   UNL     1      -3.305   1.138 -17.027  0.00  0.00    +0.000 OA
ATOM      5  H   UNL     1      -3.742   0.548 -16.386  0.00  0.00    +0.000 HD
ENDBRANCH   3   4
TORSDOF 1
ENDMDL
MODEL 9
REMARK VINA RESULT:      -2.2     21.498     21.772
REMARK  Name = CadmiumAcetate.pdbqt.pdb
REMARK  1 active torsions:
REMARK  status: ('A' for Active; 'I' for Inactive)
REMARK    1  A    between atoms: C_3  and  O_4
REMARK                            x       y       z     vdW  Elec       q    Type
REMARK                         _______ _______ _______ _____ _____    ______ ____
ROOT
ATOM      1  O   UNL     1      10.797   9.872  -9.835  0.00  0.00    +0.000 OA
ATOM      2  C   UNL     1       9.522   8.061 -10.452  0.00  0.00    +0.000 C 
ATOM      3  C   UNL     1       9.799   9.226  -9.591  0.00  0.00    +0.000 C 
ENDROOT
BRANCH   3   4
ATOM      4  O   UNL     1       8.919   9.460  -8.619  0.00  0.00    +0.000 OA
ATOM      5  H   UNL     1       9.456   9.928  -7.953  0.00  0.00    +0.000 HD
ENDBRANCH   3   4
TORSDOF 1
ENDMDL
