MODEL 1
REMARK VINA RESULT:      -7.1      0.000      0.000
REMARK  Name = Calcitriol.pdbqt.pdb
REMARK  9 active torsions:
REMARK  status: ('A' for Active; 'I' for Inactive)
REMARK    1  A    between atoms: C_2  and  C_24
REMARK    2  A    between atoms: C_7  and  C_11
REMARK    3  A    between atoms: C_12  and  C_13
REMARK    4  A    between atoms: C_16  and  O_20
REMARK    5  A    between atoms: C_18  and  O_22
REMARK    6  A    between atoms: C_24  and  C_26
REMARK    7  A    between atoms: C_27  and  C_28
REMARK    8  A    between atoms: C_28  and  C_29
REMARK    9  A    between atoms: C_29  and  O_32
REMARK                            x       y       z     vdW  Elec       q    Type
REMARK                         _______ _______ _______ _____ _____    ______ ____
ROOT
ATOM      1  C   UNL     1       3.510  -0.552 -19.685  0.00  0.00    +0.000 C 
ATOM      2  C   UNL     1       3.235  -1.986 -19.244  0.00  0.00    +0.000 C 
ATOM      3  C   UNL     1       5.113  -0.405 -19.466  0.00  0.00    +0.000 C 
ATOM      4  C   UNL     1       4.468  -2.648 -18.968  0.00  0.00    +0.000 C 
ATOM      5  C   UNL     1       5.623  -1.698 -19.128  0.00  0.00    +0.000 C 
ATOM      6  C   UNL     1       2.876   0.476 -18.843  0.00  0.00    +0.000 C 
ATOM      7  C   UNL     1       5.684   0.811 -18.873  0.00  0.00    +0.000 C 
ATOM      8  C   UNL     1       3.250  -0.377 -21.208  0.00  0.00    +0.000 C 
ATOM      9  C   UNL     1       3.246   1.714 -18.046  0.00  0.00    +0.000 C 
ATOM     10  C   UNL     1       4.748   1.675 -18.246  0.00  0.00    +0.000 C 
ENDROOT
BRANCH   7  11
ATOM     11  C   UNL     1       6.953   1.051 -18.775  0.00  0.00    +0.000 C 
ATOM     12  C   UNL     1       8.456   1.328 -18.647  0.00  0.00    +0.000 C 
BRANCH  12  13
ATOM     13  C   UNL     1       9.730   1.555 -18.534  0.00  0.00    +0.000 A 
ATOM     14  C   UNL     1      10.480   1.973 -19.680  0.00  0.00    +0.000 A 
ATOM     15  C   UNL     1      10.566   1.373 -17.305  0.00  0.00    +0.000 A 
ATOM     16  C   UNL     1      11.861   2.251 -19.892  0.00  0.00    +0.000 A 
ATOM     17  C   UNL     1      12.531   2.031 -18.655  0.00  0.00    +0.000 A 
ATOM     18  C   UNL     1      12.039   1.624 -17.381  0.00  0.00    +0.000 A 
ATOM     19  C   UNL     1      10.034   0.998 -16.127  0.00  0.00    +0.000 C 
BRANCH  16  20
ATOM     20  O   UNL     1      12.263   3.213 -20.773  0.00  0.00    +0.000 OA
ATOM     21  H   UNL     1      13.159   3.035 -21.105  0.00  0.00    +0.000 HD
ENDBRANCH  16  20
BRANCH  18  22
ATOM     22  O   UNL     1      12.856   1.481 -16.286  0.00  0.00    +0.000 OA
ATOM     23  H   UNL     1      12.621   0.672 -15.792  0.00  0.00    +0.000 HD
ENDBRANCH  18  22
ENDBRANCH  12  13
ENDBRANCH   7  11
BRANCH   2  24
ATOM     24  C   UNL     1       1.957  -2.624 -19.266  0.00  0.00    +0.000 C 
ATOM     25  C   UNL     1       1.764  -4.064 -19.668  0.00  0.00    +0.000 C 
BRANCH  24  26
ATOM     26  C   UNL     1       0.760  -1.877 -19.087  0.00  0.00    +0.000 C 
ATOM     27  C   UNL     1      -0.529  -1.066 -18.909  0.00  0.00    +0.000 C 
BRANCH  27  28
ATOM     28  C   UNL     1      -1.816  -0.248 -18.743  0.00  0.00    +0.000 C 
BRANCH  28  29
ATOM     29  C   UNL     1      -3.045   0.530 -18.588  0.00  0.00    +0.000 C 
ATOM     30  C   UNL     1      -3.220   1.591 -19.680  0.00  0.00    +0.000 C 
ATOM     31  C   UNL     1      -4.301  -0.342 -18.477  0.00  0.00    +0.000 C 
BRANCH  29  32
ATOM     32  O   UNL     1      -2.984   1.247 -17.375  0.00  0.00    +0.000 OA
ATOM     33  H   UNL     1      -2.678   2.096 -17.727  0.00  0.00    +0.000 HD
ENDBRANCH  29  32
ENDBRANCH  28  29
ENDBRANCH  27  28
ENDBRANCH  24  26
ENDBRANCH   2  24
TORSDOF 9
ENDMDL
MODEL 2
REMARK VINA RESULT:      -6.3     10.022     19.031
REMARK  Name = Calcitriol.pdbqt.pdb
REMARK  9 active torsions:
REMARK  status: ('A' for Active; 'I' for Inactive)
REMARK    1  A    between atoms: C_2  and  C_24
REMARK    2  A    between atoms: C_7  and  C_11
REMARK    3  A    between atoms: C_12  and  C_13
REMARK    4  A    between atoms: C_16  and  O_20
REMARK    5  A    between atoms: C_18  and  O_22
REMARK    6  A    between atoms: C_24  and  C_26
REMARK    7  A    between atoms: C_27  and  C_28
REMARK    8  A    between atoms: C_28  and  C_29
REMARK    9  A    between atoms: C_29  and  O_32
REMARK                            x       y       z     vdW  Elec       q    Type
REMARK                         _______ _______ _______ _____ _____    ______ ____
ROOT
ATOM      1  C   UNL     1     -10.448  -1.742 -20.959  0.00  0.00    +0.000 C 
ATOM      2  C   UNL     1     -10.321  -2.787 -19.855  0.00  0.00    +0.000 C 
ATOM      3  C   UNL     1     -11.320  -2.513 -22.091  0.00  0.00    +0.000 C 
ATOM      4  C   UNL     1     -11.114  -3.927 -20.180  0.00  0.00    +0.000 C 
ATOM      5  C   UNL     1     -11.751  -3.757 -21.532  0.00  0.00    +0.000 C 
ATOM      6  C   UNL     1      -9.173  -1.369 -21.594  0.00  0.00    +0.000 C 
ATOM      7  C   UNL     1     -10.974  -2.404 -23.513  0.00  0.00    +0.000 C 
ATOM      8  C   UNL     1     -11.301  -0.531 -20.485  0.00  0.00    +0.000 C 
ATOM      9  C   UNL     1      -8.543  -1.288 -22.974  0.00  0.00    +0.000 C 
ATOM     10  C   UNL     1      -9.691  -1.857 -23.783  0.00  0.00    +0.000 C 
ENDROOT
BRANCH   7  11
ATOM     11  C   UNL     1     -11.687  -2.889 -24.481  0.00  0.00    +0.000 C 
ATOM     12  C   UNL     1     -12.518  -3.468 -25.632  0.00  0.00    +0.000 C 
BRANCH  12  13
ATOM     13  C   UNL     1     -13.215  -3.964 -26.608  0.00  0.00    +0.000 A 
ATOM     14  C   UNL     1     -13.892  -5.214 -26.432  0.00  0.00    +0.000 A 
ATOM     15  C   UNL     1     -13.364  -3.392 -27.984  0.00  0.00    +0.000 A 
ATOM     16  C   UNL     1     -14.678  -6.027 -27.298  0.00  0.00    +0.000 A 
ATOM     17  C   UNL     1     -14.728  -5.373 -28.561  0.00  0.00    +0.000 A 
ATOM     18  C   UNL     1     -14.160  -4.144 -29.004  0.00  0.00    +0.000 A 
ATOM     19  C   UNL     1     -12.810  -2.217 -28.334  0.00  0.00    +0.000 C 
BRANCH  16  20
ATOM     20  O   UNL     1     -15.724  -6.764 -26.822  0.00  0.00    +0.000 OA
ATOM     21  H   UNL     1     -15.466  -7.691 -26.681  0.00  0.00    +0.000 HD
ENDBRANCH  16  20
BRANCH  18  22
ATOM     22  O   UNL     1     -14.338  -3.666 -30.280  0.00  0.00    +0.000 OA
ATOM     23  H   UNL     1     -15.245  -3.857 -30.589  0.00  0.00    +0.000 HD
ENDBRANCH  18  22
ENDBRANCH  12  13
ENDBRANCH   7  11
BRANCH   2  24
ATOM     24  C   UNL     1      -9.650  -2.592 -18.609  0.00  0.00    +0.000 C 
ATOM     25  C   UNL     1     -10.377  -2.318 -17.318  0.00  0.00    +0.000 C 
BRANCH  24  26
ATOM     26  C   UNL     1      -8.235  -2.459 -18.549  0.00  0.00    +0.000 C 
ATOM     27  C   UNL     1      -6.710  -2.322 -18.469  0.00  0.00    +0.000 C 
BRANCH  27  28
ATOM     28  C   UNL     1      -5.185  -2.187 -18.376  0.00  0.00    +0.000 C 
BRANCH  28  29
ATOM     29  C   UNL     1      -3.731  -2.059 -18.282  0.00  0.00    +0.000 C 
ATOM     30  C   UNL     1      -3.036  -2.152 -19.646  0.00  0.00    +0.000 C 
ATOM     31  C   UNL     1      -3.283  -0.799 -17.533  0.00  0.00    +0.000 C 
BRANCH  29  32
ATOM     32  O   UNL     1      -3.223  -3.137 -17.528  0.00  0.00    +0.000 OA
ATOM     33  H   UNL     1      -3.193  -3.801 -18.232  0.00  0.00    +0.000 HD
ENDBRANCH  29  32
ENDBRANCH  28  29
ENDBRANCH  27  28
ENDBRANCH  24  26
ENDBRANCH   2  24
TORSDOF 9
ENDMDL
MODEL 3
REMARK VINA RESULT:      -6.3      7.606     17.087
REMARK  Name = Calcitriol.pdbqt.pdb
REMARK  9 active torsions:
REMARK  status: ('A' for Active; 'I' for Inactive)
REMARK    1  A    between atoms: C_2  and  C_24
REMARK    2  A    between atoms: C_7  and  C_11
REMARK    3  A    between atoms: C_12  and  C_13
REMARK    4  A    between atoms: C_16  and  O_20
REMARK    5  A    between atoms: C_18  and  O_22
REMARK    6  A    between atoms: C_24  and  C_26
REMARK    7  A    between atoms: C_27  and  C_28
REMARK    8  A    between atoms: C_28  and  C_29
REMARK    9  A    between atoms: C_29  and  O_32
REMARK                            x       y       z     vdW  Elec       q    Type
REMARK                         _______ _______ _______ _____ _____    ______ ____
ROOT
ATOM      1  C   UNL     1      -7.240  -2.537 -19.297  0.00  0.00    +0.000 C 
ATOM      2  C   UNL     1      -6.151  -1.500 -19.560  0.00  0.00    +0.000 C 
ATOM      3  C   UNL     1      -8.199  -2.395 -20.600  0.00  0.00    +0.000 C 
ATOM      4  C   UNL     1      -6.320  -0.947 -20.864  0.00  0.00    +0.000 C 
ATOM      5  C   UNL     1      -7.553  -1.508 -21.518  0.00  0.00    +0.000 C 
ATOM      6  C   UNL     1      -8.082  -2.251 -18.124  0.00  0.00    +0.000 C 
ATOM      7  C   UNL     1      -9.661  -2.407 -20.464  0.00  0.00    +0.000 C 
ATOM      8  C   UNL     1      -6.657  -3.978 -19.327  0.00  0.00    +0.000 C 
ATOM      9  C   UNL     1      -9.547  -2.093 -17.757  0.00  0.00    +0.000 C 
ATOM     10  C   UNL     1     -10.147  -2.243 -19.140  0.00  0.00    +0.000 C 
ENDROOT
BRANCH   7  11
ATOM     11  C   UNL     1     -10.489  -2.419 -21.461  0.00  0.00    +0.000 C 
ATOM     12  C   UNL     1     -11.480  -2.437 -22.631  0.00  0.00    +0.000 C 
BRANCH  12  13
ATOM     13  C   UNL     1     -12.326  -2.452 -23.616  0.00  0.00    +0.000 A 
ATOM     14  C   UNL     1     -12.483  -3.642 -24.397  0.00  0.00    +0.000 A 
ATOM     15  C   UNL     1     -13.160  -1.305 -24.098  0.00  0.00    +0.000 A 
ATOM     16  C   UNL     1     -13.272  -3.960 -25.540  0.00  0.00    +0.000 A 
ATOM     17  C   UNL     1     -14.000  -2.788 -25.890  0.00  0.00    +0.000 A 
ATOM     18  C   UNL     1     -14.035  -1.494 -25.297  0.00  0.00    +0.000 A 
ATOM     19  C   UNL     1     -13.156  -0.109 -23.482  0.00  0.00    +0.000 C 
BRANCH  16  20
ATOM     20  O   UNL     1     -13.783  -5.213 -25.721  0.00  0.00    +0.000 OA
ATOM     21  H   UNL     1     -13.078  -5.880 -25.757  0.00  0.00    +0.000 HD
ENDBRANCH  16  20
BRANCH  18  22
ATOM     22  O   UNL     1     -14.829  -0.481 -25.781  0.00  0.00    +0.000 OA
ATOM     23  H   UNL     1     -14.282   0.292 -26.021  0.00  0.00    +0.000 HD
ENDBRANCH  18  22
ENDBRANCH  12  13
ENDBRANCH   7  11
BRANCH   2  24
ATOM     24  C   UNL     1      -5.036  -1.243 -18.706  0.00  0.00    +0.000 C 
ATOM     25  C   UNL     1      -4.897  -1.845 -17.331  0.00  0.00    +0.000 C 
BRANCH  24  26
ATOM     26  C   UNL     1      -4.074  -0.248 -19.032  0.00  0.00    +0.000 C 
ATOM     27  C   UNL     1      -3.037   0.821 -19.401  0.00  0.00    +0.000 C 
BRANCH  27  28
ATOM     28  C   UNL     1      -2.000   1.884 -19.782  0.00  0.00    +0.000 C 
BRANCH  28  29
ATOM     29  C   UNL     1      -1.010   2.899 -20.141  0.00  0.00    +0.000 C 
ATOM     30  C   UNL     1       0.353   2.299 -20.507  0.00  0.00    +0.000 C 
ATOM     31  C   UNL     1      -1.493   3.851 -21.241  0.00  0.00    +0.000 C 
BRANCH  29  32
ATOM     32  O   UNL     1      -0.769   3.721 -19.021  0.00  0.00    +0.000 OA
ATOM     33  H   UNL     1      -1.670   4.050 -18.889  0.00  0.00    +0.000 HD
ENDBRANCH  29  32
ENDBRANCH  28  29
ENDBRANCH  27  28
ENDBRANCH  24  26
ENDBRANCH   2  24
TORSDOF 9
ENDMDL
MODEL 4
REMARK VINA RESULT:      -6.3      1.402      2.964
REMARK  Name = Calcitriol.pdbqt.pdb
REMARK  9 active torsions:
REMARK  status: ('A' for Active; 'I' for Inactive)
REMARK    1  A    between atoms: C_2  and  C_24
REMARK    2  A    between atoms: C_7  and  C_11
REMARK    3  A    between atoms: C_12  and  C_13
REMARK    4  A    between atoms: C_16  and  O_20
REMARK    5  A    between atoms: C_18  and  O_22
REMARK    6  A    between atoms: C_24  and  C_26
REMARK    7  A    between atoms: C_27  and  C_28
REMARK    8  A    between atoms: C_28  and  C_29
REMARK    9  A    between atoms: C_29  and  O_32
REMARK                            x       y       z     vdW  Elec       q    Type
REMARK                         _______ _______ _______ _____ _____    ______ ____
ROOT
ATOM      1  C   UNL     1       3.795  -2.069 -19.597  0.00  0.00    +0.000 C 
ATOM      2  C   UNL     1       2.777  -1.381 -20.501  0.00  0.00    +0.000 C 
ATOM      3  C   UNL     1       5.042  -1.029 -19.595  0.00  0.00    +0.000 C 
ATOM      4  C   UNL     1       3.248  -0.080 -20.850  0.00  0.00    +0.000 C 
ATOM      5  C   UNL     1       4.619   0.154 -20.278  0.00  0.00    +0.000 C 
ATOM      6  C   UNL     1       4.313  -3.343 -20.122  0.00  0.00    +0.000 C 
ATOM      7  C   UNL     1       6.425  -1.510 -19.705  0.00  0.00    +0.000 C 
ATOM      8  C   UNL     1       3.277  -2.148 -18.133  0.00  0.00    +0.000 C 
ATOM      9  C   UNL     1       5.637  -4.017 -20.437  0.00  0.00    +0.000 C 
ATOM     10  C   UNL     1       6.564  -2.864 -20.111  0.00  0.00    +0.000 C 
ENDROOT
BRANCH   7  11
ATOM     11  C   UNL     1       7.474  -0.757 -19.592  0.00  0.00    +0.000 C 
ATOM     12  C   UNL     1       8.713   0.138 -19.472  0.00  0.00    +0.000 C 
BRANCH  12  13
ATOM     13  C   UNL     1       9.759   0.901 -19.378  0.00  0.00    +0.000 A 
ATOM     14  C   UNL     1      10.305   1.199 -18.088  0.00  0.00    +0.000 A 
ATOM     15  C   UNL     1      10.470   1.589 -20.502  0.00  0.00    +0.000 A 
ATOM     16  C   UNL     1      11.387   2.017 -17.653  0.00  0.00    +0.000 A 
ATOM     17  C   UNL     1      11.961   2.610 -18.813  0.00  0.00    +0.000 A 
ATOM     18  C   UNL     1      11.626   2.488 -20.192  0.00  0.00    +0.000 A 
ATOM     19  C   UNL     1      10.110   1.420 -21.787  0.00  0.00    +0.000 C 
BRANCH  16  20
ATOM     20  O   UNL     1      12.138   1.679 -16.565  0.00  0.00    +0.000 OA
ATOM     21  H   UNL     1      11.584   1.567 -15.775  0.00  0.00    +0.000 HD
ENDBRANCH  16  20
BRANCH  18  22
ATOM     22  O   UNL     1      12.323   3.140 -21.182  0.00  0.00    +0.000 OA
ATOM     23  H   UNL     1      13.241   3.306 -20.895  0.00  0.00    +0.000 HD
ENDBRANCH  18  22
ENDBRANCH  12  13
ENDBRANCH   7  11
BRANCH   2  24
ATOM     24  C   UNL     1       1.478  -1.887 -20.813  0.00  0.00    +0.000 C 
ATOM     25  C   UNL     1       1.214  -2.809 -21.975  0.00  0.00    +0.000 C 
BRANCH  24  26
ATOM     26  C   UNL     1       0.320  -1.396 -20.151  0.00  0.00    +0.000 C 
ATOM     27  C   UNL     1      -0.928  -0.852 -19.445  0.00  0.00    +0.000 C 
BRANCH  27  28
ATOM     28  C   UNL     1      -2.174  -0.295 -18.744  0.00  0.00    +0.000 C 
BRANCH  28  29
ATOM     29  C   UNL     1      -3.360   0.239 -18.075  0.00  0.00    +0.000 C 
ATOM     30  C   UNL     1      -4.330   0.928 -19.042  0.00  0.00    +0.000 C 
ATOM     31  C   UNL     1      -4.094  -0.803 -17.225  0.00  0.00    +0.000 C 
BRANCH  29  32
ATOM     32  O   UNL     1      -2.961   1.242 -17.167  0.00  0.00    +0.000 OA
ATOM     33  H   UNL     1      -3.832   1.626 -16.987  0.00  0.00    +0.000 HD
ENDBRANCH  29  32
ENDBRANCH  28  29
ENDBRANCH  27  28
ENDBRANCH  24  26
ENDBRANCH   2  24
TORSDOF 9
ENDMDL
MODEL 5
REMARK VINA RESULT:      -6.2     19.001     23.025
REMARK  Name = Calcitriol.pdbqt.pdb
REMARK  9 active torsions:
REMARK  status: ('A' for Active; 'I' for Inactive)
REMARK    1  A    between atoms: C_2  and  C_24
REMARK    2  A    between atoms: C_7  and  C_11
REMARK    3  A    between atoms: C_12  and  C_13
REMARK    4  A    between atoms: C_16  and  O_20
REMARK    5  A    between atoms: C_18  and  O_22
REMARK    6  A    between atoms: C_24  and  C_26
REMARK    7  A    between atoms: C_27  and  C_28
REMARK    8  A    between atoms: C_28  and  C_29
REMARK    9  A    between atoms: C_29  and  O_32
REMARK                            x       y       z     vdW  Elec       q    Type
REMARK                         _______ _______ _______ _____ _____    ______ ____
ROOT
ATOM      1  C   UNL     1       2.482   1.787   2.410  0.00  0.00    +0.000 C 
ATOM      2  C   UNL     1       3.000   2.979   1.609  0.00  0.00    +0.000 C 
ATOM      3  C   UNL     1       0.944   1.653   1.908  0.00  0.00    +0.000 C 
ATOM      4  C   UNL     1       2.011   3.390   0.667  0.00  0.00    +0.000 C 
ATOM      5  C   UNL     1       0.762   2.568   0.823  0.00  0.00    +0.000 C 
ATOM      6  C   UNL     1       2.431   2.007   3.864  0.00  0.00    +0.000 C 
ATOM      7  C   UNL     1      -0.140   1.389   2.862  0.00  0.00    +0.000 C 
ATOM      8  C   UNL     1       3.205   0.477   1.989  0.00  0.00    +0.000 C 
ATOM      9  C   UNL     1       1.445   1.928   5.016  0.00  0.00    +0.000 C 
ATOM     10  C   UNL     1       0.202   1.566   4.229  0.00  0.00    +0.000 C 
ENDROOT
BRANCH   7  11
ATOM     11  C   UNL     1      -1.369   1.152   2.528  0.00  0.00    +0.000 C 
ATOM     12  C   UNL     1      -2.827   0.886   2.135  0.00  0.00    +0.000 C 
BRANCH  12  13
ATOM     13  C   UNL     1      -4.063   0.669   1.799  0.00  0.00    +0.000 A 
ATOM     14  C   UNL     1      -5.101   1.487   2.351  0.00  0.00    +0.000 A 
ATOM     15  C   UNL     1      -4.570  -0.419   0.905  0.00  0.00    +0.000 A 
ATOM     16  C   UNL     1      -6.520   1.478   2.224  0.00  0.00    +0.000 A 
ATOM     17  C   UNL     1      -6.860   0.398   1.361  0.00  0.00    +0.000 A 
ATOM     18  C   UNL     1      -6.044  -0.554   0.683  0.00  0.00    +0.000 A 
ATOM     19  C   UNL     1      -3.742  -1.279   0.284  0.00  0.00    +0.000 C 
BRANCH  16  20
ATOM     20  O   UNL     1      -7.241   2.636   2.254  0.00  0.00    +0.000 OA
ATOM     21  H   UNL     1      -7.813   2.675   3.039  0.00  0.00    +0.000 HD
ENDBRANCH  16  20
BRANCH  18  22
ATOM     22  O   UNL     1      -6.569  -1.527  -0.133  0.00  0.00    +0.000 OA
ATOM     23  H   UNL     1      -7.051  -2.190   0.399  0.00  0.00    +0.000 HD
ENDBRANCH  18  22
ENDBRANCH  12  13
ENDBRANCH   7  11
BRANCH   2  24
ATOM     24  C   UNL     1       4.329   3.498   1.672  0.00  0.00    +0.000 C 
ATOM     25  C   UNL     1       4.931   4.068   2.931  0.00  0.00    +0.000 C 
BRANCH  24  26
ATOM     26  C   UNL     1       5.104   3.678   0.493  0.00  0.00    +0.000 C 
ATOM     27  C   UNL     1       5.932   3.859  -0.785  0.00  0.00    +0.000 C 
BRANCH  27  28
ATOM     28  C   UNL     1       6.756   4.028  -2.068  0.00  0.00    +0.000 C 
BRANCH  28  29
ATOM     29  C   UNL     1       7.537   4.190  -3.294  0.00  0.00    +0.000 C 
ATOM     30  C   UNL     1       6.723   3.905  -4.561  0.00  0.00    +0.000 C 
ATOM     31  C   UNL     1       8.230   5.553  -3.392  0.00  0.00    +0.000 C 
BRANCH  29  32
ATOM     32  O   UNL     1       8.582   3.243  -3.299  0.00  0.00    +0.000 OA
ATOM     33  H   UNL     1       8.942   3.432  -4.178  0.00  0.00    +0.000 HD
ENDBRANCH  29  32
ENDBRANCH  28  29
ENDBRANCH  27  28
ENDBRANCH  24  26
ENDBRANCH   2  24
TORSDOF 9
ENDMDL
MODEL 6
REMARK VINA RESULT:      -6.1     15.422     16.738
REMARK  Name = Calcitriol.pdbqt.pdb
REMARK  9 active torsions:
REMARK  status: ('A' for Active; 'I' for Inactive)
REMARK    1  A    between atoms: C_2  and  C_24
REMARK    2  A    between atoms: C_7  and  C_11
REMARK    3  A    between atoms: C_12  and  C_13
REMARK    4  A    between atoms: C_16  and  O_20
REMARK    5  A    between atoms: C_18  and  O_22
REMARK    6  A    between atoms: C_24  and  C_26
REMARK    7  A    between atoms: C_27  and  C_28
REMARK    8  A    between atoms: C_28  and  C_29
REMARK    9  A    between atoms: C_29  and  O_32
REMARK                            x       y       z     vdW  Elec       q    Type
REMARK                         _______ _______ _______ _____ _____    ______ ____
ROOT
ATOM      1  C   UNL     1      -0.511 -16.392 -19.375  0.00  0.00    +0.000 C 
ATOM      2  C   UNL     1      -1.855 -16.838 -18.807  0.00  0.00    +0.000 C 
ATOM      3  C   UNL     1       0.479 -16.500 -18.092  0.00  0.00    +0.000 C 
ATOM      4  C   UNL     1      -1.683 -17.296 -17.468  0.00  0.00    +0.000 C 
ATOM      5  C   UNL     1      -0.255 -17.119 -17.031  0.00  0.00    +0.000 C 
ATOM      6  C   UNL     1      -0.471 -14.989 -19.818  0.00  0.00    +0.000 C 
ATOM      7  C   UNL     1       1.469 -15.453 -17.814  0.00  0.00    +0.000 C 
ATOM      8  C   UNL     1       0.013 -17.408 -20.429  0.00  0.00    +0.000 C 
ATOM      9  C   UNL     1       0.339 -13.724 -19.597  0.00  0.00    +0.000 C 
ATOM     10  C   UNL     1       1.289 -14.243 -18.537  0.00  0.00    +0.000 C 
ENDROOT
BRANCH   7  11
ATOM     11  C   UNL     1       2.369 -15.523 -16.884  0.00  0.00    +0.000 C 
ATOM     12  C   UNL     1       3.425 -15.614 -15.776  0.00  0.00    +0.000 C 
BRANCH  12  13
ATOM     13  C   UNL     1       4.316 -15.700 -14.835  0.00  0.00    +0.000 A 
ATOM     14  C   UNL     1       5.646 -16.124 -15.154  0.00  0.00    +0.000 A 
ATOM     15  C   UNL     1       4.101 -15.450 -13.374  0.00  0.00    +0.000 A 
ATOM     16  C   UNL     1       6.809 -16.358 -14.366  0.00  0.00    +0.000 A 
ATOM     17  C   UNL     1       6.462 -16.093 -13.011  0.00  0.00    +0.000 A 
ATOM     18  C   UNL     1       5.237 -15.663 -12.423  0.00  0.00    +0.000 A 
ATOM     19  C   UNL     1       2.919 -15.032 -12.886  0.00  0.00    +0.000 C 
BRANCH  16  20
ATOM     20  O   UNL     1       8.059 -16.109 -14.856  0.00  0.00    +0.000 OA
ATOM     21  H   UNL     1       8.719 -16.695 -14.450  0.00  0.00    +0.000 HD
ENDBRANCH  16  20
BRANCH  18  22
ATOM     22  O   UNL     1       5.103 -15.443 -11.073  0.00  0.00    +0.000 OA
ATOM     23  H   UNL     1       4.320 -14.887 -10.898  0.00  0.00    +0.000 HD
ENDBRANCH  18  22
ENDBRANCH  12  13
ENDBRANCH   7  11
BRANCH   2  24
ATOM     24  C   UNL     1      -3.070 -16.941 -19.552  0.00  0.00    +0.000 C 
ATOM     25  C   UNL     1      -3.667 -18.260 -19.972  0.00  0.00    +0.000 C 
BRANCH  24  26
ATOM     26  C   UNL     1      -3.693 -15.789 -20.105  0.00  0.00    +0.000 C 
ATOM     27  C   UNL     1      -4.377 -14.546 -20.689  0.00  0.00    +0.000 C 
BRANCH  27  28
ATOM     28  C   UNL     1      -5.070 -13.305 -21.264  0.00  0.00    +0.000 C 
BRANCH  28  29
ATOM     29  C   UNL     1      -5.728 -12.120 -21.814  0.00  0.00    +0.000 C 
ATOM     30  C   UNL     1      -5.738 -12.103 -23.348  0.00  0.00    +0.000 C 
ATOM     31  C   UNL     1      -7.141 -11.903 -21.262  0.00  0.00    +0.000 C 
BRANCH  29  32
ATOM     32  O   UNL     1      -5.002 -10.973 -21.432  0.00  0.00    +0.000 OA
ATOM     33  H   UNL     1      -4.184 -11.153 -21.919  0.00  0.00    +0.000 HD
ENDBRANCH  29  32
ENDBRANCH  28  29
ENDBRANCH  27  28
ENDBRANCH  24  26
ENDBRANCH   2  24
TORSDOF 9
ENDMDL
MODEL 7
REMARK VINA RESULT:      -6.1     18.335     20.105
REMARK  Name = Calcitriol.pdbqt.pdb
REMARK  9 active torsions:
REMARK  status: ('A' for Active; 'I' for Inactive)
REMARK    1  A    between atoms: C_2  and  C_24
REMARK    2  A    between atoms: C_7  and  C_11
REMARK    3  A    between atoms: C_12  and  C_13
REMARK    4  A    between atoms: C_16  and  O_20
REMARK    5  A    between atoms: C_18  and  O_22
REMARK    6  A    between atoms: C_24  and  C_26
REMARK    7  A    between atoms: C_27  and  C_28
REMARK    8  A    between atoms: C_28  and  C_29
REMARK    9  A    between atoms: C_29  and  O_32
REMARK                            x       y       z     vdW  Elec       q    Type
REMARK                         _______ _______ _______ _____ _____    ______ ____
ROOT
ATOM      1  C   UNL     1       8.237   3.642   0.484  0.00  0.00    +0.000 C 
ATOM      2  C   UNL     1       7.825   3.733   1.950  0.00  0.00    +0.000 C 
ATOM      3  C   UNL     1       9.402   4.767   0.363  0.00  0.00    +0.000 C 
ATOM      4  C   UNL     1       8.695   4.630   2.638  0.00  0.00    +0.000 C 
ATOM      5  C   UNL     1       9.680   5.245   1.682  0.00  0.00    +0.000 C 
ATOM      6  C   UNL     1       7.184   4.025  -0.470  0.00  0.00    +0.000 C 
ATOM      7  C   UNL     1       9.462   5.667  -0.795  0.00  0.00    +0.000 C 
ATOM      8  C   UNL     1       8.906   2.272   0.177  0.00  0.00    +0.000 C 
ATOM      9  C   UNL     1       6.960   4.975  -1.633  0.00  0.00    +0.000 C 
ATOM     10  C   UNL     1       8.296   5.689  -1.605  0.00  0.00    +0.000 C 
ENDROOT
BRANCH   7  11
ATOM     11  C   UNL     1      10.423   6.506  -1.021  0.00  0.00    +0.000 C 
ATOM     12  C   UNL     1      11.552   7.511  -1.287  0.00  0.00    +0.000 C 
BRANCH  12  13
ATOM     13  C   UNL     1      12.502   8.367  -1.506  0.00  0.00    +0.000 A 
ATOM     14  C   UNL     1      12.950   8.600  -2.847  0.00  0.00    +0.000 A 
ATOM     15  C   UNL     1      13.266   9.141  -0.477  0.00  0.00    +0.000 A 
ATOM     16  C   UNL     1      13.976   9.418  -3.403  0.00  0.00    +0.000 A 
ATOM     17  C   UNL     1      14.619  10.083  -2.321  0.00  0.00    +0.000 A 
ATOM     18  C   UNL     1      14.380  10.039  -0.917  0.00  0.00    +0.000 A 
ATOM     19  C   UNL     1      12.980   9.063   0.835  0.00  0.00    +0.000 C 
BRANCH  16  20
ATOM     20  O   UNL     1      13.830  10.001  -4.628  0.00  0.00    +0.000 OA
ATOM     21  H   UNL     1      13.717  10.963  -4.549  0.00  0.00    +0.000 HD
ENDBRANCH  16  20
BRANCH  18  22
ATOM     22  O   UNL     1      15.111  10.780  -0.020  0.00  0.00    +0.000 OA
ATOM     23  H   UNL     1      14.523  11.167   0.657  0.00  0.00    +0.000 HD
ENDBRANCH  18  22
ENDBRANCH  12  13
ENDBRANCH   7  11
BRANCH   2  24
ATOM     24  C   UNL     1       6.831   2.922   2.579  0.00  0.00    +0.000 C 
ATOM     25  C   UNL     1       7.165   1.821   3.553  0.00  0.00    +0.000 C 
BRANCH  24  26
ATOM     26  C   UNL     1       5.469   2.984   2.176  0.00  0.00    +0.000 C 
ATOM     27  C   UNL     1       4.005   3.054   1.725  0.00  0.00    +0.000 C 
BRANCH  27  28
ATOM     28  C   UNL     1       2.545   3.128   1.261  0.00  0.00    +0.000 C 
BRANCH  28  29
ATOM     29  C   UNL     1       1.151   3.201   0.822  0.00  0.00    +0.000 C 
ATOM     30  C   UNL     1       0.957   4.119  -0.391  0.00  0.00    +0.000 C 
ATOM     31  C   UNL     1       0.526   1.826   0.564  0.00  0.00    +0.000 C 
BRANCH  29  32
ATOM     32  O   UNL     1       0.375   3.772   1.852  0.00  0.00    +0.000 OA
ATOM     33  H   UNL     1       0.584   4.704   1.688  0.00  0.00    +0.000 HD
ENDBRANCH  29  32
ENDBRANCH  28  29
ENDBRANCH  27  28
ENDBRANCH  24  26
ENDBRANCH   2  24
TORSDOF 9
ENDMDL
MODEL 8
REMARK VINA RESULT:      -6.1     15.940     20.284
REMARK  Name = Calcitriol.pdbqt.pdb
REMARK  9 active torsions:
REMARK  status: ('A' for Active; 'I' for Inactive)
REMARK    1  A    between atoms: C_2  and  C_24
REMARK    2  A    between atoms: C_7  and  C_11
REMARK    3  A    between atoms: C_12  and  C_13
REMARK    4  A    between atoms: C_16  and  O_20
REMARK    5  A    between atoms: C_18  and  O_22
REMARK    6  A    between atoms: C_24  and  C_26
REMARK    7  A    between atoms: C_27  and  C_28
REMARK    8  A    between atoms: C_28  and  C_29
REMARK    9  A    between atoms: C_29  and  O_32
REMARK                            x       y       z     vdW  Elec       q    Type
REMARK                         _______ _______ _______ _____ _____    ______ ____
ROOT
ATOM      1  C   UNL     1       2.174  18.082 -16.911  0.00  0.00    +0.000 C 
ATOM      2  C   UNL     1       2.261  17.828 -18.413  0.00  0.00    +0.000 C 
ATOM      3  C   UNL     1       0.651  17.645 -16.556  0.00  0.00    +0.000 C 
ATOM      4  C   UNL     1       1.065  17.193 -18.863  0.00  0.00    +0.000 C 
ATOM      5  C   UNL     1       0.087  17.052 -17.729  0.00  0.00    +0.000 C 
ATOM      6  C   UNL     1       2.306  19.496 -16.524  0.00  0.00    +0.000 C 
ATOM      7  C   UNL     1      -0.172  18.454 -15.649  0.00  0.00    +0.000 C 
ATOM      8  C   UNL     1       3.109  17.117 -16.128  0.00  0.00    +0.000 C 
ATOM      9  C   UNL     1       1.564  20.556 -15.730  0.00  0.00    +0.000 C 
ATOM     10  C   UNL     1       0.333  19.751 -15.369  0.00  0.00    +0.000 C 
ENDROOT
BRANCH   7  11
ATOM     11  C   UNL     1      -1.348  18.111 -15.225  0.00  0.00    +0.000 C 
ATOM     12  C   UNL     1      -2.734  17.695 -14.716  0.00  0.00    +0.000 C 
BRANCH  12  13
ATOM     13  C   UNL     1      -3.903  17.338 -14.279  0.00  0.00    +0.000 A 
ATOM     14  C   UNL     1      -4.499  18.051 -13.189  0.00  0.00    +0.000 A 
ATOM     15  C   UNL     1      -4.724  16.182 -14.759  0.00  0.00    +0.000 A 
ATOM     16  C   UNL     1      -5.716  17.885 -12.466  0.00  0.00    +0.000 A 
ATOM     17  C   UNL     1      -6.384  16.755 -13.018  0.00  0.00    +0.000 A 
ATOM     18  C   UNL     1      -6.027  15.883 -14.086  0.00  0.00    +0.000 A 
ATOM     19  C   UNL     1      -4.333  15.403 -15.784  0.00  0.00    +0.000 C 
BRANCH  16  20
ATOM     20  O   UNL     1      -6.396  18.958 -11.969  0.00  0.00    +0.000 OA
ATOM     21  H   UNL     1      -6.645  19.576 -12.676  0.00  0.00    +0.000 HD
ENDBRANCH  16  20
BRANCH  18  22
ATOM     22  O   UNL     1      -6.827  14.840 -14.487  0.00  0.00    +0.000 OA
ATOM     23  H   UNL     1      -6.571  14.020 -14.022  0.00  0.00    +0.000 HD
ENDBRANCH  18  22
ENDBRANCH  12  13
ENDBRANCH   7  11
BRANCH   2  24
ATOM     24  C   UNL     1       3.423  18.036 -19.218  0.00  0.00    +0.000 C 
ATOM     25  C   UNL     1       3.784  19.375 -19.808  0.00  0.00    +0.000 C 
BRANCH  24  26
ATOM     26  C   UNL     1       4.212  16.942 -19.667  0.00  0.00    +0.000 C 
ATOM     27  C   UNL     1       5.074  15.772 -20.158  0.00  0.00    +0.000 C 
BRANCH  27  28
ATOM     28  C   UNL     1       5.944  14.611 -20.656  0.00  0.00    +0.000 C 
BRANCH  28  29
ATOM     29  C   UNL     1       6.776  13.505 -21.128  0.00  0.00    +0.000 C 
ATOM     30  C   UNL     1       6.037  12.161 -21.128  0.00  0.00    +0.000 C 
ATOM     31  C   UNL     1       7.413  13.770 -22.497  0.00  0.00    +0.000 C 
BRANCH  29  32
ATOM     32  O   UNL     1       7.860  13.336 -20.242  0.00  0.00    +0.000 OA
ATOM     33  H   UNL     1       8.496  12.954 -20.865  0.00  0.00    +0.000 HD
ENDBRANCH  29  32
ENDBRANCH  28  29
ENDBRANCH  27  28
ENDBRANCH  24  26
ENDBRANCH   2  24
TORSDOF 9
ENDMDL
MODEL 9
REMARK VINA RESULT:      -6.0     20.321     24.238
REMARK  Name = Calcitriol.pdbqt.pdb
REMARK  9 active torsions:
REMARK  status: ('A' for Active; 'I' for Inactive)
REMARK    1  A    between atoms: C_2  and  C_24
REMARK    2  A    between atoms: C_7  and  C_11
REMARK    3  A    between atoms: C_12  and  C_13
REMARK    4  A    between atoms: C_16  and  O_20
REMARK    5  A    between atoms: C_18  and  O_22
REMARK    6  A    between atoms: C_24  and  C_26
REMARK    7  A    between atoms: C_27  and  C_28
REMARK    8  A    between atoms: C_28  and  C_29
REMARK    9  A    between atoms: C_29  and  O_32
REMARK                            x       y       z     vdW  Elec       q    Type
REMARK                         _______ _______ _______ _____ _____    ______ ____
ROOT
ATOM      1  C   UNL     1       2.568   1.817   1.928  0.00  0.00    +0.000 C 
ATOM      2  C   UNL     1       3.058   2.975   1.064  0.00  0.00    +0.000 C 
ATOM      3  C   UNL     1       1.003   1.690   1.510  0.00  0.00    +0.000 C 
ATOM      4  C   UNL     1       2.027   3.371   0.161  0.00  0.00    +0.000 C 
ATOM      5  C   UNL     1       0.777   2.572   0.408  0.00  0.00    +0.000 C 
ATOM      6  C   UNL     1       2.595   2.084   3.375  0.00  0.00    +0.000 C 
ATOM      7  C   UNL     1      -0.032   1.471   2.528  0.00  0.00    +0.000 C 
ATOM      8  C   UNL     1       3.251   0.484   1.512  0.00  0.00    +0.000 C 
ATOM      9  C   UNL     1       1.669   2.055   4.579  0.00  0.00    +0.000 C 
ATOM     10  C   UNL     1       0.383   1.686   3.869  0.00  0.00    +0.000 C 
ENDROOT
BRANCH   7  11
ATOM     11  C   UNL     1      -1.280   1.241   2.265  0.00  0.00    +0.000 C 
ATOM     12  C   UNL     1      -2.754   0.955   1.952  0.00  0.00    +0.000 C 
BRANCH  12  13
ATOM     13  C   UNL     1      -4.001   0.704   1.689  0.00  0.00    +0.000 A 
ATOM     14  C   UNL     1      -5.025   1.526   2.262  0.00  0.00    +0.000 A 
ATOM     15  C   UNL     1      -4.532  -0.427   0.865  0.00  0.00    +0.000 A 
ATOM     16  C   UNL     1      -6.448   1.487   2.208  0.00  0.00    +0.000 A 
ATOM     17  C   UNL     1      -6.810   0.368   1.406  0.00  0.00    +0.000 A 
ATOM     18  C   UNL     1      -6.012  -0.596   0.725  0.00  0.00    +0.000 A 
ATOM     19  C   UNL     1      -3.720  -1.297   0.236  0.00  0.00    +0.000 C 
BRANCH  16  20
ATOM     20  O   UNL     1      -7.189   2.633   2.230  0.00  0.00    +0.000 OA
ATOM     21  H   UNL     1      -7.223   3.014   3.123  0.00  0.00    +0.000 HD
ENDBRANCH  16  20
BRANCH  18  22
ATOM     22  O   UNL     1      -6.559  -1.610  -0.024  0.00  0.00    +0.000 OA
ATOM     23  H   UNL     1      -6.290  -1.522  -0.959  0.00  0.00    +0.000 HD
ENDBRANCH  18  22
ENDBRANCH  12  13
ENDBRANCH   7  11
BRANCH   2  24
ATOM     24  C   UNL     1       4.396   3.477   1.041  0.00  0.00    +0.000 C 
ATOM     25  C   UNL     1       5.232   3.530  -0.212  0.00  0.00    +0.000 C 
BRANCH  24  26
ATOM     26  C   UNL     1       5.085   3.786   2.245  0.00  0.00    +0.000 C 
ATOM     27  C   UNL     1       5.821   4.133   3.545  0.00  0.00    +0.000 C 
BRANCH  27  28
ATOM     28  C   UNL     1       6.550   4.493   4.846  0.00  0.00    +0.000 C 
BRANCH  28  29
ATOM     29  C   UNL     1       7.249   4.833   6.085  0.00  0.00    +0.000 C 
ATOM     30  C   UNL     1       7.336   6.345   6.324  0.00  0.00    +0.000 C 
ATOM     31  C   UNL     1       6.675   4.124   7.316  0.00  0.00    +0.000 C 
BRANCH  29  32
ATOM     32  O   UNL     1       8.586   4.391   5.994  0.00  0.00    +0.000 OA
ATOM     33  H   UNL     1       9.002   5.086   6.524  0.00  0.00    +0.000 HD
ENDBRANCH  29  32
ENDBRANCH  28  29
ENDBRANCH  27  28
ENDBRANCH  24  26
ENDBRANCH   2  24
TORSDOF 9
ENDMDL
