MODEL 1
REMARK VINA RESULT:      -7.8      0.000      0.000
REMARK  Name = 
REMARK  17 active torsions:
REMARK  status: ('A' for Active; 'I' for Inactive)
REMARK    1  A    between atoms: O_1  and  C_14
REMARK    2  A    between atoms: O_2  and  C_32
REMARK    3  A    between atoms: O_2  and  C_36
REMARK    4  A    between atoms: O_6  and  C_39
REMARK    5  A    between atoms: O_7  and  C_41
REMARK    6  A    between atoms: O_7  and  C_43
REMARK    7  A    between atoms: O_9  and  C_47
REMARK    8  A    between atoms: O_9  and  C_49
REMARK    9  A    between atoms: O_10  and  C_45
REMARK   10  A    between atoms: O_12  and  C_51
REMARK   11  A    between atoms: O_13  and  C_53
REMARK   12  A    between atoms: C_17  and  C_29
REMARK   13  A    between atoms: C_18  and  C_30
REMARK   14  A    between atoms: C_22  and  C_33
REMARK   15  A    between atoms: C_40  and  C_42
REMARK   16  A    between atoms: C_46  and  C_48
REMARK   17  A    between atoms: C_52  and  C_54
REMARK                            x       y       z     vdW  Elec       q    Type
REMARK                         _______ _______ _______ _____ _____    ______ ____
ROOT
ATOM      1  O   UNL     1       9.252  -3.693 -21.463  0.00  0.00    +0.000 OA
ATOM      2  C   UNL     1       8.154  -3.783 -20.560  0.00  0.00    +0.000 C 
ATOM      3  C   UNL     1       8.476  -4.642 -19.334  0.00  0.00    +0.000 C 
ATOM      4  C   UNL     1       9.957  -4.983 -19.268  0.00  0.00    +0.000 C 
ATOM      5  C   UNL     1      10.394  -3.056 -20.877  0.00  0.00    +0.000 C 
ATOM      6  C   UNL     1      10.885  -3.800 -19.612  0.00  0.00    +0.000 C 
ATOM      7  C   UNL     1      11.479  -3.020 -21.953  0.00  0.00    +0.000 C 
ENDROOT
BRANCH   4   8
ATOM      8  O   UNL     1      10.293  -5.626 -18.044  0.00  0.00    +0.000 OA
ATOM      9  H   UNL     1      10.402  -6.578 -18.254  0.00  0.00    +0.000 HD
ENDBRANCH   4   8
BRANCH   2  10
ATOM     10  O   UNL     1       6.963  -4.235 -21.206  0.00  0.00    +0.000 OA
BRANCH  10  29
ATOM     11  C   UNL     1       0.312  -0.554 -19.543  0.00  0.00    +0.000 C 
ATOM     12  C   UNL     1       1.606  -1.341 -19.887  0.00  0.00    +0.000 C 
ATOM     13  C   UNL     1       1.774  -1.623 -21.402  0.00  0.00    +0.000 C 
ATOM     14  C   UNL     1       0.085   0.714 -20.414  0.00  0.00    +0.000 C 
ATOM     15  C   UNL     1       3.097  -2.421 -21.749  0.00  0.00    +0.000 C 
ATOM     16  C   UNL     1       3.220  -3.680 -20.827  0.00  0.00    +0.000 C 
ATOM     17  C   UNL     1       1.615  -0.312 -22.199  0.00  0.00    +0.000 C 
ATOM     18  C   UNL     1       0.280   0.377 -21.913  0.00  0.00    +0.000 C 
ATOM     19  C   UNL     1      -1.402   1.053 -20.077  0.00  0.00    +0.000 C 
ATOM     20  C   UNL     1       1.697  -2.647 -19.083  0.00  0.00    +0.000 C 
ATOM     21  C   UNL     1      -0.993  -1.352 -19.710  0.00  0.00    +0.000 C 
ATOM     22  C   UNL     1       3.019  -3.354 -19.337  0.00  0.00    +0.000 C 
ATOM     23  C   UNL     1      -2.092  -0.325 -20.006  0.00  0.00    +0.000 C 
ATOM     24  C   UNL     1       4.367  -1.538 -21.602  0.00  0.00    +0.000 C 
ATOM     25  C   UNL     1       4.560  -4.423 -21.009  0.00  0.00    +0.000 C 
ATOM     26  C   UNL     1       1.022   1.873 -20.019  0.00  0.00    +0.000 C 
ATOM     27  C   UNL     1       2.992  -2.898 -23.225  0.00  0.00    +0.000 C 
ATOM     28  C   UNL     1       5.675  -2.307 -21.786  0.00  0.00    +0.000 C 
ATOM     29  C   UNL     1       5.780  -3.511 -20.851  0.00  0.00    +0.000 C 
BRANCH  19  32
ATOM     30  O   UNL     1      -2.544   4.149 -21.843  0.00  0.00    +0.000 OA
ATOM     31  O   UNL     1      -4.363   3.479 -23.074  0.00  0.00    +0.000 OA
ATOM     32  C   UNL     1      -2.086   2.075 -20.945  0.00  0.00    +0.000 C 
ATOM     33  C   UNL     1      -1.632   3.488 -20.966  0.00  0.00    +0.000 C 
ATOM     34  C   UNL     1      -3.164   1.939 -21.718  0.00  0.00    +0.000 C 
ATOM     35  C   UNL     1      -3.451   3.248 -22.302  0.00  0.00    +0.000 C 
ENDBRANCH  19  32
BRANCH  11  36
ATOM     36  O   UNL     1       0.362  -0.175 -18.156  0.00  0.00    +0.000 OA
ATOM     37  H   UNL     1       1.290  -0.025 -17.909  0.00  0.00    +0.000 HD
ENDBRANCH  11  36
ENDBRANCH  10  29
ENDBRANCH   2  10
BRANCH   6  38
ATOM     38  O   UNL     1      11.320  -2.900 -18.588  0.00  0.00    +0.000 OA
BRANCH  38  40
ATOM     39  O   UNL     1      12.198  -0.841 -19.376  0.00  0.00    +0.000 OA
ATOM     40  C   UNL     1      11.181  -1.487 -18.622  0.00  0.00    +0.000 C 
ATOM     41  C   UNL     1      10.967  -0.810 -17.272  0.00  0.00    +0.000 C 
ATOM     42  C   UNL     1      11.554   0.598 -17.227  0.00  0.00    +0.000 C 
ATOM     43  C   UNL     1      11.787   0.481 -19.774  0.00  0.00    +0.000 C 
ATOM     44  C   UNL     1      11.470   1.381 -18.553  0.00  0.00    +0.000 C 
ATOM     45  C   UNL     1      12.929   1.063 -20.605  0.00  0.00    +0.000 C 
BRANCH  42  46
ATOM     46  O   UNL     1      11.015   1.338 -16.133  0.00  0.00    +0.000 OA
ATOM     47  H   UNL     1      10.052   1.403 -16.253  0.00  0.00    +0.000 HD
ENDBRANCH  42  46
BRANCH  44  48
ATOM     48  O   UNL     1      10.311   2.193 -18.779  0.00  0.00    +0.000 OA
BRANCH  48  50
ATOM     49  O   UNL     1       8.691   1.944 -20.460  0.00  0.00    +0.000 OA
ATOM     50  C   UNL     1       9.091   1.561 -19.150  0.00  0.00    +0.000 C 
ATOM     51  C   UNL     1       8.032   2.028 -18.146  0.00  0.00    +0.000 C 
ATOM     52  C   UNL     1       6.629   2.042 -18.749  0.00  0.00    +0.000 C 
ATOM     53  C   UNL     1       7.553   1.203 -20.937  0.00  0.00    +0.000 C 
ATOM     54  C   UNL     1       6.489   0.983 -19.845  0.00  0.00    +0.000 C 
ATOM     55  C   UNL     1       6.988   2.000 -22.108  0.00  0.00    +0.000 C 
BRANCH  52  56
ATOM     56  O   UNL     1       5.678   1.772 -17.711  0.00  0.00    +0.000 OA
ATOM     57  H   UNL     1       6.092   1.144 -17.091  0.00  0.00    +0.000 HD
ENDBRANCH  52  56
BRANCH  54  58
ATOM     58  O   UNL     1       6.687  -0.311 -19.248  0.00  0.00    +0.000 OA
ATOM     59  H   UNL     1       7.359  -0.180 -18.547  0.00  0.00    +0.000 HD
ENDBRANCH  54  58
ENDBRANCH  48  50
ENDBRANCH  44  48
ENDBRANCH  38  40
ENDBRANCH   6  38
TORSDOF 12
ENDMDL
MODEL 2
REMARK VINA RESULT:      -7.7      4.770      7.817
REMARK  Name = 
REMARK  17 active torsions:
REMARK  status: ('A' for Active; 'I' for Inactive)
REMARK    1  A    between atoms: O_1  and  C_14
REMARK    2  A    between atoms: O_2  and  C_32
REMARK    3  A    between atoms: O_2  and  C_36
REMARK    4  A    between atoms: O_6  and  C_39
REMARK    5  A    between atoms: O_7  and  C_41
REMARK    6  A    between atoms: O_7  and  C_43
REMARK    7  A    between atoms: O_9  and  C_47
REMARK    8  A    between atoms: O_9  and  C_49
REMARK    9  A    between atoms: O_10  and  C_45
REMARK   10  A    between atoms: O_12  and  C_51
REMARK   11  A    between atoms: O_13  and  C_53
REMARK   12  A    between atoms: C_17  and  C_29
REMARK   13  A    between atoms: C_18  and  C_30
REMARK   14  A    between atoms: C_22  and  C_33
REMARK   15  A    between atoms: C_40  and  C_42
REMARK   16  A    between atoms: C_46  and  C_48
REMARK   17  A    between atoms: C_52  and  C_54
REMARK                            x       y       z     vdW  Elec       q    Type
REMARK                         _______ _______ _______ _____ _____    ______ ____
ROOT
ATOM      1  O   UNL     1       0.903  -2.543 -18.923  0.00  0.00    +0.000 OA
ATOM      2  C   UNL     1       0.677  -1.136 -18.943  0.00  0.00    +0.000 C 
ATOM      3  C   UNL     1       1.774  -0.360 -18.209  0.00  0.00    +0.000 C 
ATOM      4  C   UNL     1       2.948  -1.259 -17.853  0.00  0.00    +0.000 C 
ATOM      5  C   UNL     1       2.111  -2.915 -19.598  0.00  0.00    +0.000 C 
ATOM      6  C   UNL     1       3.353  -2.231 -18.979  0.00  0.00    +0.000 C 
ATOM      7  C   UNL     1       2.215  -4.437 -19.507  0.00  0.00    +0.000 C 
ENDROOT
BRANCH   4   8
ATOM      8  O   UNL     1       4.041  -0.511 -17.332  0.00  0.00    +0.000 OA
ATOM      9  H   UNL     1       4.738  -0.524 -18.022  0.00  0.00    +0.000 HD
ENDBRANCH   4   8
BRANCH   2  10
ATOM     10  O   UNL     1      -0.617  -0.792 -18.448  0.00  0.00    +0.000 OA
BRANCH  10  29
ATOM     11  C   UNL     1      -6.606  -3.310 -22.729  0.00  0.00    +0.000 C 
ATOM     12  C   UNL     1      -5.399  -2.763 -21.919  0.00  0.00    +0.000 C 
ATOM     13  C   UNL     1      -5.675  -1.394 -21.246  0.00  0.00    +0.000 C 
ATOM     14  C   UNL     1      -7.957  -3.285 -21.958  0.00  0.00    +0.000 C 
ATOM     15  C   UNL     1      -4.444  -0.843 -20.417  0.00  0.00    +0.000 C 
ATOM     16  C   UNL     1      -3.144  -0.899 -21.286  0.00  0.00    +0.000 C 
ATOM     17  C   UNL     1      -6.986  -1.463 -20.436  0.00  0.00    +0.000 C 
ATOM     18  C   UNL     1      -8.172  -1.902 -21.296  0.00  0.00    +0.000 C 
ATOM     19  C   UNL     1      -8.973  -3.547 -23.116  0.00  0.00    +0.000 C 
ATOM     20  C   UNL     1      -4.131  -2.693 -22.782  0.00  0.00    +0.000 C 
ATOM     21  C   UNL     1      -6.912  -2.544 -24.028  0.00  0.00    +0.000 C 
ATOM     22  C   UNL     1      -2.929  -2.269 -21.954  0.00  0.00    +0.000 C 
ATOM     23  C   UNL     1      -8.409  -2.733 -24.298  0.00  0.00    +0.000 C 
ATOM     24  C   UNL     1      -4.226  -1.635 -19.098  0.00  0.00    +0.000 C 
ATOM     25  C   UNL     1      -1.879  -0.515 -20.492  0.00  0.00    +0.000 C 
ATOM     26  C   UNL     1      -8.041  -4.390 -20.885  0.00  0.00    +0.000 C 
ATOM     27  C   UNL     1      -4.737   0.642 -20.060  0.00  0.00    +0.000 C 
ATOM     28  C   UNL     1      -2.963  -1.231 -18.339  0.00  0.00    +0.000 C 
ATOM     29  C   UNL     1      -1.708  -1.327 -19.205  0.00  0.00    +0.000 C 
BRANCH  19  32
ATOM     30  O   UNL     1     -12.429  -2.184 -22.664  0.00  0.00    +0.000 OA
ATOM     31  O   UNL     1     -13.579  -3.857 -21.593  0.00  0.00    +0.000 OA
ATOM     32  C   UNL     1     -10.430  -3.324 -22.812  0.00  0.00    +0.000 C 
ATOM     33  C   UNL     1     -11.095  -2.039 -23.148  0.00  0.00    +0.000 C 
ATOM     34  C   UNL     1     -11.292  -4.122 -22.181  0.00  0.00    +0.000 C 
ATOM     35  C   UNL     1     -12.565  -3.410 -22.096  0.00  0.00    +0.000 C 
ENDBRANCH  19  32
BRANCH  11  36
ATOM     36  O   UNL     1      -6.314  -4.659 -23.132  0.00  0.00    +0.000 OA
ATOM     37  H   UNL     1      -5.371  -4.833 -22.972  0.00  0.00    +0.000 HD
ENDBRANCH  11  36
ENDBRANCH  10  29
ENDBRANCH   2  10
BRANCH   6  38
ATOM     38  O   UNL     1       4.304  -1.833 -19.971  0.00  0.00    +0.000 OA
BRANCH  38  40
ATOM     39  O   UNL     1       6.211  -0.532 -20.523  0.00  0.00    +0.000 OA
ATOM     40  C   UNL     1       5.684  -1.593 -19.738  0.00  0.00    +0.000 C 
ATOM     41  C   UNL     1       6.586  -2.823 -19.781  0.00  0.00    +0.000 C 
ATOM     42  C   UNL     1       7.994  -2.497 -20.273  0.00  0.00    +0.000 C 
ATOM     43  C   UNL     1       7.430  -0.019 -19.951  0.00  0.00    +0.000 C 
ATOM     44  C   UNL     1       8.525  -1.112 -19.851  0.00  0.00    +0.000 C 
ATOM     45  C   UNL     1       7.882   1.133 -20.844  0.00  0.00    +0.000 C 
BRANCH  42  46
ATOM     46  O   UNL     1       8.904  -3.543 -19.940  0.00  0.00    +0.000 OA
ATOM     47  H   UNL     1       9.753  -3.361 -20.379  0.00  0.00    +0.000 HD
ENDBRANCH  42  46
BRANCH  44  48
ATOM     48  O   UNL     1       9.255  -1.020 -18.622  0.00  0.00    +0.000 OA
BRANCH  48  50
ATOM     49  O   UNL     1      10.895   0.544 -19.235  0.00  0.00    +0.000 OA
ATOM     50  C   UNL     1       9.887   0.209 -18.288  0.00  0.00    +0.000 C 
ATOM     51  C   UNL     1      10.537   0.011 -16.914  0.00  0.00    +0.000 C 
ATOM     52  C   UNL     1      11.770   0.891 -16.724  0.00  0.00    +0.000 C 
ATOM     53  C   UNL     1      11.445   1.858 -19.027  0.00  0.00    +0.000 C 
ATOM     54  C   UNL     1      11.657   2.183 -17.537  0.00  0.00    +0.000 C 
ATOM     55  C   UNL     1      12.762   1.893 -19.794  0.00  0.00    +0.000 C 
BRANCH  52  56
ATOM     56  O   UNL     1      11.893   1.220 -15.335  0.00  0.00    +0.000 OA
ATOM     57  H   UNL     1      12.180   2.149 -15.278  0.00  0.00    +0.000 HD
ENDBRANCH  52  56
BRANCH  54  58
ATOM     58  O   UNL     1      10.523   2.922 -17.049  0.00  0.00    +0.000 OA
ATOM     59  H   UNL     1       9.778   2.686 -17.640  0.00  0.00    +0.000 HD
ENDBRANCH  54  58
ENDBRANCH  48  50
ENDBRANCH  44  48
ENDBRANCH  38  40
ENDBRANCH   6  38
TORSDOF 12
ENDMDL
MODEL 3
REMARK VINA RESULT:      -7.7      7.628     13.293
REMARK  Name = 
REMARK  17 active torsions:
REMARK  status: ('A' for Active; 'I' for Inactive)
REMARK    1  A    between atoms: O_1  and  C_14
REMARK    2  A    between atoms: O_2  and  C_32
REMARK    3  A    between atoms: O_2  and  C_36
REMARK    4  A    between atoms: O_6  and  C_39
REMARK    5  A    between atoms: O_7  and  C_41
REMARK    6  A    between atoms: O_7  and  C_43
REMARK    7  A    between atoms: O_9  and  C_47
REMARK    8  A    between atoms: O_9  and  C_49
REMARK    9  A    between atoms: O_10  and  C_45
REMARK   10  A    between atoms: O_12  and  C_51
REMARK   11  A    between atoms: O_13  and  C_53
REMARK   12  A    between atoms: C_17  and  C_29
REMARK   13  A    between atoms: C_18  and  C_30
REMARK   14  A    between atoms: C_22  and  C_33
REMARK   15  A    between atoms: C_40  and  C_42
REMARK   16  A    between atoms: C_46  and  C_48
REMARK   17  A    between atoms: C_52  and  C_54
REMARK                            x       y       z     vdW  Elec       q    Type
REMARK                         _______ _______ _______ _____ _____    ______ ____
ROOT
ATOM      1  O   UNL     1      -1.244  -0.569 -19.951  0.00  0.00    +0.000 OA
ATOM      2  C   UNL     1      -2.482   0.037 -19.590  0.00  0.00    +0.000 C 
ATOM      3  C   UNL     1      -2.315   1.503 -19.180  0.00  0.00    +0.000 C 
ATOM      4  C   UNL     1      -0.916   2.011 -19.491  0.00  0.00    +0.000 C 
ATOM      5  C   UNL     1      -0.643   0.051 -21.095  0.00  0.00    +0.000 C 
ATOM      6  C   UNL     1      -0.378   1.558 -20.863  0.00  0.00    +0.000 C 
ATOM      7  C   UNL     1       0.658  -0.703 -21.370  0.00  0.00    +0.000 C 
ENDROOT
BRANCH   4   8
ATOM      8  O   UNL     1      -0.809   3.415 -19.278  0.00  0.00    +0.000 OA
ATOM      9  H   UNL     1      -1.307   3.607 -18.456  0.00  0.00    +0.000 HD
ENDBRANCH   4   8
BRANCH   2  10
ATOM     10  O   UNL     1      -3.169  -0.704 -18.582  0.00  0.00    +0.000 OA
BRANCH  10  29
ATOM     11  C   UNL     1     -10.543  -2.535 -20.263  0.00  0.00    +0.000 C 
ATOM     12  C   UNL     1      -9.060  -2.231 -19.915  0.00  0.00    +0.000 C 
ATOM     13  C   UNL     1      -8.059  -2.722 -20.991  0.00  0.00    +0.000 C 
ATOM     14  C   UNL     1     -10.960  -2.116 -21.701  0.00  0.00    +0.000 C 
ATOM     15  C   UNL     1      -6.549  -2.405 -20.635  0.00  0.00    +0.000 C 
ATOM     16  C   UNL     1      -6.232  -2.878 -19.177  0.00  0.00    +0.000 C 
ATOM     17  C   UNL     1      -8.488  -2.206 -22.380  0.00  0.00    +0.000 C 
ATOM     18  C   UNL     1      -9.918  -2.619 -22.731  0.00  0.00    +0.000 C 
ATOM     19  C   UNL     1     -12.331  -2.850 -21.847  0.00  0.00    +0.000 C 
ATOM     20  C   UNL     1      -8.683  -2.790 -18.535  0.00  0.00    +0.000 C 
ATOM     21  C   UNL     1     -10.931  -4.022 -20.188  0.00  0.00    +0.000 C 
ATOM     22  C   UNL     1      -7.268  -2.389 -18.150  0.00  0.00    +0.000 C 
ATOM     23  C   UNL     1     -12.099  -4.213 -21.163  0.00  0.00    +0.000 C 
ATOM     24  C   UNL     1      -6.219  -0.893 -20.779  0.00  0.00    +0.000 C 
ATOM     25  C   UNL     1      -4.820  -2.468 -18.711  0.00  0.00    +0.000 C 
ATOM     26  C   UNL     1     -11.129  -0.590 -21.842  0.00  0.00    +0.000 C 
ATOM     27  C   UNL     1      -5.649  -3.204 -21.620  0.00  0.00    +0.000 C 
ATOM     28  C   UNL     1      -4.814  -0.523 -20.305  0.00  0.00    +0.000 C 
ATOM     29  C   UNL     1      -4.547  -0.969 -18.869  0.00  0.00    +0.000 C 
BRANCH  19  32
ATOM     30  O   UNL     1     -13.441  -3.793 -25.295  0.00  0.00    +0.000 OA
ATOM     31  O   UNL     1     -14.489  -1.916 -26.102  0.00  0.00    +0.000 OA
ATOM     32  C   UNL     1     -12.933  -2.912 -23.225  0.00  0.00    +0.000 C 
ATOM     33  C   UNL     1     -12.809  -4.132 -24.061  0.00  0.00    +0.000 C 
ATOM     34  C   UNL     1     -13.559  -1.958 -23.916  0.00  0.00    +0.000 C 
ATOM     35  C   UNL     1     -13.895  -2.515 -25.224  0.00  0.00    +0.000 C 
ENDBRANCH  19  32
BRANCH  11  36
ATOM     36  O   UNL     1     -11.384  -1.864 -19.310  0.00  0.00    +0.000 OA
ATOM     37  H   UNL     1     -12.124  -2.453 -19.081  0.00  0.00    +0.000 HD
ENDBRANCH  11  36
ENDBRANCH  10  29
ENDBRANCH   2  10
BRANCH   6  38
ATOM     38  O   UNL     1      -0.633   2.339 -22.034  0.00  0.00    +0.000 OA
BRANCH  38  40
ATOM     39  O   UNL     1      -2.559   1.546 -23.172  0.00  0.00    +0.000 OA
ATOM     40  C   UNL     1      -1.919   2.652 -22.549  0.00  0.00    +0.000 C 
ATOM     41  C   UNL     1      -1.999   3.906 -23.415  0.00  0.00    +0.000 C 
ATOM     42  C   UNL     1      -3.074   3.803 -24.493  0.00  0.00    +0.000 C 
ATOM     43  C   UNL     1      -3.983   1.752 -23.258  0.00  0.00    +0.000 C 
ATOM     44  C   UNL     1      -4.335   3.017 -24.080  0.00  0.00    +0.000 C 
ATOM     45  C   UNL     1      -4.569   0.497 -23.900  0.00  0.00    +0.000 C 
BRANCH  42  46
ATOM     46  O   UNL     1      -3.393   5.091 -25.017  0.00  0.00    +0.000 OA
ATOM     47  H   UNL     1      -4.361   5.160 -25.089  0.00  0.00    +0.000 HD
ENDBRANCH  42  46
BRANCH  44  48
ATOM     48  O   UNL     1      -5.417   3.749 -23.490  0.00  0.00    +0.000 OA
BRANCH  48  50
ATOM     49  O   UNL     1      -7.526   4.216 -24.411  0.00  0.00    +0.000 OA
ATOM     50  C   UNL     1      -6.747   3.279 -23.677  0.00  0.00    +0.000 C 
ATOM     51  C   UNL     1      -7.353   3.109 -22.279  0.00  0.00    +0.000 C 
ATOM     52  C   UNL     1      -8.868   3.298 -22.279  0.00  0.00    +0.000 C 
ATOM     53  C   UNL     1      -8.826   3.708 -24.764  0.00  0.00    +0.000 C 
ATOM     54  C   UNL     1      -9.474   2.898 -23.626  0.00  0.00    +0.000 C 
ATOM     55  C   UNL     1      -9.671   4.924 -25.129  0.00  0.00    +0.000 C 
BRANCH  52  56
ATOM     56  O   UNL     1      -9.434   2.479 -21.248  0.00  0.00    +0.000 OA
ATOM     57  H   UNL     1     -10.188   2.966 -20.868  0.00  0.00    +0.000 HD
ENDBRANCH  52  56
BRANCH  54  58
ATOM     58  O   UNL     1      -9.216   1.498 -23.837  0.00  0.00    +0.000 OA
ATOM     59  H   UNL     1     -10.058   1.040 -23.635  0.00  0.00    +0.000 HD
ENDBRANCH  54  58
ENDBRANCH  48  50
ENDBRANCH  44  48
ENDBRANCH  38  40
ENDBRANCH   6  38
TORSDOF 12
ENDMDL
MODEL 4
REMARK VINA RESULT:      -7.4      2.814     10.741
REMARK  Name = 
REMARK  17 active torsions:
REMARK  status: ('A' for Active; 'I' for Inactive)
REMARK    1  A    between atoms: O_1  and  C_14
REMARK    2  A    between atoms: O_2  and  C_32
REMARK    3  A    between atoms: O_2  and  C_36
REMARK    4  A    between atoms: O_6  and  C_39
REMARK    5  A    between atoms: O_7  and  C_41
REMARK    6  A    between atoms: O_7  and  C_43
REMARK    7  A    between atoms: O_9  and  C_47
REMARK    8  A    between atoms: O_9  and  C_49
REMARK    9  A    between atoms: O_10  and  C_45
REMARK   10  A    between atoms: O_12  and  C_51
REMARK   11  A    between atoms: O_13  and  C_53
REMARK   12  A    between atoms: C_17  and  C_29
REMARK   13  A    between atoms: C_18  and  C_30
REMARK   14  A    between atoms: C_22  and  C_33
REMARK   15  A    between atoms: C_40  and  C_42
REMARK   16  A    between atoms: C_46  and  C_48
REMARK   17  A    between atoms: C_52  and  C_54
REMARK                            x       y       z     vdW  Elec       q    Type
REMARK                         _______ _______ _______ _____ _____    ______ ____
ROOT
ATOM      1  O   UNL     1      -2.348  -1.744 -18.099  0.00  0.00    +0.000 OA
ATOM      2  C   UNL     1      -1.528  -1.782 -19.265  0.00  0.00    +0.000 C 
ATOM      3  C   UNL     1      -2.349  -1.719 -20.556  0.00  0.00    +0.000 C 
ATOM      4  C   UNL     1      -3.807  -1.388 -20.273  0.00  0.00    +0.000 C 
ATOM      5  C   UNL     1      -3.086  -0.521 -17.988  0.00  0.00    +0.000 C 
ATOM      6  C   UNL     1      -4.001  -0.285 -19.213  0.00  0.00    +0.000 C 
ATOM      7  C   UNL     1      -3.902  -0.616 -16.700  0.00  0.00    +0.000 C 
ENDROOT
BRANCH   4   8
ATOM      8  O   UNL     1      -4.533  -1.153 -21.473  0.00  0.00    +0.000 OA
ATOM      9  H   UNL     1      -3.867  -0.951 -22.164  0.00  0.00    +0.000 HD
ENDBRANCH   4   8
BRANCH   2  10
ATOM     10  O   UNL     1      -0.651  -2.909 -19.267  0.00  0.00    +0.000 OA
BRANCH  10  29
ATOM     11  C   UNL     1       6.748  -1.513 -21.232  0.00  0.00    +0.000 C 
ATOM     12  C   UNL     1       5.291  -1.839 -20.802  0.00  0.00    +0.000 C 
ATOM     13  C   UNL     1       4.965  -1.414 -19.348  0.00  0.00    +0.000 C 
ATOM     14  C   UNL     1       7.194  -0.056 -20.922  0.00  0.00    +0.000 C 
ATOM     15  C   UNL     1       3.478  -1.743 -18.916  0.00  0.00    +0.000 C 
ATOM     16  C   UNL     1       3.138  -3.232 -19.258  0.00  0.00    +0.000 C 
ATOM     17  C   UNL     1       5.360   0.062 -19.133  0.00  0.00    +0.000 C 
ATOM     18  C   UNL     1       6.830   0.318 -19.464  0.00  0.00    +0.000 C 
ATOM     19  C   UNL     1       8.738  -0.159 -21.135  0.00  0.00    +0.000 C 
ATOM     20  C   UNL     1       4.964  -3.325 -21.015  0.00  0.00    +0.000 C 
ATOM     21  C   UNL     1       7.828  -2.378 -20.558  0.00  0.00    +0.000 C 
ATOM     22  C   UNL     1       3.504  -3.613 -20.704  0.00  0.00    +0.000 C 
ATOM     23  C   UNL     1       9.107  -1.532 -20.538  0.00  0.00    +0.000 C 
ATOM     24  C   UNL     1       2.449  -0.800 -19.599  0.00  0.00    +0.000 C 
ATOM     25  C   UNL     1       1.657  -3.580 -19.000  0.00  0.00    +0.000 C 
ATOM     26  C   UNL     1       6.567   0.968 -21.890  0.00  0.00    +0.000 C 
ATOM     27  C   UNL     1       3.376  -1.554 -17.376  0.00  0.00    +0.000 C 
ATOM     28  C   UNL     1       0.993  -1.176 -19.324  0.00  0.00    +0.000 C 
ATOM     29  C   UNL     1       0.685  -2.625 -19.698  0.00  0.00    +0.000 C 
BRANCH  19  32
ATOM     30  O   UNL     1      10.650   3.036 -20.756  0.00  0.00    +0.000 OA
ATOM     31  O   UNL     1      11.683   2.858 -18.713  0.00  0.00    +0.000 OA
ATOM     32  C   UNL     1       9.574   0.999 -20.659  0.00  0.00    +0.000 C 
ATOM     33  C   UNL     1       9.770   2.202 -21.507  0.00  0.00    +0.000 C 
ATOM     34  C   UNL     1      10.287   1.121 -19.539  0.00  0.00    +0.000 C 
ATOM     35  C   UNL     1      10.960   2.417 -19.588  0.00  0.00    +0.000 C 
ENDBRANCH  19  32
BRANCH  11  36
ATOM     36  O   UNL     1       6.875  -1.759 -22.643  0.00  0.00    +0.000 OA
ATOM     37  H   UNL     1       7.653  -1.277 -22.973  0.00  0.00    +0.000 HD
ENDBRANCH  11  36
ENDBRANCH  10  29
ENDBRANCH   2  10
BRANCH   6  38
ATOM     38  O   UNL     1      -4.042   1.092 -19.602  0.00  0.00    +0.000 OA
BRANCH  38  40
ATOM     39  O   UNL     1      -2.193   2.571 -19.754  0.00  0.00    +0.000 OA
ATOM     40  C   UNL     1      -3.104   1.734 -20.453  0.00  0.00    +0.000 C 
ATOM     41  C   UNL     1      -3.689   2.437 -21.674  0.00  0.00    +0.000 C 
ATOM     42  C   UNL     1      -2.871   3.655 -22.092  0.00  0.00    +0.000 C 
ATOM     43  C   UNL     1      -1.012   2.824 -20.540  0.00  0.00    +0.000 C 
ATOM     44  C   UNL     1      -1.349   3.520 -21.883  0.00  0.00    +0.000 C 
ATOM     45  C   UNL     1      -0.093   3.692 -19.684  0.00  0.00    +0.000 C 
BRANCH  42  46
ATOM     46  O   UNL     1      -3.195   4.052 -23.424  0.00  0.00    +0.000 OA
ATOM     47  H   UNL     1      -2.370   4.099 -23.938  0.00  0.00    +0.000 HD
ENDBRANCH  42  46
BRANCH  44  48
ATOM     48  O   UNL     1      -0.568   2.996 -22.964  0.00  0.00    +0.000 OA
BRANCH  48  50
ATOM     49  O   UNL     1       0.135   3.853 -25.034  0.00  0.00    +0.000 OA
ATOM     50  C   UNL     1       0.350   3.855 -23.627  0.00  0.00    +0.000 C 
ATOM     51  C   UNL     1       1.753   3.310 -23.335  0.00  0.00    +0.000 C 
ATOM     52  C   UNL     1       2.743   3.630 -24.452  0.00  0.00    +0.000 C 
ATOM     53  C   UNL     1       0.932   4.832 -25.725  0.00  0.00    +0.000 C 
ATOM     54  C   UNL     1       2.365   4.927 -25.170  0.00  0.00    +0.000 C 
ATOM     55  C   UNL     1       0.932   4.420 -27.192  0.00  0.00    +0.000 C 
BRANCH  52  56
ATOM     56  O   UNL     1       4.050   3.771 -23.884  0.00  0.00    +0.000 OA
ATOM     57  H   UNL     1       4.545   2.955 -24.082  0.00  0.00    +0.000 HD
ENDBRANCH  52  56
BRANCH  54  58
ATOM     58  O   UNL     1       2.432   6.003 -24.218  0.00  0.00    +0.000 OA
ATOM     59  H   UNL     1       3.097   6.630 -24.571  0.00  0.00    +0.000 HD
ENDBRANCH  54  58
ENDBRANCH  48  50
ENDBRANCH  44  48
ENDBRANCH  38  40
ENDBRANCH   6  38
TORSDOF 12
ENDMDL
MODEL 5
REMARK VINA RESULT:      -7.4     12.875     15.763
REMARK  Name = 
REMARK  17 active torsions:
REMARK  status: ('A' for Active; 'I' for Inactive)
REMARK    1  A    between atoms: O_1  and  C_14
REMARK    2  A    between atoms: O_2  and  C_32
REMARK    3  A    between atoms: O_2  and  C_36
REMARK    4  A    between atoms: O_6  and  C_39
REMARK    5  A    between atoms: O_7  and  C_41
REMARK    6  A    between atoms: O_7  and  C_43
REMARK    7  A    between atoms: O_9  and  C_47
REMARK    8  A    between atoms: O_9  and  C_49
REMARK    9  A    between atoms: O_10  and  C_45
REMARK   10  A    between atoms: O_12  and  C_51
REMARK   11  A    between atoms: O_13  and  C_53
REMARK   12  A    between atoms: C_17  and  C_29
REMARK   13  A    between atoms: C_18  and  C_30
REMARK   14  A    between atoms: C_22  and  C_33
REMARK   15  A    between atoms: C_40  and  C_42
REMARK   16  A    between atoms: C_46  and  C_48
REMARK   17  A    between atoms: C_52  and  C_54
REMARK                            x       y       z     vdW  Elec       q    Type
REMARK                         _______ _______ _______ _____ _____    ______ ____
ROOT
ATOM      1  O   UNL     1       6.453  14.799 -23.077  0.00  0.00    +0.000 OA
ATOM      2  C   UNL     1       5.376  14.803 -22.143  0.00  0.00    +0.000 C 
ATOM      3  C   UNL     1       5.268  13.483 -21.375  0.00  0.00    +0.000 C 
ATOM      4  C   UNL     1       6.477  12.593 -21.624  0.00  0.00    +0.000 C 
ATOM      5  C   UNL     1       7.729  14.655 -22.442  0.00  0.00    +0.000 C 
ATOM      6  C   UNL     1       7.820  13.350 -21.616  0.00  0.00    +0.000 C 
ATOM      7  C   UNL     1       8.778  14.680 -23.553  0.00  0.00    +0.000 C 
ENDROOT
BRANCH   4   8
ATOM      8  O   UNL     1       6.468  11.449 -20.779  0.00  0.00    +0.000 OA
ATOM      9  H   UNL     1       6.378  10.671 -21.369  0.00  0.00    +0.000 HD
ENDBRANCH   4   8
BRANCH   2  10
ATOM     10  O   UNL     1       4.133  15.143 -22.758  0.00  0.00    +0.000 OA
BRANCH  10  29
ATOM     11  C   UNL     1      -2.356  14.190 -18.571  0.00  0.00    +0.000 C 
ATOM     12  C   UNL     1      -1.097  14.385 -19.459  0.00  0.00    +0.000 C 
ATOM     13  C   UNL     1      -0.919  15.838 -19.970  0.00  0.00    +0.000 C 
ATOM     14  C   UNL     1      -2.508  15.244 -17.437  0.00  0.00    +0.000 C 
ATOM     15  C   UNL     1       0.369  16.034 -20.870  0.00  0.00    +0.000 C 
ATOM     16  C   UNL     1       0.417  14.935 -21.983  0.00  0.00    +0.000 C 
ATOM     17  C   UNL     1      -1.002  16.823 -18.786  0.00  0.00    +0.000 C 
ATOM     18  C   UNL     1      -2.306  16.671 -18.001  0.00  0.00    +0.000 C 
ATOM     19  C   UNL     1      -3.982  14.994 -16.984  0.00  0.00    +0.000 C 
ATOM     20  C   UNL     1      -1.081  13.396 -20.634  0.00  0.00    +0.000 C 
ATOM     21  C   UNL     1      -3.695  14.267 -19.325  0.00  0.00    +0.000 C 
ATOM     22  C   UNL     1       0.208  13.513 -21.431  0.00  0.00    +0.000 C 
ATOM     23  C   UNL     1      -4.738  14.736 -18.303  0.00  0.00    +0.000 C 
ATOM     24  C   UNL     1       1.678  15.990 -20.034  0.00  0.00    +0.000 C 
ATOM     25  C   UNL     1       1.721  14.975 -22.805  0.00  0.00    +0.000 C 
ATOM     26  C   UNL     1      -1.521  15.003 -16.276  0.00  0.00    +0.000 C 
ATOM     27  C   UNL     1       0.264  17.426 -21.554  0.00  0.00    +0.000 C 
ATOM     28  C   UNL     1       2.950  16.030 -20.881  0.00  0.00    +0.000 C 
ATOM     29  C   UNL     1       2.981  14.926 -21.936  0.00  0.00    +0.000 C 
BRANCH  19  32
ATOM     30  O   UNL     1      -5.881  17.836 -15.462  0.00  0.00    +0.000 OA
ATOM     31  O   UNL     1      -5.230  17.858 -13.260  0.00  0.00    +0.000 OA
ATOM     32  C   UNL     1      -4.602  16.017 -16.072  0.00  0.00    +0.000 C 
ATOM     33  C   UNL     1      -5.568  17.019 -16.589  0.00  0.00    +0.000 C 
ATOM     34  C   UNL     1      -4.368  16.246 -14.779  0.00  0.00    +0.000 C 
ATOM     35  C   UNL     1      -5.188  17.390 -14.383  0.00  0.00    +0.000 C 
ENDBRANCH  19  32
BRANCH  11  36
ATOM     36  O   UNL     1      -2.309  12.874 -17.993  0.00  0.00    +0.000 OA
ATOM     37  H   UNL     1      -3.220  12.552 -17.882  0.00  0.00    +0.000 HD
ENDBRANCH  11  36
ENDBRANCH  10  29
ENDBRANCH   2  10
BRANCH   6  38
ATOM     38  O   UNL     1       8.541  13.532 -20.393  0.00  0.00    +0.000 OA
BRANCH  38  40
ATOM     39  O   UNL     1      10.786  14.281 -20.223  0.00  0.00    +0.000 OA
ATOM     40  C   UNL     1       9.898  13.173 -20.178  0.00  0.00    +0.000 C 
ATOM     41  C   UNL     1      10.415  12.005 -21.013  0.00  0.00    +0.000 C 
ATOM     42  C   UNL     1      11.903  12.130 -21.330  0.00  0.00    +0.000 C 
ATOM     43  C   UNL     1      12.029  13.977 -19.562  0.00  0.00    +0.000 C 
ATOM     44  C   UNL     1      12.753  12.774 -20.217  0.00  0.00    +0.000 C 
ATOM     45  C   UNL     1      12.885  15.240 -19.634  0.00  0.00    +0.000 C 
BRANCH  42  46
ATOM     46  O   UNL     1      12.438  10.878 -21.756  0.00  0.00    +0.000 OA
ATOM     47  H   UNL     1      13.403  10.900 -21.633  0.00  0.00    +0.000 HD
ENDBRANCH  42  46
BRANCH  44  48
ATOM     48  O   UNL     1      13.339  11.909 -19.236  0.00  0.00    +0.000 OA
BRANCH  48  50
ATOM     49  O   UNL     1      13.831  12.182 -16.956  0.00  0.00    +0.000 OA
ATOM     50  C   UNL     1      12.813  11.914 -17.914  0.00  0.00    +0.000 C 
ATOM     51  C   UNL     1      12.244  10.514 -17.662  0.00  0.00    +0.000 C 
ATOM     52  C   UNL     1      12.289  10.128 -16.185  0.00  0.00    +0.000 C 
ATOM     53  C   UNL     1      13.313  12.360 -15.624  0.00  0.00    +0.000 C 
ATOM     54  C   UNL     1      12.188  11.364 -15.288  0.00  0.00    +0.000 C 
ATOM     55  C   UNL     1      14.501  12.193 -14.683  0.00  0.00    +0.000 C 
BRANCH  52  56
ATOM     56  O   UNL     1      11.191   9.252 -15.904  0.00  0.00    +0.000 OA
ATOM     57  H   UNL     1      10.833   8.947 -16.757  0.00  0.00    +0.000 HD
ENDBRANCH  52  56
BRANCH  54  58
ATOM     58  O   UNL     1      10.916  11.990 -15.529  0.00  0.00    +0.000 OA
ATOM     59  H   UNL     1      11.106  12.774 -16.084  0.00  0.00    +0.000 HD
ENDBRANCH  54  58
ENDBRANCH  48  50
ENDBRANCH  44  48
ENDBRANCH  38  40
ENDBRANCH   6  38
TORSDOF 12
ENDMDL
MODEL 6
REMARK VINA RESULT:      -7.2      3.575     12.422
REMARK  Name = 
REMARK  17 active torsions:
REMARK  status: ('A' for Active; 'I' for Inactive)
REMARK    1  A    between atoms: O_1  and  C_14
REMARK    2  A    between atoms: O_2  and  C_32
REMARK    3  A    between atoms: O_2  and  C_36
REMARK    4  A    between atoms: O_6  and  C_39
REMARK    5  A    between atoms: O_7  and  C_41
REMARK    6  A    between atoms: O_7  and  C_43
REMARK    7  A    between atoms: O_9  and  C_47
REMARK    8  A    between atoms: O_9  and  C_49
REMARK    9  A    between atoms: O_10  and  C_45
REMARK   10  A    between atoms: O_12  and  C_51
REMARK   11  A    between atoms: O_13  and  C_53
REMARK   12  A    between atoms: C_17  and  C_29
REMARK   13  A    between atoms: C_18  and  C_30
REMARK   14  A    between atoms: C_22  and  C_33
REMARK   15  A    between atoms: C_40  and  C_42
REMARK   16  A    between atoms: C_46  and  C_48
REMARK   17  A    between atoms: C_52  and  C_54
REMARK                            x       y       z     vdW  Elec       q    Type
REMARK                         _______ _______ _______ _____ _____    ______ ____
ROOT
ATOM      1  O   UNL     1       5.802   0.064 -19.984  0.00  0.00    +0.000 OA
ATOM      2  C   UNL     1       5.951   0.459 -18.623  0.00  0.00    +0.000 C 
ATOM      3  C   UNL     1       4.728   1.219 -18.101  0.00  0.00    +0.000 C 
ATOM      4  C   UNL     1       3.569   1.151 -19.083  0.00  0.00    +0.000 C 
ATOM      5  C   UNL     1       4.712  -0.847 -20.175  0.00  0.00    +0.000 C 
ATOM      6  C   UNL     1       3.365  -0.242 -19.712  0.00  0.00    +0.000 C 
ATOM      7  C   UNL     1       4.681  -1.188 -21.665  0.00  0.00    +0.000 C 
ENDROOT
BRANCH   4   8
ATOM      8  O   UNL     1       2.379   1.700 -18.528  0.00  0.00    +0.000 OA
ATOM      9  H   UNL     1       2.211   1.210 -17.696  0.00  0.00    +0.000 HD
ENDBRANCH   4   8
BRANCH   2  10
ATOM     10  O   UNL     1       7.150   1.203 -18.408  0.00  0.00    +0.000 OA
BRANCH  10  29
ATOM     11  C   UNL     1      13.303  -0.551 -22.836  0.00  0.00    +0.000 C 
ATOM     12  C   UNL     1      12.110  -0.212 -21.901  0.00  0.00    +0.000 C 
ATOM     13  C   UNL     1      12.258   1.153 -21.181  0.00  0.00    +0.000 C 
ATOM     14  C   UNL     1      13.698   0.596 -23.809  0.00  0.00    +0.000 C 
ATOM     15  C   UNL     1      11.037   1.498 -20.233  0.00  0.00    +0.000 C 
ATOM     16  C   UNL     1      10.733   0.287 -19.290  0.00  0.00    +0.000 C 
ATOM     17  C   UNL     1      12.571   2.257 -22.212  0.00  0.00    +0.000 C 
ATOM     18  C   UNL     1      13.815   1.935 -23.040  0.00  0.00    +0.000 C 
ATOM     19  C   UNL     1      15.084   0.093 -24.327  0.00  0.00    +0.000 C 
ATOM     20  C   UNL     1      11.862  -1.333 -20.880  0.00  0.00    +0.000 C 
ATOM     21  C   UNL     1      14.618  -0.885 -22.110  0.00  0.00    +0.000 C 
ATOM     22  C   UNL     1      10.624  -1.049 -20.046  0.00  0.00    +0.000 C 
ATOM     23  C   UNL     1      15.750  -0.517 -23.077  0.00  0.00    +0.000 C 
ATOM     24  C   UNL     1       9.760   1.870 -21.036  0.00  0.00    +0.000 C 
ATOM     25  C   UNL     1       9.463   0.496 -18.440  0.00  0.00    +0.000 C 
ATOM     26  C   UNL     1      12.695   0.753 -24.969  0.00  0.00    +0.000 C 
ATOM     27  C   UNL     1      11.444   2.716 -19.357  0.00  0.00    +0.000 C 
ATOM     28  C   UNL     1       8.520   2.067 -20.163  0.00  0.00    +0.000 C 
ATOM     29  C   UNL     1       8.232   0.856 -19.278  0.00  0.00    +0.000 C 
BRANCH  19  32
ATOM     30  O   UNL     1      17.756   1.872 -26.250  0.00  0.00    +0.000 OA
ATOM     31  O   UNL     1      16.982   4.022 -26.468  0.00  0.00    +0.000 OA
ATOM     32  C   UNL     1      15.926   1.075 -25.096  0.00  0.00    +0.000 C 
ATOM     33  C   UNL     1      17.244   0.681 -25.653  0.00  0.00    +0.000 C 
ATOM     34  C   UNL     1      15.709   2.369 -25.332  0.00  0.00    +0.000 C 
ATOM     35  C   UNL     1      16.860   2.877 -26.075  0.00  0.00    +0.000 C 
ENDBRANCH  19  32
BRANCH  11  36
ATOM     36  O   UNL     1      12.969  -1.725 -23.597  0.00  0.00    +0.000 OA
ATOM     37  H   UNL     1      12.982  -2.494 -23.001  0.00  0.00    +0.000 HD
ENDBRANCH  11  36
ENDBRANCH  10  29
ENDBRANCH   2  10
BRANCH   6  38
ATOM     38  O   UNL     1       2.528  -1.210 -19.071  0.00  0.00    +0.000 OA
BRANCH  38  40
ATOM     39  O   UNL     1       1.279  -3.197 -19.420  0.00  0.00    +0.000 OA
ATOM     40  C   UNL     1       1.365  -1.795 -19.637  0.00  0.00    +0.000 C 
ATOM     41  C   UNL     1       1.084  -1.435 -21.093  0.00  0.00    +0.000 C 
ATOM     42  C   UNL     1       0.378  -2.560 -21.846  0.00  0.00    +0.000 C 
ATOM     43  C   UNL     1      -0.074  -3.665 -19.580  0.00  0.00    +0.000 C 
ATOM     44  C   UNL     1      -0.619  -3.380 -21.003  0.00  0.00    +0.000 C 
ATOM     45  C   UNL     1      -0.058  -5.163 -19.286  0.00  0.00    +0.000 C 
BRANCH  42  46
ATOM     46  O   UNL     1      -0.212  -2.073 -23.050  0.00  0.00    +0.000 OA
ATOM     47  H   UNL     1      -0.787  -2.770 -23.411  0.00  0.00    +0.000 HD
ENDBRANCH  42  46
BRANCH  44  48
ATOM     48  O   UNL     1      -1.985  -2.946 -20.971  0.00  0.00    +0.000 OA
BRANCH  48  50
ATOM     49  O   UNL     1      -3.739  -2.622 -19.444  0.00  0.00    +0.000 OA
ATOM     50  C   UNL     1      -2.442  -2.200 -19.850  0.00  0.00    +0.000 C 
ATOM     51  C   UNL     1      -2.509  -0.735 -20.296  0.00  0.00    +0.000 C 
ATOM     52  C   UNL     1      -3.575   0.053 -19.537  0.00  0.00    +0.000 C 
ATOM     53  C   UNL     1      -4.169  -2.008 -18.215  0.00  0.00    +0.000 C 
ATOM     54  C   UNL     1      -3.788  -0.518 -18.133  0.00  0.00    +0.000 C 
ATOM     55  C   UNL     1      -5.680  -2.198 -18.153  0.00  0.00    +0.000 C 
BRANCH  52  56
ATOM     56  O   UNL     1      -3.152   1.417 -19.431  0.00  0.00    +0.000 OA
ATOM     57  H   UNL     1      -3.888   1.977 -19.737  0.00  0.00    +0.000 HD
ENDBRANCH  52  56
BRANCH  54  58
ATOM     58  O   UNL     1      -2.556  -0.385 -17.403  0.00  0.00    +0.000 OA
ATOM     59  H   UNL     1      -1.922  -0.991 -17.839  0.00  0.00    +0.000 HD
ENDBRANCH  54  58
ENDBRANCH  48  50
ENDBRANCH  44  48
ENDBRANCH  38  40
ENDBRANCH   6  38
TORSDOF 12
ENDMDL
MODEL 7
REMARK VINA RESULT:      -7.1      3.707     12.342
REMARK  Name = 
REMARK  17 active torsions:
REMARK  status: ('A' for Active; 'I' for Inactive)
REMARK    1  A    between atoms: O_1  and  C_14
REMARK    2  A    between atoms: O_2  and  C_32
REMARK    3  A    between atoms: O_2  and  C_36
REMARK    4  A    between atoms: O_6  and  C_39
REMARK    5  A    between atoms: O_7  and  C_41
REMARK    6  A    between atoms: O_7  and  C_43
REMARK    7  A    between atoms: O_9  and  C_47
REMARK    8  A    between atoms: O_9  and  C_49
REMARK    9  A    between atoms: O_10  and  C_45
REMARK   10  A    between atoms: O_12  and  C_51
REMARK   11  A    between atoms: O_13  and  C_53
REMARK   12  A    between atoms: C_17  and  C_29
REMARK   13  A    between atoms: C_18  and  C_30
REMARK   14  A    between atoms: C_22  and  C_33
REMARK   15  A    between atoms: C_40  and  C_42
REMARK   16  A    between atoms: C_46  and  C_48
REMARK   17  A    between atoms: C_52  and  C_54
REMARK                            x       y       z     vdW  Elec       q    Type
REMARK                         _______ _______ _______ _____ _____    ______ ____
ROOT
ATOM      1  O   UNL     1       2.125  -3.093 -19.729  0.00  0.00    +0.000 OA
ATOM      2  C   UNL     1       2.223  -4.193 -20.630  0.00  0.00    +0.000 C 
ATOM      3  C   UNL     1       1.185  -5.279 -20.337  0.00  0.00    +0.000 C 
ATOM      4  C   UNL     1       0.158  -4.808 -19.319  0.00  0.00    +0.000 C 
ATOM      5  C   UNL     1       0.867  -2.414 -19.826  0.00  0.00    +0.000 C 
ATOM      6  C   UNL     1      -0.324  -3.361 -19.543  0.00  0.00    +0.000 C 
ATOM      7  C   UNL     1       0.910  -1.264 -18.821  0.00  0.00    +0.000 C 
ENDROOT
BRANCH   4   8
ATOM      8  O   UNL     1      -0.906  -5.742 -19.176  0.00  0.00    +0.000 OA
ATOM      9  H   UNL     1      -0.853  -6.341 -19.951  0.00  0.00    +0.000 HD
ENDBRANCH   4   8
BRANCH   2  10
ATOM     10  O   UNL     1       3.542  -4.739 -20.670  0.00  0.00    +0.000 OA
BRANCH  10  29
ATOM     11  C   UNL     1       9.180   0.619 -20.447  0.00  0.00    +0.000 C 
ATOM     12  C   UNL     1       8.026  -0.416 -20.536  0.00  0.00    +0.000 C 
ATOM     13  C   UNL     1       8.054  -1.264 -21.833  0.00  0.00    +0.000 C 
ATOM     14  C   UNL     1      10.589   0.031 -20.745  0.00  0.00    +0.000 C 
ATOM     15  C   UNL     1       6.878  -2.322 -21.917  0.00  0.00    +0.000 C 
ATOM     16  C   UNL     1       5.509  -1.626 -21.617  0.00  0.00    +0.000 C 
ATOM     17  C   UNL     1       9.455  -1.881 -22.025  0.00  0.00    +0.000 C 
ATOM     18  C   UNL     1      10.554  -0.818 -22.039  0.00  0.00    +0.000 C 
ATOM     19  C   UNL     1      11.433   1.334 -20.919  0.00  0.00    +0.000 C 
ATOM     20  C   UNL     1       6.656   0.257 -20.364  0.00  0.00    +0.000 C 
ATOM     21  C   UNL     1       9.063   1.802 -21.425  0.00  0.00    +0.000 C 
ATOM     22  C   UNL     1       5.539  -0.774 -20.335  0.00  0.00    +0.000 C 
ATOM     23  C   UNL     1      10.494   2.286 -21.689  0.00  0.00    +0.000 C 
ATOM     24  C   UNL     1       7.089  -3.509 -20.937  0.00  0.00    +0.000 C 
ATOM     25  C   UNL     1       4.337  -2.625 -21.536  0.00  0.00    +0.000 C 
ATOM     26  C   UNL     1      11.125  -0.826 -19.580  0.00  0.00    +0.000 C 
ATOM     27  C   UNL     1       6.841  -2.879 -23.369  0.00  0.00    +0.000 C 
ATOM     28  C   UNL     1       5.907  -4.477 -20.881  0.00  0.00    +0.000 C 
ATOM     29  C   UNL     1       4.592  -3.773 -20.554  0.00  0.00    +0.000 C 
BRANCH  19  32
ATOM     30  O   UNL     1      14.606   1.603 -22.885  0.00  0.00    +0.000 OA
ATOM     31  O   UNL     1      15.920  -0.111 -22.107  0.00  0.00    +0.000 OA
ATOM     32  C   UNL     1      12.816   1.184 -21.493  0.00  0.00    +0.000 C 
ATOM     33  C   UNL     1      13.300   2.085 -22.569  0.00  0.00    +0.000 C 
ATOM     34  C   UNL     1      13.743   0.264 -21.229  0.00  0.00    +0.000 C 
ATOM     35  C   UNL     1      14.886   0.532 -22.099  0.00  0.00    +0.000 C 
ENDBRANCH  19  32
BRANCH  11  36
ATOM     36  O   UNL     1       9.176   1.199 -19.132  0.00  0.00    +0.000 OA
ATOM     37  H   UNL     1       9.863   1.886 -19.093  0.00  0.00    +0.000 HD
ENDBRANCH  11  36
ENDBRANCH  10  29
ENDBRANCH   2  10
BRANCH   6  38
ATOM     38  O   UNL     1      -1.442  -3.095 -20.395  0.00  0.00    +0.000 OA
BRANCH  38  40
ATOM     39  O   UNL     1      -2.681  -1.131 -20.886  0.00  0.00    +0.000 OA
ATOM     40  C   UNL     1      -2.556  -2.281 -20.060  0.00  0.00    +0.000 C 
ATOM     41  C   UNL     1      -2.698  -1.927 -18.582  0.00  0.00    +0.000 C 
ATOM     42  C   UNL     1      -3.347  -0.563 -18.369  0.00  0.00    +0.000 C 
ATOM     43  C   UNL     1      -4.020  -0.601 -20.839  0.00  0.00    +0.000 C 
ATOM     44  C   UNL     1      -4.428  -0.189 -19.402  0.00  0.00    +0.000 C 
ATOM     45  C   UNL     1      -4.051   0.596 -21.786  0.00  0.00    +0.000 C 
BRANCH  42  46
ATOM     46  O   UNL     1      -3.817  -0.428 -17.029  0.00  0.00    +0.000 OA
ATOM     47  H   UNL     1      -4.388   0.359 -16.983  0.00  0.00    +0.000 HD
ENDBRANCH  42  46
BRANCH  44  48
ATOM     48  O   UNL     1      -5.785  -0.548 -19.112  0.00  0.00    +0.000 OA
BRANCH  48  50
ATOM     49  O   UNL     1      -7.661  -1.196 -20.367  0.00  0.00    +0.000 OA
ATOM     50  C   UNL     1      -6.393  -1.594 -19.860  0.00  0.00    +0.000 C 
ATOM     51  C   UNL     1      -6.587  -2.769 -18.894  0.00  0.00    +0.000 C 
ATOM     52  C   UNL     1      -7.779  -3.642 -19.277  0.00  0.00    +0.000 C 
ATOM     53  C   UNL     1      -8.235  -2.164 -21.265  0.00  0.00    +0.000 C 
ATOM     54  C   UNL     1      -8.022  -3.612 -20.788  0.00  0.00    +0.000 C 
ATOM     55  C   UNL     1      -9.718  -1.824 -21.362  0.00  0.00    +0.000 C 
BRANCH  52  56
ATOM     56  O   UNL     1      -7.512  -4.991 -18.872  0.00  0.00    +0.000 OA
ATOM     57  H   UNL     1      -6.643  -5.239 -19.236  0.00  0.00    +0.000 HD
ENDBRANCH  52  56
BRANCH  54  58
ATOM     58  O   UNL     1      -6.862  -4.159 -21.441  0.00  0.00    +0.000 OA
ATOM     59  H   UNL     1      -6.096  -3.879 -20.898  0.00  0.00    +0.000 HD
ENDBRANCH  54  58
ENDBRANCH  48  50
ENDBRANCH  44  48
ENDBRANCH  38  40
ENDBRANCH   6  38
TORSDOF 12
ENDMDL
MODEL 8
REMARK VINA RESULT:      -7.1     23.847     28.380
REMARK  Name = 
REMARK  17 active torsions:
REMARK  status: ('A' for Active; 'I' for Inactive)
REMARK    1  A    between atoms: O_1  and  C_14
REMARK    2  A    between atoms: O_2  and  C_32
REMARK    3  A    between atoms: O_2  and  C_36
REMARK    4  A    between atoms: O_6  and  C_39
REMARK    5  A    between atoms: O_7  and  C_41
REMARK    6  A    between atoms: O_7  and  C_43
REMARK    7  A    between atoms: O_9  and  C_47
REMARK    8  A    between atoms: O_9  and  C_49
REMARK    9  A    between atoms: O_10  and  C_45
REMARK   10  A    between atoms: O_12  and  C_51
REMARK   11  A    between atoms: O_13  and  C_53
REMARK   12  A    between atoms: C_17  and  C_29
REMARK   13  A    between atoms: C_18  and  C_30
REMARK   14  A    between atoms: C_22  and  C_33
REMARK   15  A    between atoms: C_40  and  C_42
REMARK   16  A    between atoms: C_46  and  C_48
REMARK   17  A    between atoms: C_52  and  C_54
REMARK                            x       y       z     vdW  Elec       q    Type
REMARK                         _______ _______ _______ _____ _____    ______ ____
ROOT
ATOM      1  O   UNL     1     -16.978  -6.550  -1.462  0.00  0.00    +0.000 OA
ATOM      2  C   UNL     1     -15.723  -7.094  -1.062  0.00  0.00    +0.000 C 
ATOM      3  C   UNL     1     -15.733  -8.625  -1.042  0.00  0.00    +0.000 C 
ATOM      4  C   UNL     1     -16.995  -9.182  -1.683  0.00  0.00    +0.000 C 
ATOM      5  C   UNL     1     -17.335  -6.918  -2.800  0.00  0.00    +0.000 C 
ATOM      6  C   UNL     1     -17.412  -8.453  -2.977  0.00  0.00    +0.000 C 
ATOM      7  C   UNL     1     -18.683  -6.260  -3.093  0.00  0.00    +0.000 C 
ENDROOT
BRANCH   4   8
ATOM      8  O   UNL     1     -16.929 -10.596  -1.828  0.00  0.00    +0.000 OA
ATOM      9  H   UNL     1     -17.083 -10.972  -0.935  0.00  0.00    +0.000 HD
ENDBRANCH   4   8
BRANCH   2  10
ATOM     10  O   UNL     1     -15.283  -6.566   0.189  0.00  0.00    +0.000 OA
BRANCH  10  29
ATOM     11  C   UNL     1      -9.444  -1.445  -0.294  0.00  0.00    +0.000 C 
ATOM     12  C   UNL     1     -10.570  -2.512  -0.220  0.00  0.00    +0.000 C 
ATOM     13  C   UNL     1     -10.380  -3.534   0.930  0.00  0.00    +0.000 C 
ATOM     14  C   UNL     1      -9.123  -0.760   1.064  0.00  0.00    +0.000 C 
ATOM     15  C   UNL     1     -11.533  -4.616   1.006  0.00  0.00    +0.000 C 
ATOM     16  C   UNL     1     -11.765  -5.251  -0.406  0.00  0.00    +0.000 C 
ATOM     17  C   UNL     1     -10.144  -2.787   2.259  0.00  0.00    +0.000 C 
ATOM     18  C   UNL     1      -8.959  -1.825   2.177  0.00  0.00    +0.000 C 
ATOM     19  C   UNL     1      -7.774  -0.044   0.733  0.00  0.00    +0.000 C 
ATOM     20  C   UNL     1     -10.742  -3.240  -1.562  0.00  0.00    +0.000 C 
ATOM     21  C   UNL     1      -8.080  -1.979  -0.767  0.00  0.00    +0.000 C 
ATOM     22  C   UNL     1     -11.921  -4.198  -1.518  0.00  0.00    +0.000 C 
ATOM     23  C   UNL     1      -7.020  -1.059  -0.150  0.00  0.00    +0.000 C 
ATOM     24  C   UNL     1     -12.865  -4.015   1.535  0.00  0.00    +0.000 C 
ATOM     25  C   UNL     1     -12.975  -6.208  -0.438  0.00  0.00    +0.000 C 
ATOM     26  C   UNL     1     -10.204   0.257   1.479  0.00  0.00    +0.000 C 
ATOM     27  C   UNL     1     -11.072  -5.735   1.981  0.00  0.00    +0.000 C 
ATOM     28  C   UNL     1     -14.042  -4.990   1.486  0.00  0.00    +0.000 C 
ATOM     29  C   UNL     1     -14.262  -5.567   0.089  0.00  0.00    +0.000 C 
BRANCH  19  32
ATOM     30  O   UNL     1      -5.319   0.640   3.474  0.00  0.00    +0.000 OA
ATOM     31  O   UNL     1      -6.177   2.458   4.583  0.00  0.00    +0.000 OA
ATOM     32  C   UNL     1      -6.992   0.514   1.891  0.00  0.00    +0.000 C 
ATOM     33  C   UNL     1      -5.727  -0.122   2.339  0.00  0.00    +0.000 C 
ATOM     34  C   UNL     1      -7.292   1.531   2.700  0.00  0.00    +0.000 C 
ATOM     35  C   UNL     1      -6.228   1.625   3.697  0.00  0.00    +0.000 C 
ENDBRANCH  19  32
BRANCH  11  36
ATOM     36  O   UNL     1      -9.824  -0.443  -1.253  0.00  0.00    +0.000 OA
ATOM     37  H   UNL     1      -9.135  -0.392  -1.938  0.00  0.00    +0.000 HD
ENDBRANCH  11  36
ENDBRANCH  10  29
ENDBRANCH   2  10
BRANCH   6  38
ATOM     38  O   UNL     1     -16.901  -8.880  -4.243  0.00  0.00    +0.000 OA
BRANCH  38  40
ATOM     39  O   UNL     1     -18.769  -8.385  -5.620  0.00  0.00    +0.000 OA
ATOM     40  C   UNL     1     -17.353  -8.420  -5.509  0.00  0.00    +0.000 C 
ATOM     41  C   UNL     1     -16.711  -9.085  -6.723  0.00  0.00    +0.000 C 
ATOM     42  C   UNL     1     -17.660  -9.158  -7.916  0.00  0.00    +0.000 C 
ATOM     43  C   UNL     1     -19.184  -7.509  -6.686  0.00  0.00    +0.000 C 
ATOM     44  C   UNL     1     -18.620  -7.960  -8.057  0.00  0.00    +0.000 C 
ATOM     45  C   UNL     1     -20.711  -7.515  -6.689  0.00  0.00    +0.000 C 
BRANCH  42  46
ATOM     46  O   UNL     1     -16.940  -9.412  -9.122  0.00  0.00    +0.000 OA
ATOM     47  H   UNL     1     -16.367 -10.185  -8.978  0.00  0.00    +0.000 HD
ENDBRANCH  42  46
BRANCH  44  48
ATOM     48  O   UNL     1     -18.189  -6.844  -8.847  0.00  0.00    +0.000 OA
BRANCH  48  50
ATOM     49  O   UNL     1     -18.087  -4.498  -8.861  0.00  0.00    +0.000 OA
ATOM     50  C   UNL     1     -17.692  -5.687  -8.186  0.00  0.00    +0.000 C 
ATOM     51  C   UNL     1     -16.163  -5.791  -8.209  0.00  0.00    +0.000 C 
ATOM     52  C   UNL     1     -15.489  -4.420  -8.202  0.00  0.00    +0.000 C 
ATOM     53  C   UNL     1     -17.746  -3.302  -8.136  0.00  0.00    +0.000 C 
ATOM     54  C   UNL     1     -16.354  -3.384  -7.481  0.00  0.00    +0.000 C 
ATOM     55  C   UNL     1     -17.817  -2.161  -9.144  0.00  0.00    +0.000 C 
BRANCH  52  56
ATOM     56  O   UNL     1     -14.229  -4.530  -7.529  0.00  0.00    +0.000 OA
ATOM     57  H   UNL     1     -13.847  -3.635  -7.476  0.00  0.00    +0.000 HD
ENDBRANCH  52  56
BRANCH  54  58
ATOM     58  O   UNL     1     -16.501  -3.797  -6.111  0.00  0.00    +0.000 OA
ATOM     59  H   UNL     1     -17.292  -3.326  -5.775  0.00  0.00    +0.000 HD
ENDBRANCH  54  58
ENDBRANCH  48  50
ENDBRANCH  44  48
ENDBRANCH  38  40
ENDBRANCH   6  38
TORSDOF 12
ENDMDL
MODEL 9
REMARK VINA RESULT:      -7.1      4.248     13.305
REMARK  Name = 
REMARK  17 active torsions:
REMARK  status: ('A' for Active; 'I' for Inactive)
REMARK    1  A    between atoms: O_1  and  C_14
REMARK    2  A    between atoms: O_2  and  C_32
REMARK    3  A    between atoms: O_2  and  C_36
REMARK    4  A    between atoms: O_6  and  C_39
REMARK    5  A    between atoms: O_7  and  C_41
REMARK    6  A    between atoms: O_7  and  C_43
REMARK    7  A    between atoms: O_9  and  C_47
REMARK    8  A    between atoms: O_9  and  C_49
REMARK    9  A    between atoms: O_10  and  C_45
REMARK   10  A    between atoms: O_12  and  C_51
REMARK   11  A    between atoms: O_13  and  C_53
REMARK   12  A    between atoms: C_17  and  C_29
REMARK   13  A    between atoms: C_18  and  C_30
REMARK   14  A    between atoms: C_22  and  C_33
REMARK   15  A    between atoms: C_40  and  C_42
REMARK   16  A    between atoms: C_46  and  C_48
REMARK   17  A    between atoms: C_52  and  C_54
REMARK                            x       y       z     vdW  Elec       q    Type
REMARK                         _______ _______ _______ _____ _____    ______ ____
ROOT
ATOM      1  O   UNL     1      -1.219  -0.078 -20.341  0.00  0.00    +0.000 OA
ATOM      2  C   UNL     1      -1.479  -1.162 -19.454  0.00  0.00    +0.000 C 
ATOM      3  C   UNL     1      -2.158  -0.706 -18.160  0.00  0.00    +0.000 C 
ATOM      4  C   UNL     1      -2.603   0.746 -18.248  0.00  0.00    +0.000 C 
ATOM      5  C   UNL     1      -2.419   0.570 -20.782  0.00  0.00    +0.000 C 
ATOM      6  C   UNL     1      -3.248   1.121 -19.597  0.00  0.00    +0.000 C 
ATOM      7  C   UNL     1      -1.991   1.693 -21.726  0.00  0.00    +0.000 C 
ENDROOT
BRANCH   4   8
ATOM      8  O   UNL     1      -3.390   1.122 -17.123  0.00  0.00    +0.000 OA
ATOM      9  H   UNL     1      -2.773   1.530 -16.479  0.00  0.00    +0.000 HD
ENDBRANCH   4   8
BRANCH   2  10
ATOM     10  O   UNL     1      -0.303  -1.923 -19.177  0.00  0.00    +0.000 OA
BRANCH  10  29
ATOM     11  C   UNL     1       6.474   0.996 -21.646  0.00  0.00    +0.000 C 
ATOM     12  C   UNL     1       5.128   0.366 -21.195  0.00  0.00    +0.000 C 
ATOM     13  C   UNL     1       5.300  -0.930 -20.361  0.00  0.00    +0.000 C 
ATOM     14  C   UNL     1       7.519   1.155 -20.505  0.00  0.00    +0.000 C 
ATOM     15  C   UNL     1       3.926  -1.565 -19.899  0.00  0.00    +0.000 C 
ATOM     16  C   UNL     1       2.957  -1.694 -21.121  0.00  0.00    +0.000 C 
ATOM     17  C   UNL     1       6.287  -0.679 -19.202  0.00  0.00    +0.000 C 
ATOM     18  C   UNL     1       7.637  -0.161 -19.698  0.00  0.00    +0.000 C 
ATOM     19  C   UNL     1       8.816   1.463 -21.320  0.00  0.00    +0.000 C 
ATOM     20  C   UNL     1       4.198   0.115 -22.392  0.00  0.00    +0.000 C 
ATOM     21  C   UNL     1       7.229   0.200 -22.726  0.00  0.00    +0.000 C 
ATOM     22  C   UNL     1       2.841  -0.391 -21.933  0.00  0.00    +0.000 C 
ATOM     23  C   UNL     1       8.715   0.533 -22.546  0.00  0.00    +0.000 C 
ATOM     24  C   UNL     1       3.245  -0.734 -18.776  0.00  0.00    +0.000 C 
ATOM     25  C   UNL     1       1.546  -2.169 -20.717  0.00  0.00    +0.000 C 
ATOM     26  C   UNL     1       7.173   2.316 -19.551  0.00  0.00    +0.000 C 
ATOM     27  C   UNL     1       4.221  -2.990 -19.350  0.00  0.00    +0.000 C 
ATOM     28  C   UNL     1       1.849  -1.231 -18.403  0.00  0.00    +0.000 C 
ATOM     29  C   UNL     1       0.918  -1.314 -19.611  0.00  0.00    +0.000 C 
BRANCH  19  32
ATOM     30  O   UNL     1      12.304   0.814 -20.130  0.00  0.00    +0.000 OA
ATOM     31  O   UNL     1      12.413   1.821 -18.070  0.00  0.00    +0.000 OA
ATOM     32  C   UNL     1      10.122   1.413 -20.575  0.00  0.00    +0.000 C 
ATOM     33  C   UNL     1      11.294   0.689 -21.130  0.00  0.00    +0.000 C 
ATOM     34  C   UNL     1      10.423   1.892 -19.367  0.00  0.00    +0.000 C 
ATOM     35  C   UNL     1      11.810   1.527 -19.085  0.00  0.00    +0.000 C 
ENDBRANCH  19  32
BRANCH  11  36
ATOM     36  O   UNL     1       6.206   2.283 -22.228  0.00  0.00    +0.000 OA
ATOM     37  H   UNL     1       5.921   2.888 -21.522  0.00  0.00    +0.000 HD
ENDBRANCH  11  36
ENDBRANCH  10  29
ENDBRANCH   2  10
BRANCH   6  38
ATOM     38  O   UNL     1      -4.655   0.957 -19.797  0.00  0.00    +0.000 OA
BRANCH  38  40
ATOM     39  O   UNL     1      -4.650  -1.381 -19.386  0.00  0.00    +0.000 OA
ATOM     40  C   UNL     1      -5.318  -0.284 -19.996  0.00  0.00    +0.000 C 
ATOM     41  C   UNL     1      -5.717  -0.599 -21.434  0.00  0.00    +0.000 C 
ATOM     42  C   UNL     1      -5.702  -2.097 -21.728  0.00  0.00    +0.000 C 
ATOM     43  C   UNL     1      -5.545  -2.495 -19.203  0.00  0.00    +0.000 C 
ATOM     44  C   UNL     1      -6.128  -2.995 -20.549  0.00  0.00    +0.000 C 
ATOM     45  C   UNL     1      -4.741  -3.593 -18.510  0.00  0.00    +0.000 C 
BRANCH  42  46
ATOM     46  O   UNL     1      -6.435  -2.389 -22.916  0.00  0.00    +0.000 OA
ATOM     47  H   UNL     1      -6.290  -1.665 -23.550  0.00  0.00    +0.000 HD
ENDBRANCH  42  46
BRANCH  44  48
ATOM     48  O   UNL     1      -7.516  -3.333 -20.432  0.00  0.00    +0.000 OA
BRANCH  48  50
ATOM     49  O   UNL     1      -8.924  -2.692 -18.666  0.00  0.00    +0.000 OA
ATOM     50  C   UNL     1      -8.425  -2.350 -19.954  0.00  0.00    +0.000 C 
ATOM     51  C   UNL     1      -9.591  -2.309 -20.948  0.00  0.00    +0.000 C 
ATOM     52  C   UNL     1     -10.900  -1.882 -20.287  0.00  0.00    +0.000 C 
ATOM     53  C   UNL     1      -9.717  -1.645 -18.076  0.00  0.00    +0.000 C 
ATOM     54  C   UNL     1     -10.641  -0.956 -19.097  0.00  0.00    +0.000 C 
ATOM     55  C   UNL     1     -10.518  -2.301 -16.957  0.00  0.00    +0.000 C 
BRANCH  52  56
ATOM     56  O   UNL     1     -11.701  -1.191 -21.254  0.00  0.00    +0.000 OA
ATOM     57  H   UNL     1     -11.173  -0.444 -21.591  0.00  0.00    +0.000 HD
ENDBRANCH  52  56
BRANCH  54  58
ATOM     58  O   UNL     1      -9.999   0.235 -19.586  0.00  0.00    +0.000 OA
ATOM     59  H   UNL     1      -9.055   0.148 -19.339  0.00  0.00    +0.000 HD
ENDBRANCH  54  58
ENDBRANCH  48  50
ENDBRANCH  44  48
ENDBRANCH  38  40
ENDBRANCH   6  38
TORSDOF 12
ENDMDL
