MODEL 1
REMARK VINA RESULT:      -6.9      0.000      0.000
REMARK  Name = Cdk12_Inhibitor.pdbqt.pdb
REMARK  6 active torsions:
REMARK  status: ('A' for Active; 'I' for Inactive)
REMARK    1  A    between atoms: N_1  and  C_23
REMARK    2  A    between atoms: N_9  and  C_11
REMARK    3  A    between atoms: C_14  and  S_17
REMARK    4  A    between atoms: S_17  and  N_20
REMARK    5  A    between atoms: C_23  and  N_25
REMARK    6  A    between atoms: N_25  and  C_27
REMARK                            x       y       z     vdW  Elec       q    Type
REMARK                         _______ _______ _______ _____ _____    ______ ____
ROOT
ATOM      1  N   UNL     1     -13.553   7.144 -11.639  0.00  0.00    +0.000 N 
ATOM      2  N   UNL     1     -14.488   6.191 -11.388  0.00  0.00    +0.000 NA
ATOM      3  N   UNL     1     -13.585   5.860 -13.442  0.00  0.00    +0.000 NA
ATOM      4  N   UNL     1     -12.192   7.765 -13.575  0.00  0.00    +0.000 N 
ATOM      5  C   UNL     1     -14.447   5.429 -12.477  0.00  0.00    +0.000 A 
ATOM      6  C   UNL     1     -13.067   6.949 -12.935  0.00  0.00    +0.000 A 
ATOM      7  H   UNL     1     -12.398   8.764 -13.544  0.00  0.00    +0.000 HD
ATOM      8  H   UNL     1     -12.041   7.489 -14.546  0.00  0.00    +0.000 HD
ATOM      9  N   UNL     1     -15.144   4.314 -12.753  0.00  0.00    +0.000 N 
ATOM     10  H   UNL     1     -14.950   3.891 -13.652  0.00  0.00    +0.000 HD
ENDROOT
BRANCH   9  11
ATOM     11  C   UNL     1     -16.089   3.618 -11.979  0.00  0.00    +0.000 A 
ATOM     12  C   UNL     1     -15.712   3.129 -10.721  0.00  0.00    +0.000 A 
ATOM     13  C   UNL     1     -16.606   2.421  -9.923  0.00  0.00    +0.000 A 
ATOM     14  C   UNL     1     -17.889   2.184 -10.396  0.00  0.00    +0.000 A 
ATOM     15  C   UNL     1     -18.304   2.670 -11.630  0.00  0.00    +0.000 A 
ATOM     16  C   UNL     1     -17.397   3.374 -12.416  0.00  0.00    +0.000 A 
BRANCH  14  17
ATOM     17  S   UNL     1     -19.040   1.353  -9.378  0.00  0.00    +0.000 S 
ATOM     18  O   UNL     1     -18.970   1.892  -8.040  0.00  0.00    +0.000 OA
ATOM     19  O   UNL     1     -20.291   1.210 -10.083  0.00  0.00    +0.000 OA
BRANCH  17  20
ATOM     20  N   UNL     1     -18.382  -0.190  -9.279  0.00  0.00    +0.000 NA
ATOM     21  H   UNL     1     -18.564  -0.582  -8.355  0.00  0.00    +0.000 HD
ATOM     22  H   UNL     1     -18.734  -0.763 -10.046  0.00  0.00    +0.000 HD
ENDBRANCH  17  20
ENDBRANCH  14  17
ENDBRANCH   9  11
BRANCH   1  23
ATOM     23  C   UNL     1     -13.209   8.107 -10.646  0.00  0.00    +0.000 C 
ATOM     24  S   UNL     1     -14.299   9.167  -9.915  0.00  0.00    +0.000 S 
BRANCH  23  25
ATOM     25  N   UNL     1     -11.867   7.944 -10.281  0.00  0.00    +0.000 N 
ATOM     26  H   UNL     1     -11.185   8.466 -10.841  0.00  0.00    +0.000 HD
BRANCH  25  27
ATOM     27  C   UNL     1     -11.273   6.983  -9.421  0.00  0.00    +0.000 A 
ATOM     28  C   UNL     1     -11.124   7.335  -8.075  0.00  0.00    +0.000 A 
ATOM     29  F   UNL     1     -11.529   8.548  -7.666  0.00  0.00    +0.000 F 
ATOM     30  C   UNL     1     -10.561   6.466  -7.145  0.00  0.00    +0.000 A 
ATOM     31  C   UNL     1     -10.153   5.200  -7.553  0.00  0.00    +0.000 A 
ATOM     32  C   UNL     1     -10.350   4.801  -8.871  0.00  0.00    +0.000 A 
ATOM     33  C   UNL     1     -10.914   5.685  -9.793  0.00  0.00    +0.000 A 
ATOM     34  F   UNL     1     -11.247   5.195 -10.995  0.00  0.00    +0.000 F 
ENDBRANCH  25  27
ENDBRANCH  23  25
ENDBRANCH   1  23
TORSDOF 6
ENDMDL
MODEL 2
REMARK VINA RESULT:      -6.3     26.918     28.706
REMARK  Name = Cdk12_Inhibitor.pdbqt.pdb
REMARK  6 active torsions:
REMARK  status: ('A' for Active; 'I' for Inactive)
REMARK    1  A    between atoms: N_1  and  C_23
REMARK    2  A    between atoms: N_9  and  C_11
REMARK    3  A    between atoms: C_14  and  S_17
REMARK    4  A    between atoms: S_17  and  N_20
REMARK    5  A    between atoms: C_23  and  N_25
REMARK    6  A    between atoms: N_25  and  C_27
REMARK                            x       y       z     vdW  Elec       q    Type
REMARK                         _______ _______ _______ _____ _____    ______ ____
ROOT
ATOM      1  N   UNL     1      11.193   1.436 -17.545  0.00  0.00    +0.000 N 
ATOM      2  N   UNL     1      11.414   0.201 -18.065  0.00  0.00    +0.000 NA
ATOM      3  N   UNL     1      11.834   0.183 -15.836  0.00  0.00    +0.000 NA
ATOM      4  N   UNL     1      11.528   2.477 -15.356  0.00  0.00    +0.000 N 
ATOM      5  C   UNL     1      11.761  -0.520 -17.003  0.00  0.00    +0.000 A 
ATOM      6  C   UNL     1      11.524   1.404 -16.187  0.00  0.00    +0.000 A 
ATOM      7  H   UNL     1      12.001   3.314 -15.698  0.00  0.00    +0.000 HD
ATOM      8  H   UNL     1      11.890   2.250 -14.429  0.00  0.00    +0.000 HD
ATOM      9  N   UNL     1      12.059  -1.829 -16.932  0.00  0.00    +0.000 N 
ATOM     10  H   UNL     1      12.296  -2.171 -16.010  0.00  0.00    +0.000 HD
ENDROOT
BRANCH   9  11
ATOM     11  C   UNL     1      12.069  -2.814 -17.935  0.00  0.00    +0.000 A 
ATOM     12  C   UNL     1      10.850  -3.260 -18.463  0.00  0.00    +0.000 A 
ATOM     13  C   UNL     1      10.806  -4.244 -19.447  0.00  0.00    +0.000 A 
ATOM     14  C   UNL     1      11.996  -4.802 -19.896  0.00  0.00    +0.000 A 
ATOM     15  C   UNL     1      13.223  -4.370 -19.409  0.00  0.00    +0.000 A 
ATOM     16  C   UNL     1      13.249  -3.387 -18.424  0.00  0.00    +0.000 A 
BRANCH  14  17
ATOM     17  S   UNL     1      11.958  -5.991 -21.175  0.00  0.00    +0.000 S 
ATOM     18  O   UNL     1      11.190  -5.474 -22.285  0.00  0.00    +0.000 OA
ATOM     19  O   UNL     1      13.276  -6.552 -21.348  0.00  0.00    +0.000 OA
BRANCH  17  20
ATOM     20  N   UNL     1      11.017  -7.210 -20.503  0.00  0.00    +0.000 NA
ATOM     21  H   UNL     1      10.287  -6.799 -19.921  0.00  0.00    +0.000 HD
ATOM     22  H   UNL     1      10.661  -7.815 -21.244  0.00  0.00    +0.000 HD
ENDBRANCH  17  20
ENDBRANCH  14  17
ENDBRANCH   9  11
BRANCH   1  23
ATOM     23  C   UNL     1      10.687   2.490 -18.360  0.00  0.00    +0.000 C 
ATOM     24  S   UNL     1       9.145   3.161 -18.219  0.00  0.00    +0.000 S 
BRANCH  23  25
ATOM     25  N   UNL     1      11.705   2.965 -19.196  0.00  0.00    +0.000 N 
ATOM     26  H   UNL     1      12.183   3.816 -18.879  0.00  0.00    +0.000 HD
BRANCH  25  27
ATOM     27  C   UNL     1      12.020   2.607 -20.534  0.00  0.00    +0.000 A 
ATOM     28  C   UNL     1      13.320   2.153 -20.784  0.00  0.00    +0.000 A 
ATOM     29  F   UNL     1      14.199   2.091 -19.771  0.00  0.00    +0.000 F 
ATOM     30  C   UNL     1      13.732   1.769 -22.057  0.00  0.00    +0.000 A 
ATOM     31  C   UNL     1      12.826   1.813 -23.110  0.00  0.00    +0.000 A 
ATOM     32  C   UNL     1      11.509   2.198 -22.876  0.00  0.00    +0.000 A 
ATOM     33  C   UNL     1      11.111   2.583 -21.595  0.00  0.00    +0.000 A 
ATOM     34  F   UNL     1       9.800   2.769 -21.384  0.00  0.00    +0.000 F 
ENDBRANCH  25  27
ENDBRANCH  23  25
ENDBRANCH   1  23
TORSDOF 6
ENDMDL
MODEL 3
REMARK VINA RESULT:      -6.2     22.516     24.946
REMARK  Name = Cdk12_Inhibitor.pdbqt.pdb
REMARK  6 active torsions:
REMARK  status: ('A' for Active; 'I' for Inactive)
REMARK    1  A    between atoms: N_1  and  C_23
REMARK    2  A    between atoms: N_9  and  C_11
REMARK    3  A    between atoms: C_14  and  S_17
REMARK    4  A    between atoms: S_17  and  N_20
REMARK    5  A    between atoms: C_23  and  N_25
REMARK    6  A    between atoms: N_25  and  C_27
REMARK                            x       y       z     vdW  Elec       q    Type
REMARK                         _______ _______ _______ _____ _____    ______ ____
ROOT
ATOM      1  N   UNL     1       6.376   1.221 -22.017  0.00  0.00    +0.000 N 
ATOM      2  N   UNL     1       7.378   1.232 -21.100  0.00  0.00    +0.000 NA
ATOM      3  N   UNL     1       7.590   3.010 -22.494  0.00  0.00    +0.000 NA
ATOM      4  N   UNL     1       5.834   2.542 -24.004  0.00  0.00    +0.000 N 
ATOM      5  C   UNL     1       8.056   2.336 -21.403  0.00  0.00    +0.000 A 
ATOM      6  C   UNL     1       6.576   2.289 -22.897  0.00  0.00    +0.000 A 
ATOM      7  H   UNL     1       5.661   1.749 -24.625  0.00  0.00    +0.000 HD
ATOM      8  H   UNL     1       6.207   3.316 -24.555  0.00  0.00    +0.000 HD
ATOM      9  N   UNL     1       9.133   2.859 -20.792  0.00  0.00    +0.000 N 
ATOM     10  H   UNL     1       9.488   3.716 -21.196  0.00  0.00    +0.000 HD
ENDROOT
BRANCH   9  11
ATOM     11  C   UNL     1       9.838   2.419 -19.658  0.00  0.00    +0.000 A 
ATOM     12  C   UNL     1       9.599   3.041 -18.425  0.00  0.00    +0.000 A 
ATOM     13  C   UNL     1      10.282   2.651 -17.276  0.00  0.00    +0.000 A 
ATOM     14  C   UNL     1      11.227   1.638 -17.364  0.00  0.00    +0.000 A 
ATOM     15  C   UNL     1      11.475   0.986 -18.566  0.00  0.00    +0.000 A 
ATOM     16  C   UNL     1      10.785   1.389 -19.706  0.00  0.00    +0.000 A 
BRANCH  14  17
ATOM     17  S   UNL     1      12.044   1.097 -15.918  0.00  0.00    +0.000 S 
ATOM     18  O   UNL     1      11.985  -0.345 -15.848  0.00  0.00    +0.000 OA
ATOM     19  O   UNL     1      13.281   1.823 -15.765  0.00  0.00    +0.000 OA
BRANCH  17  20
ATOM     20  N   UNL     1      11.024   1.650 -14.702  0.00  0.00    +0.000 NA
ATOM     21  H   UNL     1      10.055   1.453 -14.951  0.00  0.00    +0.000 HD
ATOM     22  H   UNL     1      11.310   1.251 -13.807  0.00  0.00    +0.000 HD
ENDBRANCH  17  20
ENDBRANCH  14  17
ENDBRANCH   9  11
BRANCH   1  23
ATOM     23  C   UNL     1       5.347   0.236 -21.960  0.00  0.00    +0.000 C 
ATOM     24  S   UNL     1       5.452  -1.306 -22.634  0.00  0.00    +0.000 S 
BRANCH  23  25
ATOM     25  N   UNL     1       4.303   0.698 -21.149  0.00  0.00    +0.000 N 
ATOM     26  H   UNL     1       3.780   1.503 -21.509  0.00  0.00    +0.000 HD
BRANCH  25  27
ATOM     27  C   UNL     1       4.004   0.392 -19.795  0.00  0.00    +0.000 A 
ATOM     28  C   UNL     1       3.204  -0.731 -19.555  0.00  0.00    +0.000 A 
ATOM     29  F   UNL     1       2.750  -1.447 -20.596  0.00  0.00    +0.000 F 
ATOM     30  C   UNL     1       2.856  -1.125 -18.266  0.00  0.00    +0.000 A 
ATOM     31  C   UNL     1       3.334  -0.401 -17.179  0.00  0.00    +0.000 A 
ATOM     32  C   UNL     1       4.185   0.680 -17.387  0.00  0.00    +0.000 A 
ATOM     33  C   UNL     1       4.522   1.065 -18.686  0.00  0.00    +0.000 A 
ATOM     34  F   UNL     1       5.481   1.991 -18.827  0.00  0.00    +0.000 F 
ENDBRANCH  25  27
ENDBRANCH  23  25
ENDBRANCH   1  23
TORSDOF 6
ENDMDL
MODEL 4
REMARK VINA RESULT:      -6.0      4.884      7.412
REMARK  Name = Cdk12_Inhibitor.pdbqt.pdb
REMARK  6 active torsions:
REMARK  status: ('A' for Active; 'I' for Inactive)
REMARK    1  A    between atoms: N_1  and  C_23
REMARK    2  A    between atoms: N_9  and  C_11
REMARK    3  A    between atoms: C_14  and  S_17
REMARK    4  A    between atoms: S_17  and  N_20
REMARK    5  A    between atoms: C_23  and  N_25
REMARK    6  A    between atoms: N_25  and  C_27
REMARK                            x       y       z     vdW  Elec       q    Type
REMARK                         _______ _______ _______ _____ _____    ______ ____
ROOT
ATOM      1  N   UNL     1     -12.072   6.635  -9.092  0.00  0.00    +0.000 N 
ATOM      2  N   UNL     1     -12.271   6.587  -7.749  0.00  0.00    +0.000 NA
ATOM      3  N   UNL     1     -12.530   8.715  -8.489  0.00  0.00    +0.000 NA
ATOM      4  N   UNL     1     -11.938   8.421 -10.758  0.00  0.00    +0.000 N 
ATOM      5  C   UNL     1     -12.575   7.844  -7.440  0.00  0.00    +0.000 A 
ATOM      6  C   UNL     1     -12.174   7.967  -9.502  0.00  0.00    +0.000 A 
ATOM      7  H   UNL     1     -11.076   8.099 -11.202  0.00  0.00    +0.000 HD
ATOM      8  H   UNL     1     -11.979   9.439 -10.819  0.00  0.00    +0.000 HD
ATOM      9  N   UNL     1     -12.901   8.364  -6.245  0.00  0.00    +0.000 N 
ATOM     10  H   UNL     1     -13.098   9.357  -6.242  0.00  0.00    +0.000 HD
ENDROOT
BRANCH   9  11
ATOM     11  C   UNL     1     -13.041   7.744  -4.991  0.00  0.00    +0.000 A 
ATOM     12  C   UNL     1     -11.894   7.473  -4.234  0.00  0.00    +0.000 A 
ATOM     13  C   UNL     1     -11.979   6.847  -2.993  0.00  0.00    +0.000 A 
ATOM     14  C   UNL     1     -13.226   6.471  -2.512  0.00  0.00    +0.000 A 
ATOM     15  C   UNL     1     -14.386   6.742  -3.227  0.00  0.00    +0.000 A 
ATOM     16  C   UNL     1     -14.284   7.366  -4.466  0.00  0.00    +0.000 A 
BRANCH  14  17
ATOM     17  S   UNL     1     -13.352   5.743  -0.929  0.00  0.00    +0.000 S 
ATOM     18  O   UNL     1     -13.477   4.311  -1.071  0.00  0.00    +0.000 OA
ATOM     19  O   UNL     1     -12.383   6.345  -0.045  0.00  0.00    +0.000 OA
BRANCH  17  20
ATOM     20  N   UNL     1     -14.856   6.278  -0.406  0.00  0.00    +0.000 NA
ATOM     21  H   UNL     1     -15.132   5.764   0.431  0.00  0.00    +0.000 HD
ATOM     22  H   UNL     1     -14.835   7.291  -0.279  0.00  0.00    +0.000 HD
ENDBRANCH  17  20
ENDBRANCH  14  17
ENDBRANCH   9  11
BRANCH   1  23
ATOM     23  C   UNL     1     -11.830   5.443  -9.835  0.00  0.00    +0.000 C 
ATOM     24  S   UNL     1     -10.306   4.899 -10.312  0.00  0.00    +0.000 S 
BRANCH  23  25
ATOM     25  N   UNL     1     -13.028   4.735  -9.989  0.00  0.00    +0.000 N 
ATOM     26  H   UNL     1     -13.032   3.777  -9.624  0.00  0.00    +0.000 HD
BRANCH  25  27
ATOM     27  C   UNL     1     -14.163   5.038 -10.788  0.00  0.00    +0.000 A 
ATOM     28  C   UNL     1     -15.265   5.609 -10.141  0.00  0.00    +0.000 A 
ATOM     29  F   UNL     1     -15.208   5.829  -8.818  0.00  0.00    +0.000 F 
ATOM     30  C   UNL     1     -16.425   5.952 -10.830  0.00  0.00    +0.000 A 
ATOM     31  C   UNL     1     -16.489   5.744 -12.204  0.00  0.00    +0.000 A 
ATOM     32  C   UNL     1     -15.384   5.239 -12.881  0.00  0.00    +0.000 A 
ATOM     33  C   UNL     1     -14.229   4.898 -12.176  0.00  0.00    +0.000 A 
ATOM     34  F   UNL     1     -13.137   4.589 -12.890  0.00  0.00    +0.000 F 
ENDBRANCH  25  27
ENDBRANCH  23  25
ENDBRANCH   1  23
TORSDOF 6
ENDMDL
MODEL 5
REMARK VINA RESULT:      -5.8     27.354     29.609
REMARK  Name = Cdk12_Inhibitor.pdbqt.pdb
REMARK  6 active torsions:
REMARK  status: ('A' for Active; 'I' for Inactive)
REMARK    1  A    between atoms: N_1  and  C_23
REMARK    2  A    between atoms: N_9  and  C_11
REMARK    3  A    between atoms: C_14  and  S_17
REMARK    4  A    between atoms: S_17  and  N_20
REMARK    5  A    between atoms: C_23  and  N_25
REMARK    6  A    between atoms: N_25  and  C_27
REMARK                            x       y       z     vdW  Elec       q    Type
REMARK                         _______ _______ _______ _____ _____    ______ ____
ROOT
ATOM      1  N   UNL     1       9.790   1.123 -20.762  0.00  0.00    +0.000 N 
ATOM      2  N   UNL     1      10.982   0.814 -21.336  0.00  0.00    +0.000 NA
ATOM      3  N   UNL     1      10.589   3.040 -21.529  0.00  0.00    +0.000 NA
ATOM      4  N   UNL     1       8.413   3.140 -20.611  0.00  0.00    +0.000 N 
ATOM      5  C   UNL     1      11.437   1.994 -21.749  0.00  0.00    +0.000 A 
ATOM      6  C   UNL     1       9.551   2.487 -20.958  0.00  0.00    +0.000 A 
ATOM      7  H   UNL     1       7.535   2.701 -20.889  0.00  0.00    +0.000 HD
ATOM      8  H   UNL     1       8.411   4.111 -20.927  0.00  0.00    +0.000 HD
ATOM      9  N   UNL     1      12.599   2.284 -22.358  0.00  0.00    +0.000 N 
ATOM     10  H   UNL     1      12.740   3.261 -22.584  0.00  0.00    +0.000 HD
ENDROOT
BRANCH   9  11
ATOM     11  C   UNL     1      13.673   1.448 -22.712  0.00  0.00    +0.000 A 
ATOM     12  C   UNL     1      14.262   0.643 -21.728  0.00  0.00    +0.000 A 
ATOM     13  C   UNL     1      15.337  -0.191 -22.026  0.00  0.00    +0.000 A 
ATOM     14  C   UNL     1      15.839  -0.206 -23.320  0.00  0.00    +0.000 A 
ATOM     15  C   UNL     1      15.267   0.564 -24.325  0.00  0.00    +0.000 A 
ATOM     16  C   UNL     1      14.195   1.393 -24.010  0.00  0.00    +0.000 A 
BRANCH  14  17
ATOM     17  S   UNL     1      17.146  -1.295 -23.721  0.00  0.00    +0.000 S 
ATOM     18  O   UNL     1      18.206  -1.144 -22.751  0.00  0.00    +0.000 OA
ATOM     19  O   UNL     1      16.605  -2.585 -24.072  0.00  0.00    +0.000 OA
BRANCH  17  20
ATOM     20  N   UNL     1      17.739  -0.633 -25.146  0.00  0.00    +0.000 NA
ATOM     21  H   UNL     1      17.411  -1.180 -25.942  0.00  0.00    +0.000 HD
ATOM     22  H   UNL     1      17.491   0.356 -25.195  0.00  0.00    +0.000 HD
ENDBRANCH  17  20
ENDBRANCH  14  17
ENDBRANCH   9  11
BRANCH   1  23
ATOM     23  C   UNL     1       9.026   0.126 -20.089  0.00  0.00    +0.000 C 
ATOM     24  S   UNL     1       8.419  -1.273 -20.810  0.00  0.00    +0.000 S 
BRANCH  23  25
ATOM     25  N   UNL     1       8.973   0.422 -18.721  0.00  0.00    +0.000 N 
ATOM     26  H   UNL     1       8.064   0.736 -18.366  0.00  0.00    +0.000 HD
BRANCH  25  27
ATOM     27  C   UNL     1      10.032   0.597 -17.791  0.00  0.00    +0.000 A 
ATOM     28  C   UNL     1      10.192   1.873 -17.238  0.00  0.00    +0.000 A 
ATOM     29  F   UNL     1       9.363   2.860 -17.615  0.00  0.00    +0.000 F 
ATOM     30  C   UNL     1      11.193   2.153 -16.312  0.00  0.00    +0.000 A 
ATOM     31  C   UNL     1      12.047   1.136 -15.902  0.00  0.00    +0.000 A 
ATOM     32  C   UNL     1      11.868  -0.157 -16.385  0.00  0.00    +0.000 A 
ATOM     33  C   UNL     1      10.862  -0.421 -17.316  0.00  0.00    +0.000 A 
ATOM     34  F   UNL     1      10.615  -1.706 -17.611  0.00  0.00    +0.000 F 
ENDBRANCH  25  27
ENDBRANCH  23  25
ENDBRANCH   1  23
TORSDOF 6
ENDMDL
MODEL 6
REMARK VINA RESULT:      -5.8     26.514     28.191
REMARK  Name = Cdk12_Inhibitor.pdbqt.pdb
REMARK  6 active torsions:
REMARK  status: ('A' for Active; 'I' for Inactive)
REMARK    1  A    between atoms: N_1  and  C_23
REMARK    2  A    between atoms: N_9  and  C_11
REMARK    3  A    between atoms: C_14  and  S_17
REMARK    4  A    between atoms: S_17  and  N_20
REMARK    5  A    between atoms: C_23  and  N_25
REMARK    6  A    between atoms: N_25  and  C_27
REMARK                            x       y       z     vdW  Elec       q    Type
REMARK                         _______ _______ _______ _____ _____    ______ ____
ROOT
ATOM      1  N   UNL     1      11.712  10.196  -6.568  0.00  0.00    +0.000 N 
ATOM      2  N   UNL     1      11.717  10.169  -7.926  0.00  0.00    +0.000 NA
ATOM      3  N   UNL     1      11.781  12.316  -7.198  0.00  0.00    +0.000 NA
ATOM      4  N   UNL     1      11.574  11.954  -4.872  0.00  0.00    +0.000 N 
ATOM      5  C   UNL     1      11.794  11.455  -8.256  0.00  0.00    +0.000 A 
ATOM      6  C   UNL     1      11.686  11.532  -6.157  0.00  0.00    +0.000 A 
ATOM      7  H   UNL     1      10.840  11.516  -4.313  0.00  0.00    +0.000 HD
ATOM      8  H   UNL     1      11.480  12.968  -4.803  0.00  0.00    +0.000 HD
ATOM      9  N   UNL     1      11.866  12.010  -9.478  0.00  0.00    +0.000 N 
ATOM     10  H   UNL     1      11.919  13.020  -9.494  0.00  0.00    +0.000 HD
ENDROOT
BRANCH   9  11
ATOM     11  C   UNL     1      11.907  11.408 -10.748  0.00  0.00    +0.000 A 
ATOM     12  C   UNL     1      10.746  10.809 -11.256  0.00  0.00    +0.000 A 
ATOM     13  C   UNL     1      10.740  10.188 -12.502  0.00  0.00    +0.000 A 
ATOM     14  C   UNL     1      11.914  10.151 -13.242  0.00  0.00    +0.000 A 
ATOM     15  C   UNL     1      13.078  10.751 -12.779  0.00  0.00    +0.000 A 
ATOM     16  C   UNL     1      13.068  11.366 -11.530  0.00  0.00    +0.000 A 
BRANCH  14  17
ATOM     17  S   UNL     1      11.902   9.430 -14.834  0.00  0.00    +0.000 S 
ATOM     18  O   UNL     1      11.246   8.144 -14.771  0.00  0.00    +0.000 OA
ATOM     19  O   UNL     1      11.541  10.429 -15.810  0.00  0.00    +0.000 OA
BRANCH  17  20
ATOM     20  N   UNL     1      13.529   9.096 -15.088  0.00  0.00    +0.000 NA
ATOM     21  H   UNL     1      14.077   9.949 -14.974  0.00  0.00    +0.000 HD
ATOM     22  H   UNL     1      13.822   8.333 -14.476  0.00  0.00    +0.000 HD
ENDBRANCH  17  20
ENDBRANCH  14  17
ENDBRANCH   9  11
BRANCH   1  23
ATOM     23  C   UNL     1      11.751   8.985  -5.815  0.00  0.00    +0.000 C 
ATOM     24  S   UNL     1      10.512   7.842  -5.768  0.00  0.00    +0.000 S 
BRANCH  23  25
ATOM     25  N   UNL     1      13.017   8.834  -5.237  0.00  0.00    +0.000 N 
ATOM     26  H   UNL     1      13.089   9.086  -4.245  0.00  0.00    +0.000 HD
BRANCH  25  27
ATOM     27  C   UNL     1      14.277   8.626  -5.858  0.00  0.00    +0.000 A 
ATOM     28  C   UNL     1      14.583   7.320  -6.260  0.00  0.00    +0.000 A 
ATOM     29  F   UNL     1      13.695   6.339  -6.033  0.00  0.00    +0.000 F 
ATOM     30  C   UNL     1      15.787   7.006  -6.885  0.00  0.00    +0.000 A 
ATOM     31  C   UNL     1      16.707   8.017  -7.140  0.00  0.00    +0.000 A 
ATOM     32  C   UNL     1      16.400   9.333  -6.810  0.00  0.00    +0.000 A 
ATOM     33  C   UNL     1      15.190   9.633  -6.182  0.00  0.00    +0.000 A 
ATOM     34  F   UNL     1      14.865  10.926  -6.050  0.00  0.00    +0.000 F 
ENDBRANCH  25  27
ENDBRANCH  23  25
ENDBRANCH   1  23
TORSDOF 6
ENDMDL
MODEL 7
REMARK VINA RESULT:      -5.7     26.285     27.959
REMARK  Name = Cdk12_Inhibitor.pdbqt.pdb
REMARK  6 active torsions:
REMARK  status: ('A' for Active; 'I' for Inactive)
REMARK    1  A    between atoms: N_1  and  C_23
REMARK    2  A    between atoms: N_9  and  C_11
REMARK    3  A    between atoms: C_14  and  S_17
REMARK    4  A    between atoms: S_17  and  N_20
REMARK    5  A    between atoms: C_23  and  N_25
REMARK    6  A    between atoms: N_25  and  C_27
REMARK                            x       y       z     vdW  Elec       q    Type
REMARK                         _______ _______ _______ _____ _____    ______ ____
ROOT
ATOM      1  N   UNL     1      11.471   9.794  -6.495  0.00  0.00    +0.000 N 
ATOM      2  N   UNL     1      11.462   9.839  -7.853  0.00  0.00    +0.000 NA
ATOM      3  N   UNL     1      11.751  11.927  -7.015  0.00  0.00    +0.000 NA
ATOM      4  N   UNL     1      11.527  11.464  -4.709  0.00  0.00    +0.000 N 
ATOM      5  C   UNL     1      11.666  11.126  -8.116  0.00  0.00    +0.000 A 
ATOM      6  C   UNL     1      11.584  11.102  -6.015  0.00  0.00    +0.000 A 
ATOM      7  H   UNL     1      10.757  11.074  -4.163  0.00  0.00    +0.000 HD
ATOM      8  H   UNL     1      11.538  12.477  -4.585  0.00  0.00    +0.000 HD
ATOM      9  N   UNL     1      11.785  11.735  -9.309  0.00  0.00    +0.000 N 
ATOM     10  H   UNL     1      11.941  12.734  -9.273  0.00  0.00    +0.000 HD
ENDROOT
BRANCH   9  11
ATOM     11  C   UNL     1      11.754  11.200 -10.609  0.00  0.00    +0.000 A 
ATOM     12  C   UNL     1      12.903  11.282 -11.406  0.00  0.00    +0.000 A 
ATOM     13  C   UNL     1      12.919  10.781 -12.705  0.00  0.00    +0.000 A 
ATOM     14  C   UNL     1      11.764  10.206 -13.219  0.00  0.00    +0.000 A 
ATOM     15  C   UNL     1      10.612  10.091 -12.451  0.00  0.00    +0.000 A 
ATOM     16  C   UNL     1      10.613  10.599 -11.155  0.00  0.00    +0.000 A 
BRANCH  14  17
ATOM     17  S   UNL     1      11.789   9.517 -14.824  0.00  0.00    +0.000 S 
ATOM     18  O   UNL     1      11.173   8.210 -14.792  0.00  0.00    +0.000 OA
ATOM     19  O   UNL     1      11.405  10.523 -15.785  0.00  0.00    +0.000 OA
BRANCH  17  20
ATOM     20  N   UNL     1      13.427   9.238 -15.069  0.00  0.00    +0.000 NA
ATOM     21  H   UNL     1      13.600   9.047 -16.056  0.00  0.00    +0.000 HD
ATOM     22  H   UNL     1      13.967  10.022 -14.701  0.00  0.00    +0.000 HD
ENDBRANCH  17  20
ENDBRANCH  14  17
ENDBRANCH   9  11
BRANCH   1  23
ATOM     23  C   UNL     1      11.391   8.547  -5.807  0.00  0.00    +0.000 C 
ATOM     24  S   UNL     1       9.956   7.742  -5.436  0.00  0.00    +0.000 S 
BRANCH  23  25
ATOM     25  N   UNL     1      12.681   8.039  -5.610  0.00  0.00    +0.000 N 
ATOM     26  H   UNL     1      12.859   7.107  -5.999  0.00  0.00    +0.000 HD
BRANCH  25  27
ATOM     27  C   UNL     1      13.712   8.495  -4.746  0.00  0.00    +0.000 A 
ATOM     28  C   UNL     1      14.838   9.073  -5.345  0.00  0.00    +0.000 A 
ATOM     29  F   UNL     1      14.898   9.157  -6.683  0.00  0.00    +0.000 F 
ATOM     30  C   UNL     1      15.903   9.559  -4.592  0.00  0.00    +0.000 A 
ATOM     31  C   UNL     1      15.844   9.493  -3.204  0.00  0.00    +0.000 A 
ATOM     32  C   UNL     1      14.708   8.983  -2.582  0.00  0.00    +0.000 A 
ATOM     33  C   UNL     1      13.650   8.496  -3.351  0.00  0.00    +0.000 A 
ATOM     34  F   UNL     1      12.513   8.186  -2.711  0.00  0.00    +0.000 F 
ENDBRANCH  25  27
ENDBRANCH  23  25
ENDBRANCH   1  23
TORSDOF 6
ENDMDL
MODEL 8
REMARK VINA RESULT:      -5.6     16.474     18.847
REMARK  Name = Cdk12_Inhibitor.pdbqt.pdb
REMARK  6 active torsions:
REMARK  status: ('A' for Active; 'I' for Inactive)
REMARK    1  A    between atoms: N_1  and  C_23
REMARK    2  A    between atoms: N_9  and  C_11
REMARK    3  A    between atoms: C_14  and  S_17
REMARK    4  A    between atoms: S_17  and  N_20
REMARK    5  A    between atoms: C_23  and  N_25
REMARK    6  A    between atoms: N_25  and  C_27
REMARK                            x       y       z     vdW  Elec       q    Type
REMARK                         _______ _______ _______ _____ _____    ______ ____
ROOT
ATOM      1  N   UNL     1      -0.461  15.783 -20.102  0.00  0.00    +0.000 N 
ATOM      2  N   UNL     1      -1.506  15.842 -19.236  0.00  0.00    +0.000 NA
ATOM      3  N   UNL     1      -1.288  13.730 -20.035  0.00  0.00    +0.000 NA
ATOM      4  N   UNL     1       0.454  14.074 -21.596  0.00  0.00    +0.000 N 
ATOM      5  C   UNL     1      -1.945  14.587 -19.202  0.00  0.00    +0.000 A 
ATOM      6  C   UNL     1      -0.398  14.487 -20.623  0.00  0.00    +0.000 A 
ATOM      7  H   UNL     1       0.520  14.669 -22.423  0.00  0.00    +0.000 HD
ATOM      8  H   UNL     1       0.269  13.115 -21.893  0.00  0.00    +0.000 HD
ATOM      9  N   UNL     1      -2.947  14.064 -18.475  0.00  0.00    +0.000 N 
ATOM     10  H   UNL     1      -3.109  13.073 -18.607  0.00  0.00    +0.000 HD
ENDROOT
BRANCH   9  11
ATOM     11  C   UNL     1      -3.799  14.668 -17.533  0.00  0.00    +0.000 A 
ATOM     12  C   UNL     1      -3.534  14.496 -16.168  0.00  0.00    +0.000 A 
ATOM     13  C   UNL     1      -4.356  15.061 -15.196  0.00  0.00    +0.000 A 
ATOM     14  C   UNL     1      -5.466  15.793 -15.596  0.00  0.00    +0.000 A 
ATOM     15  C   UNL     1      -5.747  16.001 -16.940  0.00  0.00    +0.000 A 
ATOM     16  C   UNL     1      -4.917  15.427 -17.899  0.00  0.00    +0.000 A 
BRANCH  14  17
ATOM     17  S   UNL     1      -6.468  16.561 -14.388  0.00  0.00    +0.000 S 
ATOM     18  O   UNL     1      -5.641  17.386 -13.537  0.00  0.00    +0.000 OA
ATOM     19  O   UNL     1      -7.670  17.062 -15.008  0.00  0.00    +0.000 OA
BRANCH  17  20
ATOM     20  N   UNL     1      -6.941  15.261 -13.435  0.00  0.00    +0.000 NA
ATOM     21  H   UNL     1      -7.283  14.506 -14.029  0.00  0.00    +0.000 HD
ATOM     22  H   UNL     1      -6.171  14.986 -12.823  0.00  0.00    +0.000 HD
ENDBRANCH  17  20
ENDBRANCH  14  17
ENDBRANCH   9  11
BRANCH   1  23
ATOM     23  C   UNL     1       0.361  16.925 -20.331  0.00  0.00    +0.000 C 
ATOM     24  S   UNL     1      -0.137  18.328 -21.123  0.00  0.00    +0.000 S 
BRANCH  23  25
ATOM     25  N   UNL     1       1.591  16.752 -19.684  0.00  0.00    +0.000 N 
ATOM     26  H   UNL     1       2.206  16.031 -20.076  0.00  0.00    +0.000 HD
BRANCH  25  27
ATOM     27  C   UNL     1       2.026  17.237 -18.422  0.00  0.00    +0.000 A 
ATOM     28  C   UNL     1       3.402  17.203 -18.165  0.00  0.00    +0.000 A 
ATOM     29  F   UNL     1       4.232  16.710 -19.098  0.00  0.00    +0.000 F 
ATOM     30  C   UNL     1       3.937  17.660 -16.963  0.00  0.00    +0.000 A 
ATOM     31  C   UNL     1       3.089  18.189 -15.996  0.00  0.00    +0.000 A 
ATOM     32  C   UNL     1       1.726  18.295 -16.253  0.00  0.00    +0.000 A 
ATOM     33  C   UNL     1       1.204  17.829 -17.460  0.00  0.00    +0.000 A 
ATOM     34  F   UNL     1      -0.077  18.117 -17.733  0.00  0.00    +0.000 F 
ENDBRANCH  25  27
ENDBRANCH  23  25
ENDBRANCH   1  23
TORSDOF 6
ENDMDL
MODEL 9
REMARK VINA RESULT:      -5.5     26.203     28.809
REMARK  Name = Cdk12_Inhibitor.pdbqt.pdb
REMARK  6 active torsions:
REMARK  status: ('A' for Active; 'I' for Inactive)
REMARK    1  A    between atoms: N_1  and  C_23
REMARK    2  A    between atoms: N_9  and  C_11
REMARK    3  A    between atoms: C_14  and  S_17
REMARK    4  A    between atoms: S_17  and  N_20
REMARK    5  A    between atoms: C_23  and  N_25
REMARK    6  A    between atoms: N_25  and  C_27
REMARK                            x       y       z     vdW  Elec       q    Type
REMARK                         _______ _______ _______ _____ _____    ______ ____
ROOT
ATOM      1  N   UNL     1      13.832   8.143  -5.286  0.00  0.00    +0.000 N 
ATOM      2  N   UNL     1      13.243   8.644  -6.402  0.00  0.00    +0.000 NA
ATOM      3  N   UNL     1      12.047   9.237  -4.568  0.00  0.00    +0.000 NA
ATOM      4  N   UNL     1      13.249   8.056  -2.911  0.00  0.00    +0.000 N 
ATOM      5  C   UNL     1      12.202   9.318  -5.921  0.00  0.00    +0.000 A 
ATOM      6  C   UNL     1      13.035   8.471  -4.185  0.00  0.00    +0.000 A 
ATOM      7  H   UNL     1      13.436   7.061  -2.783  0.00  0.00    +0.000 HD
ATOM      8  H   UNL     1      12.496   8.334  -2.280  0.00  0.00    +0.000 HD
ATOM      9  N   UNL     1      11.287  10.044  -6.586  0.00  0.00    +0.000 N 
ATOM     10  H   UNL     1      10.575  10.477  -6.011  0.00  0.00    +0.000 HD
ENDROOT
BRANCH   9  11
ATOM     11  C   UNL     1      11.173  10.326  -7.958  0.00  0.00    +0.000 A 
ATOM     12  C   UNL     1      11.928  11.374  -8.503  0.00  0.00    +0.000 A 
ATOM     13  C   UNL     1      11.839  11.702  -9.854  0.00  0.00    +0.000 A 
ATOM     14  C   UNL     1      10.971  10.983 -10.665  0.00  0.00    +0.000 A 
ATOM     15  C   UNL     1      10.222   9.926 -10.164  0.00  0.00    +0.000 A 
ATOM     16  C   UNL     1      10.322   9.613  -8.811  0.00  0.00    +0.000 A 
BRANCH  14  17
ATOM     17  S   UNL     1      10.898  11.343 -12.374  0.00  0.00    +0.000 S 
ATOM     18  O   UNL     1      10.645  10.124 -13.107  0.00  0.00    +0.000 OA
ATOM     19  O   UNL     1      10.117  12.539 -12.580  0.00  0.00    +0.000 OA
BRANCH  17  20
ATOM     20  N   UNL     1      12.488  11.758 -12.721  0.00  0.00    +0.000 NA
ATOM     21  H   UNL     1      13.123  11.168 -12.182  0.00  0.00    +0.000 HD
ATOM     22  H   UNL     1      12.641  11.715 -13.729  0.00  0.00    +0.000 HD
ENDBRANCH  17  20
ENDBRANCH  14  17
ENDBRANCH   9  11
BRANCH   1  23
ATOM     23  C   UNL     1      15.069   7.438  -5.369  0.00  0.00    +0.000 C 
ATOM     24  S   UNL     1      16.202   7.332  -4.123  0.00  0.00    +0.000 S 
BRANCH  23  25
ATOM     25  N   UNL     1      15.131   6.745  -6.584  0.00  0.00    +0.000 N 
ATOM     26  H   UNL     1      14.404   6.976  -7.269  0.00  0.00    +0.000 HD
BRANCH  25  27
ATOM     27  C   UNL     1      15.887   5.594  -6.932  0.00  0.00    +0.000 A 
ATOM     28  C   UNL     1      15.345   4.348  -6.597  0.00  0.00    +0.000 A 
ATOM     29  F   UNL     1      14.164   4.297  -5.960  0.00  0.00    +0.000 F 
ATOM     30  C   UNL     1      15.999   3.157  -6.898  0.00  0.00    +0.000 A 
ATOM     31  C   UNL     1      17.214   3.197  -7.572  0.00  0.00    +0.000 A 
ATOM     32  C   UNL     1      17.743   4.419  -7.975  0.00  0.00    +0.000 A 
ATOM     33  C   UNL     1      17.078   5.605  -7.663  0.00  0.00    +0.000 A 
ATOM     34  F   UNL     1      17.530   6.734  -8.226  0.00  0.00    +0.000 F 
ENDBRANCH  25  27
ENDBRANCH  23  25
ENDBRANCH   1  23
TORSDOF 6
ENDMDL
