MODEL 1
REMARK VINA RESULT:      -6.4      0.000      0.000
REMARK  Name = CHEMBL35349.pdbqt.pdb
REMARK  2 active torsions:
REMARK  status: ('A' for Active; 'I' for Inactive)
REMARK    1  A    between atoms: C_2  and  C_11
REMARK    2  A    between atoms: C_5  and  O_21
REMARK                            x       y       z     vdW  Elec       q    Type
REMARK                         _______ _______ _______ _____ _____    ______ ____
ROOT
ATOM      1  N   UNL     1       8.936  -4.660  -5.232  0.00  0.00    +0.000 N 
ATOM      2  C   UNL     1      10.955  -4.787  -6.179  0.00  0.00    +0.000 A 
ATOM      3  C   UNL     1      10.843  -5.798  -5.163  0.00  0.00    +0.000 A 
ATOM      4  C   UNL     1       9.576  -5.691  -4.593  0.00  0.00    +0.000 A 
ATOM      5  C   UNL     1       9.747  -4.105  -6.186  0.00  0.00    +0.000 A 
ATOM      6  C   UNL     1      11.708  -6.797  -4.674  0.00  0.00    +0.000 A 
ATOM      7  C   UNL     1       9.124  -6.524  -3.564  0.00  0.00    +0.000 A 
ATOM      8  C   UNL     1      11.279  -7.641  -3.648  0.00  0.00    +0.000 A 
ATOM      9  C   UNL     1      10.006  -7.503  -3.105  0.00  0.00    +0.000 A 
ATOM     10  H   UNL     1       7.998  -4.343  -5.037  0.00  0.00    +0.000 HD
ENDROOT
BRANCH   2  11
ATOM     11  C   UNL     1      12.098  -4.532  -7.026  0.00  0.00    +0.000 C 
ATOM     12  N   UNL     1      12.883  -3.499  -6.853  0.00  0.00    +0.000 NA
ATOM     13  C   UNL     1      13.874  -3.580  -7.852  0.00  0.00    +0.000 A 
ATOM     14  C   UNL     1      13.740  -4.682  -8.693  0.00  0.00    +0.000 A 
ATOM     15  C   UNL     1      14.917  -2.696  -8.051  0.00  0.00    +0.000 A 
ATOM     16  C   UNL     1      12.567  -5.378  -8.206  0.00  0.00    +0.000 C 
ATOM     17  C   UNL     1      14.591  -4.967  -9.739  0.00  0.00    +0.000 A 
ATOM     18  O   UNL     1      12.052  -6.392  -8.615  0.00  0.00    +0.000 OA
ATOM     19  C   UNL     1      15.641  -4.072  -9.936  0.00  0.00    +0.000 A 
ATOM     20  C   UNL     1      15.803  -2.950  -9.104  0.00  0.00    +0.000 A 
ENDBRANCH   2  11
BRANCH   5  21
ATOM     21  O   UNL     1       9.258  -3.090  -6.890  0.00  0.00    +0.000 OA
ATOM     22  H   UNL     1       8.720  -3.427  -7.642  0.00  0.00    +0.000 HD
ENDBRANCH   5  21
TORSDOF 2
ENDMDL
MODEL 2
REMARK VINA RESULT:      -6.4     25.033     27.744
REMARK  Name = CHEMBL35349.pdbqt.pdb
REMARK  2 active torsions:
REMARK  status: ('A' for Active; 'I' for Inactive)
REMARK    1  A    between atoms: C_2  and  C_11
REMARK    2  A    between atoms: C_5  and  O_21
REMARK                            x       y       z     vdW  Elec       q    Type
REMARK                         _______ _______ _______ _____ _____    ______ ____
ROOT
ATOM      1  N   UNL     1     -10.175   5.627  -7.512  0.00  0.00    +0.000 N 
ATOM      2  C   UNL     1     -12.038   5.550  -8.741  0.00  0.00    +0.000 A 
ATOM      3  C   UNL     1     -12.033   6.758  -7.961  0.00  0.00    +0.000 A 
ATOM      4  C   UNL     1     -10.861   6.774  -7.208  0.00  0.00    +0.000 A 
ATOM      5  C   UNL     1     -10.864   4.879  -8.429  0.00  0.00    +0.000 A 
ATOM      6  C   UNL     1     -12.923   7.842  -7.827  0.00  0.00    +0.000 A 
ATOM      7  C   UNL     1     -10.527   7.810  -6.329  0.00  0.00    +0.000 A 
ATOM      8  C   UNL     1     -12.611   8.888  -6.956  0.00  0.00    +0.000 A 
ATOM      9  C   UNL     1     -11.431   8.868  -6.222  0.00  0.00    +0.000 A 
ATOM     10  H   UNL     1      -9.284   5.357  -7.121  0.00  0.00    +0.000 HD
ENDROOT
BRANCH   2  11
ATOM     11  C   UNL     1     -13.061   5.120  -9.666  0.00  0.00    +0.000 C 
ATOM     12  N   UNL     1     -13.846   4.102  -9.421  0.00  0.00    +0.000 NA
ATOM     13  C   UNL     1     -14.705   3.985 -10.533  0.00  0.00    +0.000 A 
ATOM     14  C   UNL     1     -14.482   4.938 -11.523  0.00  0.00    +0.000 A 
ATOM     15  C   UNL     1     -15.702   3.043 -10.708  0.00  0.00    +0.000 A 
ATOM     16  C   UNL     1     -13.389   5.745 -11.019  0.00  0.00    +0.000 C 
ATOM     17  C   UNL     1     -15.197   5.017 -12.698  0.00  0.00    +0.000 A 
ATOM     18  O   UNL     1     -12.841   6.696 -11.526  0.00  0.00    +0.000 OA
ATOM     19  C   UNL     1     -16.201   4.066 -12.870  0.00  0.00    +0.000 A 
ATOM     20  C   UNL     1     -16.451   3.091 -11.889  0.00  0.00    +0.000 A 
ENDBRANCH   2  11
BRANCH   5  21
ATOM     21  O   UNL     1     -10.318   3.733  -8.820  0.00  0.00    +0.000 OA
ATOM     22  H   UNL     1      -9.766   3.356  -8.098  0.00  0.00    +0.000 HD
ENDBRANCH   5  21
TORSDOF 2
ENDMDL
MODEL 3
REMARK VINA RESULT:      -5.7     15.352     16.553
REMARK  Name = CHEMBL35349.pdbqt.pdb
REMARK  2 active torsions:
REMARK  status: ('A' for Active; 'I' for Inactive)
REMARK    1  A    between atoms: C_2  and  C_11
REMARK    2  A    between atoms: C_5  and  O_21
REMARK                            x       y       z     vdW  Elec       q    Type
REMARK                         _______ _______ _______ _____ _____    ______ ____
ROOT
ATOM      1  N   UNL     1       4.173  -5.983 -21.502  0.00  0.00    +0.000 N 
ATOM      2  C   UNL     1       3.716  -4.056 -20.472  0.00  0.00    +0.000 A 
ATOM      3  C   UNL     1       2.485  -4.694 -20.853  0.00  0.00    +0.000 A 
ATOM      4  C   UNL     1       2.806  -5.890 -21.492  0.00  0.00    +0.000 A 
ATOM      5  C   UNL     1       4.738  -4.893 -20.896  0.00  0.00    +0.000 A 
ATOM      6  C   UNL     1       1.123  -4.361 -20.713  0.00  0.00    +0.000 A 
ATOM      7  C   UNL     1       1.845  -6.772 -21.997  0.00  0.00    +0.000 A 
ATOM      8  C   UNL     1       0.146  -5.226 -21.209  0.00  0.00    +0.000 A 
ATOM      9  C   UNL     1       0.506  -6.411 -21.840  0.00  0.00    +0.000 A 
ATOM     10  H   UNL     1       4.705  -6.744 -21.899  0.00  0.00    +0.000 HD
ENDROOT
BRANCH   2  11
ATOM     11  C   UNL     1       3.861  -2.793 -19.784  0.00  0.00    +0.000 C 
ATOM     12  N   UNL     1       4.681  -1.860 -20.194  0.00  0.00    +0.000 NA
ATOM     13  C   UNL     1       4.552  -0.789 -19.288  0.00  0.00    +0.000 A 
ATOM     14  C   UNL     1       3.634  -1.020 -18.267  0.00  0.00    +0.000 A 
ATOM     15  C   UNL     1       5.232   0.414 -19.331  0.00  0.00    +0.000 A 
ATOM     16  C   UNL     1       3.120  -2.349 -18.526  0.00  0.00    +0.000 C 
ATOM     17  C   UNL     1       3.342  -0.117 -17.268  0.00  0.00    +0.000 A 
ATOM     18  O   UNL     1       2.299  -2.988 -17.910  0.00  0.00    +0.000 OA
ATOM     19  C   UNL     1       4.030   1.094 -17.315  0.00  0.00    +0.000 A 
ATOM     20  C   UNL     1       4.964   1.357 -18.333  0.00  0.00    +0.000 A 
ENDBRANCH   2  11
BRANCH   5  21
ATOM     21  O   UNL     1       6.064  -4.845 -20.832  0.00  0.00    +0.000 OA
ATOM     22  H   UNL     1       6.421  -4.323 -21.586  0.00  0.00    +0.000 HD
ENDBRANCH   5  21
TORSDOF 2
ENDMDL
MODEL 4
REMARK VINA RESULT:      -5.7     26.825     28.666
REMARK  Name = CHEMBL35349.pdbqt.pdb
REMARK  2 active torsions:
REMARK  status: ('A' for Active; 'I' for Inactive)
REMARK    1  A    between atoms: C_2  and  C_11
REMARK    2  A    between atoms: C_5  and  O_21
REMARK                            x       y       z     vdW  Elec       q    Type
REMARK                         _______ _______ _______ _____ _____    ______ ____
ROOT
ATOM      1  N   UNL     1      -9.795  -4.164 -20.121  0.00  0.00    +0.000 N 
ATOM      2  C   UNL     1     -11.153  -2.757 -21.199  0.00  0.00    +0.000 A 
ATOM      3  C   UNL     1     -10.889  -2.245 -19.881  0.00  0.00    +0.000 A 
ATOM      4  C   UNL     1     -10.042  -3.145 -19.237  0.00  0.00    +0.000 A 
ATOM      5  C   UNL     1     -10.453  -3.950 -21.303  0.00  0.00    +0.000 A 
ATOM      6  C   UNL     1     -11.296  -1.096 -19.176  0.00  0.00    +0.000 A 
ATOM      7  C   UNL     1      -9.579  -2.962 -17.930  0.00  0.00    +0.000 A 
ATOM      8  C   UNL     1     -10.846  -0.891 -17.870  0.00  0.00    +0.000 A 
ATOM      9  C   UNL     1     -10.001  -1.812 -17.261  0.00  0.00    +0.000 A 
ATOM     10  H   UNL     1      -9.212  -4.968 -19.939  0.00  0.00    +0.000 HD
ENDROOT
BRANCH   2  11
ATOM     11  C   UNL     1     -11.982  -2.148 -22.214  0.00  0.00    +0.000 C 
ATOM     12  N   UNL     1     -11.935  -0.869 -22.486  0.00  0.00    +0.000 NA
ATOM     13  C   UNL     1     -12.871  -0.646 -23.516  0.00  0.00    +0.000 A 
ATOM     14  C   UNL     1     -13.544  -1.793 -23.928  0.00  0.00    +0.000 A 
ATOM     15  C   UNL     1     -13.159   0.564 -24.119  0.00  0.00    +0.000 A 
ATOM     16  C   UNL     1     -13.005  -2.854 -23.101  0.00  0.00    +0.000 C 
ATOM     17  C   UNL     1     -14.501  -1.817 -24.918  0.00  0.00    +0.000 A 
ATOM     18  O   UNL     1     -13.278  -4.031 -23.089  0.00  0.00    +0.000 OA
ATOM     19  C   UNL     1     -14.788  -0.595 -25.523  0.00  0.00    +0.000 A 
ATOM     20  C   UNL     1     -14.127   0.582 -25.129  0.00  0.00    +0.000 A 
ENDBRANCH   2  11
BRANCH   5  21
ATOM     21  O   UNL     1     -10.306  -4.860 -22.259  0.00  0.00    +0.000 OA
ATOM     22  H   UNL     1      -9.421  -5.286 -22.189  0.00  0.00    +0.000 HD
ENDBRANCH   5  21
TORSDOF 2
ENDMDL
MODEL 5
REMARK VINA RESULT:      -5.5     22.153     23.879
REMARK  Name = CHEMBL35349.pdbqt.pdb
REMARK  2 active torsions:
REMARK  status: ('A' for Active; 'I' for Inactive)
REMARK    1  A    between atoms: C_2  and  C_11
REMARK    2  A    between atoms: C_5  and  O_21
REMARK                            x       y       z     vdW  Elec       q    Type
REMARK                         _______ _______ _______ _____ _____    ______ ____
ROOT
ATOM      1  N   UNL     1     -10.564  -3.271 -19.719  0.00  0.00    +0.000 N 
ATOM      2  C   UNL     1      -8.416  -2.664 -19.793  0.00  0.00    +0.000 A 
ATOM      3  C   UNL     1      -8.749  -3.381 -20.995  0.00  0.00    +0.000 A 
ATOM      4  C   UNL     1     -10.091  -3.745 -20.915  0.00  0.00    +0.000 A 
ATOM      5  C   UNL     1      -9.575  -2.620 -19.031  0.00  0.00    +0.000 A 
ATOM      6  C   UNL     1      -8.026  -3.756 -22.144  0.00  0.00    +0.000 A 
ATOM      7  C   UNL     1     -10.753  -4.461 -21.919  0.00  0.00    +0.000 A 
ATOM      8  C   UNL     1      -8.666  -4.471 -23.160  0.00  0.00    +0.000 A 
ATOM      9  C   UNL     1     -10.008  -4.815 -23.044  0.00  0.00    +0.000 A 
ATOM     10  H   UNL     1     -11.508  -3.379 -19.378  0.00  0.00    +0.000 HD
ENDROOT
BRANCH   2  11
ATOM     11  C   UNL     1      -7.131  -2.100 -19.449  0.00  0.00    +0.000 C 
ATOM     12  N   UNL     1      -6.379  -2.595 -18.499  0.00  0.00    +0.000 NA
ATOM     13  C   UNL     1      -5.219  -1.796 -18.452  0.00  0.00    +0.000 A 
ATOM     14  C   UNL     1      -5.207  -0.760 -19.383  0.00  0.00    +0.000 A 
ATOM     15  C   UNL     1      -4.145  -1.952 -17.596  0.00  0.00    +0.000 A 
ATOM     16  C   UNL     1      -6.460  -0.892 -20.097  0.00  0.00    +0.000 C 
ATOM     17  C   UNL     1      -4.179   0.146 -19.520  0.00  0.00    +0.000 A 
ATOM     18  O   UNL     1      -6.903  -0.221 -21.000  0.00  0.00    +0.000 OA
ATOM     19  C   UNL     1      -3.099  -0.015 -18.655  0.00  0.00    +0.000 A 
ATOM     20  C   UNL     1      -3.081  -1.051 -17.704  0.00  0.00    +0.000 A 
ENDBRANCH   2  11
BRANCH   5  21
ATOM     21  O   UNL     1      -9.888  -2.105 -17.848  0.00  0.00    +0.000 OA
ATOM     22  H   UNL     1      -9.396  -1.265 -17.703  0.00  0.00    +0.000 HD
ENDBRANCH   5  21
TORSDOF 2
ENDMDL
MODEL 6
REMARK VINA RESULT:      -5.4     13.563     15.284
REMARK  Name = CHEMBL35349.pdbqt.pdb
REMARK  2 active torsions:
REMARK  status: ('A' for Active; 'I' for Inactive)
REMARK    1  A    between atoms: C_2  and  C_11
REMARK    2  A    between atoms: C_5  and  O_21
REMARK                            x       y       z     vdW  Elec       q    Type
REMARK                         _______ _______ _______ _____ _____    ______ ____
ROOT
ATOM      1  N   UNL     1       9.931 -18.200 -12.906  0.00  0.00    +0.000 N 
ATOM      2  C   UNL     1       8.098 -16.969 -13.241  0.00  0.00    +0.000 A 
ATOM      3  C   UNL     1       9.157 -16.483 -14.084  0.00  0.00    +0.000 A 
ATOM      4  C   UNL     1      10.283 -17.271 -13.850  0.00  0.00    +0.000 A 
ATOM      5  C   UNL     1       8.626 -18.036 -12.527  0.00  0.00    +0.000 A 
ATOM      6  C   UNL     1       9.260 -15.441 -15.027  0.00  0.00    +0.000 A 
ATOM      7  C   UNL     1      11.504 -17.077 -14.504  0.00  0.00    +0.000 A 
ATOM      8  C   UNL     1      10.469 -15.230 -15.693  0.00  0.00    +0.000 A 
ATOM      9  C   UNL     1      11.570 -16.037 -15.432  0.00  0.00    +0.000 A 
ATOM     10  H   UNL     1      10.540 -18.913 -12.531  0.00  0.00    +0.000 HD
ENDROOT
BRANCH   2  11
ATOM     11  C   UNL     1       6.752 -16.450 -13.155  0.00  0.00    +0.000 C 
ATOM     12  N   UNL     1       5.925 -16.472 -14.168  0.00  0.00    +0.000 NA
ATOM     13  C   UNL     1       4.725 -15.889 -13.715  0.00  0.00    +0.000 A 
ATOM     14  C   UNL     1       4.762 -15.477 -12.385  0.00  0.00    +0.000 A 
ATOM     15  C   UNL     1       3.570 -15.703 -14.451  0.00  0.00    +0.000 A 
ATOM     16  C   UNL     1       6.095 -15.818 -11.931  0.00  0.00    +0.000 C 
ATOM     17  C   UNL     1       3.708 -14.882 -11.728  0.00  0.00    +0.000 A 
ATOM     18  O   UNL     1       6.600 -15.655 -10.845  0.00  0.00    +0.000 OA
ATOM     19  C   UNL     1       2.546 -14.696 -12.475  0.00  0.00    +0.000 A 
ATOM     20  C   UNL     1       2.476 -15.101 -13.819  0.00  0.00    +0.000 A 
ENDBRANCH   2  11
BRANCH   5  21
ATOM     21  O   UNL     1       8.143 -18.870 -11.613  0.00  0.00    +0.000 OA
ATOM     22  H   UNL     1       8.863 -19.169 -11.013  0.00  0.00    +0.000 HD
ENDBRANCH   5  21
TORSDOF 2
ENDMDL
MODEL 7
REMARK VINA RESULT:      -5.3     12.803     15.958
REMARK  Name = CHEMBL35349.pdbqt.pdb
REMARK  2 active torsions:
REMARK  status: ('A' for Active; 'I' for Inactive)
REMARK    1  A    between atoms: C_2  and  C_11
REMARK    2  A    between atoms: C_5  and  O_21
REMARK                            x       y       z     vdW  Elec       q    Type
REMARK                         _______ _______ _______ _____ _____    ______ ____
ROOT
ATOM      1  N   UNL     1      12.336   1.424 -23.711  0.00  0.00    +0.000 N 
ATOM      2  C   UNL     1      12.350   1.023 -21.514  0.00  0.00    +0.000 A 
ATOM      3  C   UNL     1      13.582   0.555 -22.090  0.00  0.00    +0.000 A 
ATOM      4  C   UNL     1      13.539   0.819 -23.457  0.00  0.00    +0.000 A 
ATOM      5  C   UNL     1      11.607   1.555 -22.559  0.00  0.00    +0.000 A 
ATOM      6  C   UNL     1      14.731  -0.072 -21.570  0.00  0.00    +0.000 A 
ATOM      7  C   UNL     1      14.580   0.493 -24.334  0.00  0.00    +0.000 A 
ATOM      8  C   UNL     1      15.782  -0.406 -22.426  0.00  0.00    +0.000 A 
ATOM      9  C   UNL     1      15.703  -0.126 -23.785  0.00  0.00    +0.000 A 
ATOM     10  H   UNL     1      12.016   1.734 -24.616  0.00  0.00    +0.000 HD
ENDROOT
BRANCH   2  11
ATOM     11  C   UNL     1      11.962   0.954 -20.123  0.00  0.00    +0.000 C 
ATOM     12  N   UNL     1      11.797   2.022 -19.387  0.00  0.00    +0.000 NA
ATOM     13  C   UNL     1      11.425   1.569 -18.105  0.00  0.00    +0.000 A 
ATOM     14  C   UNL     1      11.345   0.183 -17.996  0.00  0.00    +0.000 A 
ATOM     15  C   UNL     1      11.148   2.354 -17.002  0.00  0.00    +0.000 A 
ATOM     16  C   UNL     1      11.692  -0.311 -19.313  0.00  0.00    +0.000 C 
ATOM     17  C   UNL     1      11.001  -0.485 -16.842  0.00  0.00    +0.000 A 
ATOM     18  O   UNL     1      11.762  -1.450 -19.711  0.00  0.00    +0.000 OA
ATOM     19  C   UNL     1      10.723   0.311 -15.732  0.00  0.00    +0.000 A 
ATOM     20  C   UNL     1      10.795   1.713 -15.810  0.00  0.00    +0.000 A 
ENDBRANCH   2  11
BRANCH   5  21
ATOM     21  O   UNL     1      10.412   2.126 -22.650  0.00  0.00    +0.000 OA
ATOM     22  H   UNL     1      10.124   2.161 -23.591  0.00  0.00    +0.000 HD
ENDBRANCH   5  21
TORSDOF 2
ENDMDL
MODEL 8
REMARK VINA RESULT:      -5.1     14.435     16.186
REMARK  Name = CHEMBL35349.pdbqt.pdb
REMARK  2 active torsions:
REMARK  status: ('A' for Active; 'I' for Inactive)
REMARK    1  A    between atoms: C_2  and  C_11
REMARK    2  A    between atoms: C_5  and  O_21
REMARK                            x       y       z     vdW  Elec       q    Type
REMARK                         _______ _______ _______ _____ _____    ______ ____
ROOT
ATOM      1  N   UNL     1       8.156 -17.556 -17.711  0.00  0.00    +0.000 N 
ATOM      2  C   UNL     1       7.087 -16.621 -15.988  0.00  0.00    +0.000 A 
ATOM      3  C   UNL     1       8.462 -16.199 -15.980  0.00  0.00    +0.000 A 
ATOM      4  C   UNL     1       9.098 -16.800 -17.064  0.00  0.00    +0.000 A 
ATOM      5  C   UNL     1       6.943 -17.463 -17.082  0.00  0.00    +0.000 A 
ATOM      6  C   UNL     1       9.225 -15.360 -15.144  0.00  0.00    +0.000 A 
ATOM      7  C   UNL     1      10.452 -16.609 -17.362  0.00  0.00    +0.000 A 
ATOM      8  C   UNL     1      10.577 -15.153 -15.422  0.00  0.00    +0.000 A 
ATOM      9  C   UNL     1      11.176 -15.770 -16.514  0.00  0.00    +0.000 A 
ATOM     10  H   UNL     1       8.319 -18.111 -18.539  0.00  0.00    +0.000 HD
ENDROOT
BRANCH   2  11
ATOM     11  C   UNL     1       6.059 -16.243 -15.045  0.00  0.00    +0.000 C 
ATOM     12  N   UNL     1       6.252 -16.262 -13.751  0.00  0.00    +0.000 NA
ATOM     13  C   UNL     1       5.044 -15.836 -13.162  0.00  0.00    +0.000 A 
ATOM     14  C   UNL     1       4.043 -15.533 -14.081  0.00  0.00    +0.000 A 
ATOM     15  C   UNL     1       4.789 -15.702 -11.810  0.00  0.00    +0.000 A 
ATOM     16  C   UNL     1       4.643 -15.780 -15.376  0.00  0.00    +0.000 C 
ATOM     17  C   UNL     1       2.781 -15.098 -13.737  0.00  0.00    +0.000 A 
ATOM     18  O   UNL     1       4.163 -15.659 -16.479  0.00  0.00    +0.000 OA
ATOM     19  C   UNL     1       2.529 -14.965 -12.373  0.00  0.00    +0.000 A 
ATOM     20  C   UNL     1       3.519 -15.263 -11.421  0.00  0.00    +0.000 A 
ENDBRANCH   2  11
BRANCH   5  21
ATOM     21  O   UNL     1       5.929 -18.147 -17.600  0.00  0.00    +0.000 OA
ATOM     22  H   UNL     1       6.244 -19.017 -17.936  0.00  0.00    +0.000 HD
ENDBRANCH   5  21
TORSDOF 2
ENDMDL
MODEL 9
REMARK VINA RESULT:      -5.1     13.584     16.354
REMARK  Name = CHEMBL35349.pdbqt.pdb
REMARK  2 active torsions:
REMARK  status: ('A' for Active; 'I' for Inactive)
REMARK    1  A    between atoms: C_2  and  C_11
REMARK    2  A    between atoms: C_5  and  O_21
REMARK                            x       y       z     vdW  Elec       q    Type
REMARK                         _______ _______ _______ _____ _____    ______ ____
ROOT
ATOM      1  N   UNL     1       9.835   2.366 -23.602  0.00  0.00    +0.000 N 
ATOM      2  C   UNL     1      10.599   1.767 -21.592  0.00  0.00    +0.000 A 
ATOM      3  C   UNL     1      11.356   1.088 -22.609  0.00  0.00    +0.000 A 
ATOM      4  C   UNL     1      10.854   1.482 -23.847  0.00  0.00    +0.000 A 
ATOM      5  C   UNL     1       9.666   2.550 -22.256  0.00  0.00    +0.000 A 
ATOM      6  C   UNL     1      12.424   0.169 -22.587  0.00  0.00    +0.000 A 
ATOM      7  C   UNL     1      11.358   1.013 -25.065  0.00  0.00    +0.000 A 
ATOM      8  C   UNL     1      12.944  -0.313 -23.790  0.00  0.00    +0.000 A 
ATOM      9  C   UNL     1      12.416   0.105 -25.007  0.00  0.00    +0.000 A 
ATOM     10  H   UNL     1       9.276   2.825 -24.307  0.00  0.00    +0.000 HD
ENDROOT
BRANCH   2  11
ATOM     11  C   UNL     1      10.777   1.657 -20.161  0.00  0.00    +0.000 C 
ATOM     12  N   UNL     1       9.787   1.382 -19.351  0.00  0.00    +0.000 NA
ATOM     13  C   UNL     1      10.332   1.356 -18.051  0.00  0.00    +0.000 A 
ATOM     14  C   UNL     1      11.699   1.618 -18.006  0.00  0.00    +0.000 A 
ATOM     15  C   UNL     1       9.649   1.104 -16.876  0.00  0.00    +0.000 A 
ATOM     16  C   UNL     1      12.080   1.832 -19.387  0.00  0.00    +0.000 C 
ATOM     17  C   UNL     1      12.445   1.645 -16.848  0.00  0.00    +0.000 A 
ATOM     18  O   UNL     1      13.165   2.090 -19.852  0.00  0.00    +0.000 OA
ATOM     19  C   UNL     1      11.752   1.391 -15.666  0.00  0.00    +0.000 A 
ATOM     20  C   UNL     1      10.372   1.124 -15.678  0.00  0.00    +0.000 A 
ENDBRANCH   2  11
BRANCH   5  21
ATOM     21  O   UNL     1       8.709   3.384 -21.866  0.00  0.00    +0.000 OA
ATOM     22  H   UNL     1       7.945   2.879 -21.506  0.00  0.00    +0.000 HD
ENDBRANCH   5  21
TORSDOF 2
ENDMDL
