MODEL 1
REMARK VINA RESULT:      -6.0      0.000      0.000
REMARK  Name = Chlortetracycline.pdbqt.pdb
REMARK  7 active torsions:
REMARK  status: ('A' for Active; 'I' for Inactive)
REMARK    1  A    between atoms: C_7  and  O_30
REMARK    2  A    between atoms: C_8  and  N_32
REMARK    3  A    between atoms: C_9  and  O_37
REMARK    4  A    between atoms: C_12  and  O_28
REMARK    5  A    between atoms: C_15  and  O_35
REMARK    6  A    between atoms: C_16  and  C_23
REMARK    7  A    between atoms: C_20  and  O_39
REMARK                            x       y       z     vdW  Elec       q    Type
REMARK                         _______ _______ _______ _____ _____    ______ ____
ROOT
ATOM      1 CL   UNL     1       2.181 -14.855 -15.271  0.00  0.00    +0.000 Cl
ATOM      2  O   UNL     1       7.533 -16.933  -9.949  0.00  0.00    +0.000 OA
ATOM      3  O   UNL     1       2.915 -21.005  -9.670  0.00  0.00    +0.000 OA
ATOM      4  C   UNL     1       3.999 -17.785  -9.107  0.00  0.00    +0.000 C 
ATOM      5  C   UNL     1       4.222 -16.628 -11.469  0.00  0.00    +0.000 C 
ATOM      6  C   UNL     1       3.618 -17.143 -10.304  0.00  0.00    +0.000 C 
ATOM      7  C   UNL     1       5.497 -17.917  -8.964  0.00  0.00    +0.000 C 
ATOM      8  C   UNL     1       3.210 -18.900  -8.613  0.00  0.00    +0.000 C 
ATOM      9  C   UNL     1       3.564 -15.837 -12.564  0.00  0.00    +0.000 C 
ATOM     10  C   UNL     1       5.664 -16.746 -11.418  0.00  0.00    +0.000 C 
ATOM     11  C   UNL     1       6.328 -17.168 -10.111  0.00  0.00    +0.000 C 
ATOM     12  C   UNL     1       5.973 -19.372  -8.935  0.00  0.00    +0.000 C 
ATOM     13  C   UNL     1       4.387 -15.765 -13.842  0.00  0.00    +0.000 A 
ATOM     14  C   UNL     1       3.673 -20.224  -9.114  0.00  0.00    +0.000 C 
ATOM     15  C   UNL     1       6.411 -16.455 -12.499  0.00  0.00    +0.000 C 
ATOM     16  C   UNL     1       5.152 -20.445  -9.027  0.00  0.00    +0.000 C 
ATOM     17  C   UNL     1       5.775 -16.101 -13.806  0.00  0.00    +0.000 A 
ATOM     18  C   UNL     1       3.241 -14.431 -12.019  0.00  0.00    +0.000 C 
ATOM     19  C   UNL     1       3.821 -15.365 -15.076  0.00  0.00    +0.000 A 
ATOM     20  C   UNL     1       6.498 -16.089 -15.019  0.00  0.00    +0.000 A 
ATOM     21  C   UNL     1       4.578 -15.333 -16.244  0.00  0.00    +0.000 A 
ATOM     22  C   UNL     1       5.908 -15.708 -16.221  0.00  0.00    +0.000 A 
ENDROOT
BRANCH  16  23
ATOM     23  C   UNL     1       5.645 -21.849  -8.944  0.00  0.00    +0.000 C 
ATOM     24  O   UNL     1       6.599 -22.243  -9.601  0.00  0.00    +0.000 OA
ATOM     25  N   UNL     1       4.974 -22.691  -8.112  0.00  0.00    +0.000 N 
ATOM     26  H   UNL     1       4.040 -22.456  -7.795  0.00  0.00    +0.000 HD
ATOM     27  H   UNL     1       5.233 -23.668  -8.146  0.00  0.00    +0.000 HD
ENDBRANCH  16  23
BRANCH   8  28
ATOM     28  N   UNL     1       2.510 -18.830  -7.358  0.00  0.00    +0.000 NA
ATOM     29  C   UNL     1       1.069 -18.997  -7.474  0.00  0.00    +0.000 C 
ATOM     30  C   UNL     1       2.991 -19.770  -6.366  0.00  0.00    +0.000 C 
ENDBRANCH   8  28
BRANCH  12  31
ATOM     31  O   UNL     1       7.344 -19.544  -8.726  0.00  0.00    +0.000 OA
ATOM     32  H   UNL     1       7.612 -18.991  -7.957  0.00  0.00    +0.000 HD
ENDBRANCH  12  31
BRANCH   7  33
ATOM     33  O   UNL     1       5.869 -17.390  -7.690  0.00  0.00    +0.000 OA
ATOM     34  H   UNL     1       5.664 -18.061  -7.013  0.00  0.00    +0.000 HD
ENDBRANCH   7  33
BRANCH  15  35
ATOM     35  O   UNL     1       7.790 -16.441 -12.477  0.00  0.00    +0.000 OA
ATOM     36  H   UNL     1       8.147 -16.549 -13.383  0.00  0.00    +0.000 HD
ENDBRANCH  15  35
BRANCH   9  37
ATOM     37  O   UNL     1       2.322 -16.467 -12.809  0.00  0.00    +0.000 OA
ATOM     38  H   UNL     1       2.419 -17.284 -12.287  0.00  0.00    +0.000 HD
ENDBRANCH   9  37
BRANCH  20  39
ATOM     39  O   UNL     1       7.803 -16.496 -15.078  0.00  0.00    +0.000 OA
ATOM     40  H   UNL     1       7.982 -17.119 -14.352  0.00  0.00    +0.000 HD
ENDBRANCH  20  39
TORSDOF 7
ENDMDL
MODEL 2
REMARK VINA RESULT:      -5.7     22.141     25.133
REMARK  Name = Chlortetracycline.pdbqt.pdb
REMARK  7 active torsions:
REMARK  status: ('A' for Active; 'I' for Inactive)
REMARK    1  A    between atoms: C_7  and  O_30
REMARK    2  A    between atoms: C_8  and  N_32
REMARK    3  A    between atoms: C_9  and  O_37
REMARK    4  A    between atoms: C_12  and  O_28
REMARK    5  A    between atoms: C_15  and  O_35
REMARK    6  A    between atoms: C_16  and  C_23
REMARK    7  A    between atoms: C_20  and  O_39
REMARK                            x       y       z     vdW  Elec       q    Type
REMARK                         _______ _______ _______ _____ _____    ______ ____
ROOT
ATOM      1 CL   UNL     1     -11.234  -5.371   6.620  0.00  0.00    +0.000 Cl
ATOM      2  O   UNL     1     -12.974  -6.190  -0.970  0.00  0.00    +0.000 OA
ATOM      3  O   UNL     1      -8.950  -1.552  -0.445  0.00  0.00    +0.000 OA
ATOM      4  C   UNL     1     -12.135  -2.725   0.133  0.00  0.00    +0.000 C 
ATOM      5  C   UNL     1     -11.960  -4.478   2.098  0.00  0.00    +0.000 C 
ATOM      6  C   UNL     1     -12.018  -3.231   1.445  0.00  0.00    +0.000 C 
ATOM      7  C   UNL     1     -12.325  -3.811  -0.898  0.00  0.00    +0.000 C 
ATOM      8  C   UNL     1     -11.317  -1.596  -0.271  0.00  0.00    +0.000 C 
ATOM      9  C   UNL     1     -11.979  -4.736   3.579  0.00  0.00    +0.000 C 
ATOM     10  C   UNL     1     -12.106  -5.576   1.166  0.00  0.00    +0.000 C 
ATOM     11  C   UNL     1     -12.509  -5.276  -0.275  0.00  0.00    +0.000 C 
ATOM     12  C   UNL     1     -11.175  -3.889  -1.908  0.00  0.00    +0.000 C 
ATOM     13  C   UNL     1     -11.520  -6.135   3.960  0.00  0.00    +0.000 A 
ATOM     14  C   UNL     1     -10.010  -1.992  -0.866  0.00  0.00    +0.000 C 
ATOM     15  C   UNL     1     -11.922  -6.846   1.571  0.00  0.00    +0.000 C 
ATOM     16  C   UNL     1     -10.092  -3.077  -1.894  0.00  0.00    +0.000 C 
ATOM     17  C   UNL     1     -11.466  -7.155   2.961  0.00  0.00    +0.000 A 
ATOM     18  C   UNL     1     -13.399  -4.442   4.103  0.00  0.00    +0.000 C 
ATOM     19  C   UNL     1     -11.151  -6.467   5.285  0.00  0.00    +0.000 A 
ATOM     20  C   UNL     1     -10.974  -8.427   3.330  0.00  0.00    +0.000 A 
ATOM     21  C   UNL     1     -10.704  -7.744   5.615  0.00  0.00    +0.000 A 
ATOM     22  C   UNL     1     -10.601  -8.717   4.639  0.00  0.00    +0.000 A 
ENDROOT
BRANCH  16  23
ATOM     23  C   UNL     1      -9.017  -3.147  -2.924  0.00  0.00    +0.000 C 
ATOM     24  O   UNL     1      -9.257  -3.068  -4.121  0.00  0.00    +0.000 OA
ATOM     25  N   UNL     1      -7.744  -3.322  -2.477  0.00  0.00    +0.000 N 
ATOM     26  H   UNL     1      -7.577  -3.665  -1.537  0.00  0.00    +0.000 HD
ATOM     27  H   UNL     1      -7.033  -3.488  -3.177  0.00  0.00    +0.000 HD
ENDBRANCH  16  23
BRANCH   8  28
ATOM     28  N   UNL     1     -11.902  -0.335  -0.640  0.00  0.00    +0.000 NA
ATOM     29  C   UNL     1     -13.341  -0.264  -0.428  0.00  0.00    +0.000 C 
ATOM     30  C   UNL     1     -11.297   0.807   0.015  0.00  0.00    +0.000 C 
ENDBRANCH   8  28
BRANCH  12  31
ATOM     31  O   UNL     1     -11.344  -4.829  -2.929  0.00  0.00    +0.000 OA
ATOM     32  H   UNL     1     -11.766  -4.379  -3.697  0.00  0.00    +0.000 HD
ENDBRANCH  12  31
BRANCH   7  33
ATOM     33  O   UNL     1     -13.473  -3.483  -1.683  0.00  0.00    +0.000 OA
ATOM     34  H   UNL     1     -13.400  -3.949  -2.536  0.00  0.00    +0.000 HD
ENDBRANCH   7  33
BRANCH  15  35
ATOM     35  O   UNL     1     -12.156  -7.935   0.758  0.00  0.00    +0.000 OA
ATOM     36  H   UNL     1     -12.570  -8.661   1.270  0.00  0.00    +0.000 HD
ENDBRANCH  15  35
BRANCH   9  37
ATOM     37  O   UNL     1     -11.130  -3.762   4.154  0.00  0.00    +0.000 OA
ATOM     38  H   UNL     1     -11.510  -3.683   5.048  0.00  0.00    +0.000 HD
ENDBRANCH   9  37
BRANCH  20  39
ATOM     39  O   UNL     1     -10.798  -9.421   2.406  0.00  0.00    +0.000 OA
ATOM     40  H   UNL     1     -10.238 -10.120   2.785  0.00  0.00    +0.000 HD
ENDBRANCH  20  39
TORSDOF 7
ENDMDL
MODEL 3
REMARK VINA RESULT:      -5.7     24.116     25.967
REMARK  Name = Chlortetracycline.pdbqt.pdb
REMARK  7 active torsions:
REMARK  status: ('A' for Active; 'I' for Inactive)
REMARK    1  A    between atoms: C_7  and  O_30
REMARK    2  A    between atoms: C_8  and  N_32
REMARK    3  A    between atoms: C_9  and  O_37
REMARK    4  A    between atoms: C_12  and  O_28
REMARK    5  A    between atoms: C_15  and  O_35
REMARK    6  A    between atoms: C_16  and  C_23
REMARK    7  A    between atoms: C_20  and  O_39
REMARK                            x       y       z     vdW  Elec       q    Type
REMARK                         _______ _______ _______ _____ _____    ______ ____
ROOT
ATOM      1 CL   UNL     1      11.109   6.692   1.709  0.00  0.00    +0.000 Cl
ATOM      2  O   UNL     1       5.138   1.855   0.213  0.00  0.00    +0.000 OA
ATOM      3  O   UNL     1       3.409   5.639   4.760  0.00  0.00    +0.000 OA
ATOM      4  C   UNL     1       5.419   3.035   3.742  0.00  0.00    +0.000 C 
ATOM      5  C   UNL     1       7.280   4.070   2.182  0.00  0.00    +0.000 C 
ATOM      6  C   UNL     1       6.595   3.716   3.362  0.00  0.00    +0.000 C 
ATOM      7  C   UNL     1       4.684   2.435   2.567  0.00  0.00    +0.000 C 
ATOM      8  C   UNL     1       4.591   3.581   4.802  0.00  0.00    +0.000 C 
ATOM      9  C   UNL     1       8.641   4.697   2.070  0.00  0.00    +0.000 C 
ATOM     10  C   UNL     1       6.616   3.552   1.004  0.00  0.00    +0.000 C 
ATOM     11  C   UNL     1       5.468   2.561   1.176  0.00  0.00    +0.000 C 
ATOM     12  C   UNL     1       3.290   3.036   2.359  0.00  0.00    +0.000 C 
ATOM     13  C   UNL     1       8.925   5.296   0.701  0.00  0.00    +0.000 A 
ATOM     14  C   UNL     1       3.533   4.508   4.313  0.00  0.00    +0.000 C 
ATOM     15  C   UNL     1       7.026   3.912  -0.226  0.00  0.00    +0.000 C 
ATOM     16  C   UNL     1       2.754   4.006   3.136  0.00  0.00    +0.000 C 
ATOM     17  C   UNL     1       8.107   4.930  -0.412  0.00  0.00    +0.000 A 
ATOM     18  C   UNL     1       9.695   3.638   2.454  0.00  0.00    +0.000 C 
ATOM     19  C   UNL     1       9.986   6.208   0.487  0.00  0.00    +0.000 A 
ATOM     20  C   UNL     1       8.352   5.551  -1.656  0.00  0.00    +0.000 A 
ATOM     21  C   UNL     1      10.216   6.772  -0.764  0.00  0.00    +0.000 A 
ATOM     22  C   UNL     1       9.394   6.459  -1.830  0.00  0.00    +0.000 A 
ENDROOT
BRANCH  16  23
ATOM     23  C   UNL     1       1.374   4.532   2.936  0.00  0.00    +0.000 C 
ATOM     24  O   UNL     1       0.882   4.658   1.822  0.00  0.00    +0.000 OA
ATOM     25  N   UNL     1       0.680   4.886   4.051  0.00  0.00    +0.000 N 
ATOM     26  H   UNL     1       1.169   5.050   4.924  0.00  0.00    +0.000 HD
ATOM     27  H   UNL     1      -0.206   5.352   3.908  0.00  0.00    +0.000 HD
ENDBRANCH  16  23
BRANCH   8  28
ATOM     28  N   UNL     1       4.387   2.874   6.039  0.00  0.00    +0.000 NA
ATOM     29  C   UNL     1       4.835   3.601   7.218  0.00  0.00    +0.000 C 
ATOM     30  C   UNL     1       3.015   2.464   6.260  0.00  0.00    +0.000 C 
ENDBRANCH   8  28
BRANCH  12  31
ATOM     31  O   UNL     1       2.542   2.457   1.331  0.00  0.00    +0.000 OA
ATOM     32  H   UNL     1       2.067   1.675   1.696  0.00  0.00    +0.000 HD
ENDBRANCH  12  31
BRANCH   7  33
ATOM     33  O   UNL     1       4.444   1.056   2.852  0.00  0.00    +0.000 OA
ATOM     34  H   UNL     1       4.635   0.543   2.045  0.00  0.00    +0.000 HD
ENDBRANCH   7  33
BRANCH  15  35
ATOM     35  O   UNL     1       6.507   3.366  -1.380  0.00  0.00    +0.000 OA
ATOM     36  H   UNL     1       7.133   3.483  -2.125  0.00  0.00    +0.000 HD
ENDBRANCH  15  35
BRANCH   9  37
ATOM     37  O   UNL     1       8.693   5.696   3.069  0.00  0.00    +0.000 OA
ATOM     38  H   UNL     1       9.653   5.860   3.123  0.00  0.00    +0.000 HD
ENDBRANCH   9  37
BRANCH  20  39
ATOM     39  O   UNL     1       7.546   5.326  -2.739  0.00  0.00    +0.000 OA
ATOM     40  H   UNL     1       6.702   5.795  -2.619  0.00  0.00    +0.000 HD
ENDBRANCH  20  39
TORSDOF 7
ENDMDL
MODEL 4
REMARK VINA RESULT:      -5.6     29.533     31.995
REMARK  Name = Chlortetracycline.pdbqt.pdb
REMARK  7 active torsions:
REMARK  status: ('A' for Active; 'I' for Inactive)
REMARK    1  A    between atoms: C_7  and  O_30
REMARK    2  A    between atoms: C_8  and  N_32
REMARK    3  A    between atoms: C_9  and  O_37
REMARK    4  A    between atoms: C_12  and  O_28
REMARK    5  A    between atoms: C_15  and  O_35
REMARK    6  A    between atoms: C_16  and  C_23
REMARK    7  A    between atoms: C_20  and  O_39
REMARK                            x       y       z     vdW  Elec       q    Type
REMARK                         _______ _______ _______ _____ _____    ______ ____
ROOT
ATOM      1 CL   UNL     1       9.917  15.118 -21.420  0.00  0.00    +0.000 Cl
ATOM      2  O   UNL     1      14.675  11.898 -16.101  0.00  0.00    +0.000 OA
ATOM      3  O   UNL     1       9.093  12.456 -13.549  0.00  0.00    +0.000 OA
ATOM      4  C   UNL     1      11.923  14.017 -14.738  0.00  0.00    +0.000 C 
ATOM      5  C   UNL     1      11.847  13.838 -17.370  0.00  0.00    +0.000 C 
ATOM      6  C   UNL     1      11.554  14.298 -16.070  0.00  0.00    +0.000 C 
ATOM      7  C   UNL     1      12.999  12.963 -14.638  0.00  0.00    +0.000 C 
ATOM      8  C   UNL     1      10.901  13.986 -13.707  0.00  0.00    +0.000 C 
ATOM      9  C   UNL     1      11.399  14.438 -18.673  0.00  0.00    +0.000 C 
ATOM     10  C   UNL     1      12.856  12.800 -17.353  0.00  0.00    +0.000 C 
ATOM     11  C   UNL     1      13.598  12.508 -16.052  0.00  0.00    +0.000 C 
ATOM     12  C   UNL     1      12.534  11.696 -13.913  0.00  0.00    +0.000 C 
ATOM     13  C   UNL     1      11.559  13.502 -19.861  0.00  0.00    +0.000 A 
ATOM     14  C   UNL     1      10.301  12.638 -13.504  0.00  0.00    +0.000 C 
ATOM     15  C   UNL     1      13.159  12.124 -18.477  0.00  0.00    +0.000 C 
ATOM     16  C   UNL     1      11.291  11.519 -13.406  0.00  0.00    +0.000 C 
ATOM     17  C   UNL     1      12.399  12.352 -19.745  0.00  0.00    +0.000 A 
ATOM     18  C   UNL     1      12.165  15.759 -18.886  0.00  0.00    +0.000 C 
ATOM     19  C   UNL     1      10.904  13.736 -21.094  0.00  0.00    +0.000 A 
ATOM     20  C   UNL     1      12.477  11.466 -20.841  0.00  0.00    +0.000 A 
ATOM     21  C   UNL     1      11.034  12.855 -22.164  0.00  0.00    +0.000 A 
ATOM     22  C   UNL     1      11.805  11.716 -22.035  0.00  0.00    +0.000 A 
ENDROOT
BRANCH  16  23
ATOM     23  C   UNL     1      10.889  10.293 -12.661  0.00  0.00    +0.000 C 
ATOM     24  O   UNL     1      10.819   9.198 -13.202  0.00  0.00    +0.000 OA
ATOM     25  N   UNL     1      10.582  10.443 -11.344  0.00  0.00    +0.000 N 
ATOM     26  H   UNL     1      10.366  11.362 -10.973  0.00  0.00    +0.000 HD
ATOM     27  H   UNL     1      10.196   9.638 -10.871  0.00  0.00    +0.000 HD
ENDBRANCH  16  23
BRANCH   8  28
ATOM     28  N   UNL     1      10.902  14.924 -12.616  0.00  0.00    +0.000 NA
ATOM     29  C   UNL     1      11.557  14.433 -11.412  0.00  0.00    +0.000 C 
ATOM     30  C   UNL     1      11.483  16.209 -12.948  0.00  0.00    +0.000 C 
ENDBRANCH   8  28
BRANCH  12  31
ATOM     31  O   UNL     1      13.521  10.723 -13.727  0.00  0.00    +0.000 OA
ATOM     32  H   UNL     1      13.819  10.759 -12.789  0.00  0.00    +0.000 HD
ENDBRANCH  12  31
BRANCH   7  33
ATOM     33  O   UNL     1      14.052  13.480 -13.823  0.00  0.00    +0.000 OA
ATOM     34  H   UNL     1      13.655  14.059 -13.146  0.00  0.00    +0.000 HD
ENDBRANCH   7  33
BRANCH  15  35
ATOM     35  O   UNL     1      14.185  11.205 -18.546  0.00  0.00    +0.000 OA
ATOM     36  H   UNL     1      14.121  10.683 -19.373  0.00  0.00    +0.000 HD
ENDBRANCH  15  35
BRANCH   9  37
ATOM     37  O   UNL     1      10.040  14.786 -18.495  0.00  0.00    +0.000 OA
ATOM     38  H   UNL     1      10.078  15.272 -17.651  0.00  0.00    +0.000 HD
ENDBRANCH   9  37
BRANCH  20  39
ATOM     39  O   UNL     1      13.180  10.294 -20.766  0.00  0.00    +0.000 OA
ATOM     40  H   UNL     1      13.971  10.425 -20.215  0.00  0.00    +0.000 HD
ENDBRANCH  20  39
TORSDOF 7
ENDMDL
MODEL 5
REMARK VINA RESULT:      -5.5     25.527     27.658
REMARK  Name = Chlortetracycline.pdbqt.pdb
REMARK  7 active torsions:
REMARK  status: ('A' for Active; 'I' for Inactive)
REMARK    1  A    between atoms: C_7  and  O_30
REMARK    2  A    between atoms: C_8  and  N_32
REMARK    3  A    between atoms: C_9  and  O_37
REMARK    4  A    between atoms: C_12  and  O_28
REMARK    5  A    between atoms: C_15  and  O_35
REMARK    6  A    between atoms: C_16  and  C_23
REMARK    7  A    between atoms: C_20  and  O_39
REMARK                            x       y       z     vdW  Elec       q    Type
REMARK                         _______ _______ _______ _____ _____    ______ ____
ROOT
ATOM      1 CL   UNL     1      12.354   1.288   6.304  0.00  0.00    +0.000 Cl
ATOM      2  O   UNL     1       9.310   4.008  -0.378  0.00  0.00    +0.000 OA
ATOM      3  O   UNL     1      12.885   8.427   2.005  0.00  0.00    +0.000 OA
ATOM      4  C   UNL     1       9.996   6.568   2.249  0.00  0.00    +0.000 C 
ATOM      5  C   UNL     1      10.709   4.141   2.998  0.00  0.00    +0.000 C 
ATOM      6  C   UNL     1      10.406   5.514   3.091  0.00  0.00    +0.000 C 
ATOM      7  C   UNL     1       9.724   6.116   0.834  0.00  0.00    +0.000 C 
ATOM      8  C   UNL     1      10.609   7.877   2.394  0.00  0.00    +0.000 C 
ATOM      9  C   UNL     1      10.994   3.190   4.127  0.00  0.00    +0.000 C 
ATOM     10  C   UNL     1      10.499   3.638   1.657  0.00  0.00    +0.000 C 
ATOM     11  C   UNL     1       9.806   4.529   0.631  0.00  0.00    +0.000 C 
ATOM     12  C   UNL     1      10.666   6.754  -0.193  0.00  0.00    +0.000 C 
ATOM     13  C   UNL     1      11.651   1.893   3.681  0.00  0.00    +0.000 A 
ATOM     14  C   UNL     1      11.813   8.068   1.539  0.00  0.00    +0.000 C 
ATOM     15  C   UNL     1      10.880   2.389   1.328  0.00  0.00    +0.000 C 
ATOM     16  C   UNL     1      11.647   7.634   0.116  0.00  0.00    +0.000 C 
ATOM     17  C   UNL     1      11.617   1.525   2.301  0.00  0.00    +0.000 A 
ATOM     18  C   UNL     1       9.675   2.927   4.883  0.00  0.00    +0.000 C 
ATOM     19  C   UNL     1      12.293   1.025   4.596  0.00  0.00    +0.000 A 
ATOM     20  C   UNL     1      12.292   0.349   1.906  0.00  0.00    +0.000 A 
ATOM     21  C   UNL     1      12.918  -0.144   4.170  0.00  0.00    +0.000 A 
ATOM     22  C   UNL     1      12.931  -0.475   2.828  0.00  0.00    +0.000 A 
ENDROOT
BRANCH  16  23
ATOM     23  C   UNL     1      12.512   8.274  -0.915  0.00  0.00    +0.000 C 
ATOM     24  O   UNL     1      13.111   7.620  -1.758  0.00  0.00    +0.000 OA
ATOM     25  N   UNL     1      12.625   9.629  -0.872  0.00  0.00    +0.000 N 
ATOM     26  H   UNL     1      12.371  10.135  -0.030  0.00  0.00    +0.000 HD
ATOM     27  H   UNL     1      13.302  10.051  -1.494  0.00  0.00    +0.000 HD
ENDBRANCH  16  23
BRANCH   8  28
ATOM     28  N   UNL     1       9.843   9.027   2.794  0.00  0.00    +0.000 NA
ATOM     29  C   UNL     1       9.791  10.083   1.792  0.00  0.00    +0.000 C 
ATOM     30  C   UNL     1       8.484   8.718   3.190  0.00  0.00    +0.000 C 
ENDBRANCH   8  28
BRANCH  12  31
ATOM     31  O   UNL     1      10.402   6.424  -1.525  0.00  0.00    +0.000 OA
ATOM     32  H   UNL     1      11.132   6.779  -2.082  0.00  0.00    +0.000 HD
ENDBRANCH  12  31
BRANCH   7  33
ATOM     33  O   UNL     1       8.423   6.574   0.464  0.00  0.00    +0.000 OA
ATOM     34  H   UNL     1       8.529   7.353  -0.114  0.00  0.00    +0.000 HD
ENDBRANCH   7  33
BRANCH  15  35
ATOM     35  O   UNL     1      10.606   1.820   0.103  0.00  0.00    +0.000 OA
ATOM     36  H   UNL     1      10.407   0.866   0.207  0.00  0.00    +0.000 HD
ENDBRANCH  15  35
BRANCH   9  37
ATOM     37  O   UNL     1      11.835   3.890   5.023  0.00  0.00    +0.000 OA
ATOM     38  H   UNL     1      11.772   4.797   4.672  0.00  0.00    +0.000 HD
ENDBRANCH   9  37
BRANCH  20  39
ATOM     39  O   UNL     1      12.389  -0.012   0.589  0.00  0.00    +0.000 OA
ATOM     40  H   UNL     1      11.553  -0.417   0.301  0.00  0.00    +0.000 HD
ENDBRANCH  20  39
TORSDOF 7
ENDMDL
MODEL 6
REMARK VINA RESULT:      -5.5     29.634     31.303
REMARK  Name = Chlortetracycline.pdbqt.pdb
REMARK  7 active torsions:
REMARK  status: ('A' for Active; 'I' for Inactive)
REMARK    1  A    between atoms: C_7  and  O_30
REMARK    2  A    between atoms: C_8  and  N_32
REMARK    3  A    between atoms: C_9  and  O_37
REMARK    4  A    between atoms: C_12  and  O_28
REMARK    5  A    between atoms: C_15  and  O_35
REMARK    6  A    between atoms: C_16  and  C_23
REMARK    7  A    between atoms: C_20  and  O_39
REMARK                            x       y       z     vdW  Elec       q    Type
REMARK                         _______ _______ _______ _____ _____    ______ ____
ROOT
ATOM      1 CL   UNL     1      16.781  10.474 -16.652  0.00  0.00    +0.000 Cl
ATOM      2  O   UNL     1      11.029  10.283 -11.344  0.00  0.00    +0.000 OA
ATOM      3  O   UNL     1      14.624  15.120 -10.058  0.00  0.00    +0.000 OA
ATOM      4  C   UNL     1      14.274  11.696 -10.163  0.00  0.00    +0.000 C 
ATOM      5  C   UNL     1      14.346  10.997 -12.706  0.00  0.00    +0.000 C 
ATOM      6  C   UNL     1      14.804  11.395 -11.434  0.00  0.00    +0.000 C 
ATOM      7  C   UNL     1      12.783  11.472 -10.082  0.00  0.00    +0.000 C 
ATOM      8  C   UNL     1      14.789  12.838  -9.428  0.00  0.00    +0.000 C 
ATOM      9  C   UNL     1      15.177  10.593 -13.892  0.00  0.00    +0.000 C 
ATOM     10  C   UNL     1      12.913  10.790 -12.716  0.00  0.00    +0.000 C 
ATOM     11  C   UNL     1      12.154  10.799 -11.392  0.00  0.00    +0.000 C 
ATOM     12  C   UNL     1      11.995  12.758  -9.810  0.00  0.00    +0.000 C 
ATOM     13  C   UNL     1      14.409  10.594 -15.204  0.00  0.00    +0.000 A 
ATOM     14  C   UNL     1      14.050  14.103  -9.699  0.00  0.00    +0.000 C 
ATOM     15  C   UNL     1      12.263  10.559 -13.872  0.00  0.00    +0.000 C 
ATOM     16  C   UNL     1      12.559  13.979  -9.655  0.00  0.00    +0.000 C 
ATOM     17  C   UNL     1      12.980  10.610 -15.184  0.00  0.00    +0.000 A 
ATOM     18  C   UNL     1      15.797   9.211 -13.599  0.00  0.00    +0.000 C 
ATOM     19  C   UNL     1      15.066  10.571 -16.457  0.00  0.00    +0.000 A 
ATOM     20  C   UNL     1      12.294  10.677 -16.417  0.00  0.00    +0.000 A 
ATOM     21  C   UNL     1      14.351  10.604 -17.652  0.00  0.00    +0.000 A 
ATOM     22  C   UNL     1      12.971  10.672 -17.633  0.00  0.00    +0.000 A 
ENDROOT
BRANCH  16  23
ATOM     23  C   UNL     1      11.765  15.201  -9.341  0.00  0.00    +0.000 C 
ATOM     24  O   UNL     1      10.999  15.250  -8.388  0.00  0.00    +0.000 OA
ATOM     25  N   UNL     1      11.914  16.266 -10.174  0.00  0.00    +0.000 N 
ATOM     26  H   UNL     1      12.313  16.138 -11.097  0.00  0.00    +0.000 HD
ATOM     27  H   UNL     1      11.290  17.048 -10.030  0.00  0.00    +0.000 HD
ENDBRANCH  16  23
BRANCH   8  28
ATOM     28  N   UNL     1      15.470  12.680  -8.170  0.00  0.00    +0.000 NA
ATOM     29  C   UNL     1      14.686  13.094  -7.015  0.00  0.00    +0.000 C 
ATOM     30  C   UNL     1      15.947  11.334  -7.927  0.00  0.00    +0.000 C 
ENDBRANCH   8  28
BRANCH  12  31
ATOM     31  O   UNL     1      10.617  12.587  -9.650  0.00  0.00    +0.000 OA
ATOM     32  H   UNL     1      10.394  11.652  -9.863  0.00  0.00    +0.000 HD
ENDBRANCH  12  31
BRANCH   7  33
ATOM     33  O   UNL     1      12.519  10.642  -8.950  0.00  0.00    +0.000 OA
ATOM     34  H   UNL     1      13.296  10.070  -8.807  0.00  0.00    +0.000 HD
ENDBRANCH   7  33
BRANCH  15  35
ATOM     35  O   UNL     1      10.922  10.245 -13.929  0.00  0.00    +0.000 OA
ATOM     36  H   UNL     1      10.413  10.992 -14.307  0.00  0.00    +0.000 HD
ENDBRANCH  15  35
BRANCH   9  37
ATOM     37  O   UNL     1      16.252  11.511 -13.945  0.00  0.00    +0.000 OA
ATOM     38  H   UNL     1      16.616  11.324 -14.829  0.00  0.00    +0.000 HD
ENDBRANCH   9  37
BRANCH  20  39
ATOM     39  O   UNL     1      10.932  10.798 -16.472  0.00  0.00    +0.000 OA
ATOM     40  H   UNL     1      10.524   9.924 -16.350  0.00  0.00    +0.000 HD
ENDBRANCH  20  39
TORSDOF 7
ENDMDL
MODEL 7
REMARK VINA RESULT:      -5.4     29.696     31.928
REMARK  Name = Chlortetracycline.pdbqt.pdb
REMARK  7 active torsions:
REMARK  status: ('A' for Active; 'I' for Inactive)
REMARK    1  A    between atoms: C_7  and  O_30
REMARK    2  A    between atoms: C_8  and  N_32
REMARK    3  A    between atoms: C_9  and  O_37
REMARK    4  A    between atoms: C_12  and  O_28
REMARK    5  A    between atoms: C_15  and  O_35
REMARK    6  A    between atoms: C_16  and  C_23
REMARK    7  A    between atoms: C_20  and  O_39
REMARK                            x       y       z     vdW  Elec       q    Type
REMARK                         _______ _______ _______ _____ _____    ______ ____
ROOT
ATOM      1 CL   UNL     1     -14.161   9.222  -9.829  0.00  0.00    +0.000 Cl
ATOM      2  O   UNL     1     -12.270   7.196  -2.506  0.00  0.00    +0.000 OA
ATOM      3  O   UNL     1     -17.596   4.433  -3.914  0.00  0.00    +0.000 OA
ATOM      4  C   UNL     1     -15.924   7.368  -3.245  0.00  0.00    +0.000 C 
ATOM      5  C   UNL     1     -14.441   7.903  -5.362  0.00  0.00    +0.000 C 
ATOM      6  C   UNL     1     -15.584   7.803  -4.543  0.00  0.00    +0.000 C 
ATOM      7  C   UNL     1     -14.722   6.936  -2.439  0.00  0.00    +0.000 C 
ATOM      8  C   UNL     1     -17.137   6.594  -3.047  0.00  0.00    +0.000 C 
ATOM      9  C   UNL     1     -14.337   8.565  -6.708  0.00  0.00    +0.000 C 
ATOM     10  C   UNL     1     -13.247   7.477  -4.665  0.00  0.00    +0.000 C 
ATOM     11  C   UNL     1     -13.320   7.210  -3.164  0.00  0.00    +0.000 C 
ATOM     12  C   UNL     1     -14.754   5.452  -2.059  0.00  0.00    +0.000 C 
ATOM     13  C   UNL     1     -13.092   8.170  -7.486  0.00  0.00    +0.000 A 
ATOM     14  C   UNL     1     -16.929   5.124  -3.158  0.00  0.00    +0.000 C 
ATOM     15  C   UNL     1     -12.080   7.350  -5.323  0.00  0.00    +0.000 C 
ATOM     16  C   UNL     1     -15.748   4.599  -2.401  0.00  0.00    +0.000 C 
ATOM     17  C   UNL     1     -12.003   7.546  -6.804  0.00  0.00    +0.000 A 
ATOM     18  C   UNL     1     -14.417  10.092  -6.503  0.00  0.00    +0.000 C 
ATOM     19  C   UNL     1     -12.969   8.410  -8.876  0.00  0.00    +0.000 A 
ATOM     20  C   UNL     1     -10.887   7.131  -7.563  0.00  0.00    +0.000 A 
ATOM     21  C   UNL     1     -11.836   8.015  -9.582  0.00  0.00    +0.000 A 
ATOM     22  C   UNL     1     -10.804   7.365  -8.933  0.00  0.00    +0.000 A 
ENDROOT
BRANCH  16  23
ATOM     23  C   UNL     1     -15.772   3.173  -1.970  0.00  0.00    +0.000 C 
ATOM     24  O   UNL     1     -14.750   2.563  -1.685  0.00  0.00    +0.000 OA
ATOM     25  N   UNL     1     -16.987   2.562  -1.923  0.00  0.00    +0.000 N 
ATOM     26  H   UNL     1     -17.777   2.961  -2.418  0.00  0.00    +0.000 HD
ATOM     27  H   UNL     1     -16.990   1.566  -1.747  0.00  0.00    +0.000 HD
ENDBRANCH  16  23
BRANCH   8  28
ATOM     28  N   UNL     1     -18.225   7.091  -2.248  0.00  0.00    +0.000 NA
ATOM     29  C   UNL     1     -19.478   7.236  -2.976  0.00  0.00    +0.000 C 
ATOM     30  C   UNL     1     -18.487   6.304  -1.061  0.00  0.00    +0.000 C 
ENDBRANCH   8  28
BRANCH  12  31
ATOM     31  O   UNL     1     -13.701   5.025  -1.246  0.00  0.00    +0.000 OA
ATOM     32  H   UNL     1     -13.751   4.045  -1.164  0.00  0.00    +0.000 HD
ENDBRANCH  12  31
BRANCH   7  33
ATOM     33  O   UNL     1     -14.753   7.629  -1.191  0.00  0.00    +0.000 OA
ATOM     34  H   UNL     1     -14.558   8.569  -1.361  0.00  0.00    +0.000 HD
ENDBRANCH   7  33
BRANCH  15  35
ATOM     35  O   UNL     1     -10.890   7.057  -4.691  0.00  0.00    +0.000 OA
ATOM     36  H   UNL     1     -11.048   6.839  -3.748  0.00  0.00    +0.000 HD
ENDBRANCH  15  35
BRANCH   9  37
ATOM     37  O   UNL     1     -15.503   8.194  -7.416  0.00  0.00    +0.000 OA
ATOM     38  H   UNL     1     -16.072   7.877  -6.691  0.00  0.00    +0.000 HD
ENDBRANCH   9  37
BRANCH  20  39
ATOM     39  O   UNL     1      -9.853   6.436  -6.995  0.00  0.00    +0.000 OA
ATOM     40  H   UNL     1     -10.192   5.890  -6.265  0.00  0.00    +0.000 HD
ENDBRANCH  20  39
TORSDOF 7
ENDMDL
MODEL 8
REMARK VINA RESULT:      -5.3     22.020     24.556
REMARK  Name = Chlortetracycline.pdbqt.pdb
REMARK  7 active torsions:
REMARK  status: ('A' for Active; 'I' for Inactive)
REMARK    1  A    between atoms: C_7  and  O_30
REMARK    2  A    between atoms: C_8  and  N_32
REMARK    3  A    between atoms: C_9  and  O_37
REMARK    4  A    between atoms: C_12  and  O_28
REMARK    5  A    between atoms: C_15  and  O_35
REMARK    6  A    between atoms: C_16  and  C_23
REMARK    7  A    between atoms: C_20  and  O_39
REMARK                            x       y       z     vdW  Elec       q    Type
REMARK                         _______ _______ _______ _____ _____    ______ ____
ROOT
ATOM      1 CL   UNL     1      -9.707  -8.858   5.771  0.00  0.00    +0.000 Cl
ATOM      2  O   UNL     1     -14.077  -6.134  -0.127  0.00  0.00    +0.000 OA
ATOM      3  O   UNL     1      -8.530  -3.476  -0.504  0.00  0.00    +0.000 OA
ATOM      4  C   UNL     1     -11.505  -3.780   1.202  0.00  0.00    +0.000 C 
ATOM      5  C   UNL     1     -11.454  -6.121   2.419  0.00  0.00    +0.000 C 
ATOM      6  C   UNL     1     -11.183  -4.762   2.162  0.00  0.00    +0.000 C 
ATOM      7  C   UNL     1     -12.481  -4.276   0.162  0.00  0.00    +0.000 C 
ATOM      8  C   UNL     1     -10.469  -2.880   0.728  0.00  0.00    +0.000 C 
ATOM      9  C   UNL     1     -11.081  -6.910   3.643  0.00  0.00    +0.000 C 
ATOM     10  C   UNL     1     -12.365  -6.678   1.442  0.00  0.00    +0.000 C 
ATOM     11  C   UNL     1     -13.058  -5.741   0.457  0.00  0.00    +0.000 C 
ATOM     12  C   UNL     1     -11.894  -4.295  -1.253  0.00  0.00    +0.000 C 
ATOM     13  C   UNL     1     -11.174  -8.416   3.449  0.00  0.00    +0.000 A 
ATOM     14  C   UNL     1      -9.748  -3.384  -0.474  0.00  0.00    +0.000 C 
ATOM     15  C   UNL     1     -12.623  -7.998   1.423  0.00  0.00    +0.000 C 
ATOM     16  C   UNL     1     -10.633  -3.912  -1.561  0.00  0.00    +0.000 C 
ATOM     17  C   UNL     1     -11.906  -8.939   2.339  0.00  0.00    +0.000 A 
ATOM     18  C   UNL     1     -11.964  -6.434   4.814  0.00  0.00    +0.000 C 
ATOM     19  C   UNL     1     -10.561  -9.326   4.342  0.00  0.00    +0.000 A 
ATOM     20  C   UNL     1     -11.921 -10.338   2.146  0.00  0.00    +0.000 A 
ATOM     21  C   UNL     1     -10.628 -10.701   4.136  0.00  0.00    +0.000 A 
ATOM     22  C   UNL     1     -11.292 -11.207   3.034  0.00  0.00    +0.000 A 
ENDROOT
BRANCH  16  23
ATOM     23  C   UNL     1     -10.112  -3.896  -2.957  0.00  0.00    +0.000 C 
ATOM     24  O   UNL     1     -10.303  -4.822  -3.733  0.00  0.00    +0.000 OA
ATOM     25  N   UNL     1      -9.391  -2.805  -3.334  0.00  0.00    +0.000 N 
ATOM     26  H   UNL     1      -8.997  -2.188  -2.633  0.00  0.00    +0.000 HD
ATOM     27  H   UNL     1      -8.939  -2.848  -4.237  0.00  0.00    +0.000 HD
ENDBRANCH  16  23
BRANCH   8  28
ATOM     28  N   UNL     1     -10.538  -1.462   0.961  0.00  0.00    +0.000 NA
ATOM     29  C   UNL     1     -10.800  -0.676  -0.237  0.00  0.00    +0.000 C 
ATOM     30  C   UNL     1     -11.507  -1.080   1.968  0.00  0.00    +0.000 C 
ENDBRANCH   8  28
BRANCH  12  31
ATOM     31  O   UNL     1     -12.787  -4.673  -2.260  0.00  0.00    +0.000 OA
ATOM     32  H   UNL     1     -12.266  -5.010  -3.025  0.00  0.00    +0.000 HD
ENDBRANCH  12  31
BRANCH   7  33
ATOM     33  O   UNL     1     -13.564  -3.347   0.091  0.00  0.00    +0.000 OA
ATOM     34  H   UNL     1     -13.412  -2.653   0.759  0.00  0.00    +0.000 HD
ENDBRANCH   7  33
BRANCH  15  35
ATOM     35  O   UNL     1     -13.564  -8.567   0.591  0.00  0.00    +0.000 OA
ATOM     36  H   UNL     1     -14.325  -8.900   1.113  0.00  0.00    +0.000 HD
ENDBRANCH  15  35
BRANCH   9  37
ATOM     37  O   UNL     1      -9.756  -6.532   3.962  0.00  0.00    +0.000 OA
ATOM     38  H   UNL     1      -9.255  -6.990   3.262  0.00  0.00    +0.000 HD
ENDBRANCH   9  37
BRANCH  20  39
ATOM     39  O   UNL     1     -12.514 -10.903   1.050  0.00  0.00    +0.000 OA
ATOM     40  H   UNL     1     -13.480 -10.906   1.170  0.00  0.00    +0.000 HD
ENDBRANCH  20  39
TORSDOF 7
ENDMDL
MODEL 9
REMARK VINA RESULT:      -5.3     13.991     15.548
REMARK  Name = Chlortetracycline.pdbqt.pdb
REMARK  7 active torsions:
REMARK  status: ('A' for Active; 'I' for Inactive)
REMARK    1  A    between atoms: C_7  and  O_30
REMARK    2  A    between atoms: C_8  and  N_32
REMARK    3  A    between atoms: C_9  and  O_37
REMARK    4  A    between atoms: C_12  and  O_28
REMARK    5  A    between atoms: C_15  and  O_35
REMARK    6  A    between atoms: C_16  and  C_23
REMARK    7  A    between atoms: C_20  and  O_39
REMARK                            x       y       z     vdW  Elec       q    Type
REMARK                         _______ _______ _______ _____ _____    ______ ____
ROOT
ATOM      1 CL   UNL     1      16.302  -6.587  -9.916  0.00  0.00    +0.000 Cl
ATOM      2  O   UNL     1      10.294  -4.900  -5.187  0.00  0.00    +0.000 OA
ATOM      3  O   UNL     1      14.168  -8.557  -2.087  0.00  0.00    +0.000 OA
ATOM      4  C   UNL     1      11.891  -8.230  -4.650  0.00  0.00    +0.000 C 
ATOM      5  C   UNL     1      13.076  -6.839  -6.554  0.00  0.00    +0.000 C 
ATOM      6  C   UNL     1      12.733  -7.940  -5.744  0.00  0.00    +0.000 C 
ATOM      7  C   UNL     1      11.037  -7.053  -4.241  0.00  0.00    +0.000 C 
ATOM      8  C   UNL     1      12.386  -9.066  -3.571  0.00  0.00    +0.000 C 
ATOM      9  C   UNL     1      13.932  -6.847  -7.791  0.00  0.00    +0.000 C 
ATOM     10  C   UNL     1      12.316  -5.660  -6.202  0.00  0.00    +0.000 C 
ATOM     11  C   UNL     1      11.153  -5.793  -5.223  0.00  0.00    +0.000 C 
ATOM     12  C   UNL     1      11.339  -6.555  -2.824  0.00  0.00    +0.000 C 
ATOM     13  C   UNL     1      14.418  -5.467  -8.204  0.00  0.00    +0.000 A 
ATOM     14  C   UNL     1      13.038  -8.297  -2.474  0.00  0.00    +0.000 C 
ATOM     15  C   UNL     1      12.608  -4.467  -6.754  0.00  0.00    +0.000 C 
ATOM     16  C   UNL     1      12.271  -7.098  -2.007  0.00  0.00    +0.000 C 
ATOM     17  C   UNL     1      13.783  -4.306  -7.665  0.00  0.00    +0.000 A 
ATOM     18  C   UNL     1      13.139  -7.531  -8.923  0.00  0.00    +0.000 C 
ATOM     19  C   UNL     1      15.483  -5.290  -9.119  0.00  0.00    +0.000 A 
ATOM     20  C   UNL     1      14.297  -3.038  -8.015  0.00  0.00    +0.000 A 
ATOM     21  C   UNL     1      15.938  -4.021  -9.465  0.00  0.00    +0.000 A 
ATOM     22  C   UNL     1      15.359  -2.898  -8.905  0.00  0.00    +0.000 A 
ENDROOT
BRANCH  16  23
ATOM     23  C   UNL     1      12.503  -6.620  -0.615  0.00  0.00    +0.000 C 
ATOM     24  O   UNL     1      12.255  -7.316   0.361  0.00  0.00    +0.000 OA
ATOM     25  N   UNL     1      12.989  -5.358  -0.468  0.00  0.00    +0.000 N 
ATOM     26  H   UNL     1      12.925  -4.695  -1.233  0.00  0.00    +0.000 HD
ATOM     27  H   UNL     1      13.032  -4.992   0.474  0.00  0.00    +0.000 HD
ENDBRANCH  16  23
BRANCH   8  28
ATOM     28  N   UNL     1      11.795 -10.344  -3.276  0.00  0.00    +0.000 NA
ATOM     29  C   UNL     1      12.618 -11.481  -3.662  0.00  0.00    +0.000 C 
ATOM     30  C   UNL     1      11.424 -10.511  -1.885  0.00  0.00    +0.000 C 
ENDBRANCH   8  28
BRANCH  12  31
ATOM     31  O   UNL     1      10.519  -5.517  -2.373  0.00  0.00    +0.000 OA
ATOM     32  H   UNL     1       9.768  -5.419  -3.003  0.00  0.00    +0.000 HD
ENDBRANCH  12  31
BRANCH   7  33
ATOM     33  O   UNL     1       9.677  -7.489  -4.188  0.00  0.00    +0.000 OA
ATOM     34  H   UNL     1       9.351  -7.353  -3.280  0.00  0.00    +0.000 HD
ENDBRANCH   7  33
BRANCH  15  35
ATOM     35  O   UNL     1      11.850  -3.336  -6.541  0.00  0.00    +0.000 OA
ATOM     36  H   UNL     1      12.402  -2.532  -6.638  0.00  0.00    +0.000 HD
ENDBRANCH  15  35
BRANCH   9  37
ATOM     37  O   UNL     1      15.027  -7.693  -7.501  0.00  0.00    +0.000 OA
ATOM     38  H   UNL     1      15.608  -7.519  -8.264  0.00  0.00    +0.000 HD
ENDBRANCH   9  37
BRANCH  20  39
ATOM     39  O   UNL     1      13.806  -1.888  -7.459  0.00  0.00    +0.000 OA
ATOM     40  H   UNL     1      13.507  -2.069  -6.552  0.00  0.00    +0.000 HD
ENDBRANCH  20  39
TORSDOF 7
ENDMDL
