MODEL 1
REMARK VINA RESULT:      -4.8      0.000      0.000
REMARK  Name = Ciclopirox.pdbqt.pdb
REMARK  2 active torsions:
REMARK  status: ('A' for Active; 'I' for Inactive)
REMARK    1  A    between atoms: N_2  and  O_15
REMARK    2  A    between atoms: C_3  and  C_9
REMARK                            x       y       z     vdW  Elec       q    Type
REMARK                         _______ _______ _______ _____ _____    ______ ____
ROOT
ATOM      1  O   UNL     1      11.064  -2.293 -17.070  0.00  0.00    +0.000 OA
ATOM      2  N   UNL     1      11.070  -0.443 -18.506  0.00  0.00    +0.000 N 
ATOM      3  C   UNL     1      11.221   0.942 -18.661  0.00  0.00    +0.000 C 
ATOM      4  C   UNL     1      11.426   1.528 -17.508  0.00  0.00    +0.000 C 
ATOM      5  C   UNL     1      11.519   1.144 -16.139  0.00  0.00    +0.000 C 
ATOM      6  C   UNL     1      11.142  -1.087 -17.258  0.00  0.00    +0.000 C 
ATOM      7  C   UNL     1      11.360  -0.145 -16.185  0.00  0.00    +0.000 C 
ATOM      8  C   UNL     1      10.868   1.965 -15.077  0.00  0.00    +0.000 C 
ENDROOT
BRANCH   3   9
ATOM      9  C   UNL     1      11.175   1.639 -19.913  0.00  0.00    +0.000 A 
ATOM     10  C   UNL     1       9.953   2.086 -20.543  0.00  0.00    +0.000 A 
ATOM     11  C   UNL     1       9.695   2.610 -21.974  0.00  0.00    +0.000 A 
ATOM     12  C   UNL     1      10.921   2.682 -22.903  0.00  0.00    +0.000 A 
ATOM     13  C   UNL     1      12.274   2.229 -22.324  0.00  0.00    +0.000 A 
ATOM     14  C   UNL     1      12.260   1.746 -20.857  0.00  0.00    +0.000 A 
ENDBRANCH   3   9
BRANCH   2  15
ATOM     15  O   UNL     1      10.931  -1.248 -19.654  0.00  0.00    +0.000 OA
ATOM     16  H   UNL     1      11.815  -1.180 -20.069  0.00  0.00    +0.000 HD
ENDBRANCH   2  15
TORSDOF 2
ENDMDL
MODEL 2
REMARK VINA RESULT:      -4.8      3.519      4.769
REMARK  Name = Ciclopirox.pdbqt.pdb
REMARK  2 active torsions:
REMARK  status: ('A' for Active; 'I' for Inactive)
REMARK    1  A    between atoms: N_2  and  O_15
REMARK    2  A    between atoms: C_3  and  C_9
REMARK                            x       y       z     vdW  Elec       q    Type
REMARK                         _______ _______ _______ _____ _____    ______ ____
ROOT
ATOM      1  O   UNL     1      11.796   3.024 -21.063  0.00  0.00    +0.000 OA
ATOM      2  N   UNL     1       9.801   2.149 -20.204  0.00  0.00    +0.000 N 
ATOM      3  C   UNL     1       9.081   1.704 -19.086  0.00  0.00    +0.000 C 
ATOM      4  C   UNL     1       9.815   1.750 -18.002  0.00  0.00    +0.000 C 
ATOM      5  C   UNL     1      11.149   2.109 -17.653  0.00  0.00    +0.000 C 
ATOM      6  C   UNL     1      11.136   2.585 -20.132  0.00  0.00    +0.000 C 
ATOM      7  C   UNL     1      11.656   2.489 -18.788  0.00  0.00    +0.000 C 
ATOM      8  C   UNL     1      11.933   1.272 -16.698  0.00  0.00    +0.000 C 
ENDROOT
BRANCH   3   9
ATOM      9  C   UNL     1       7.715   1.270 -19.107  0.00  0.00    +0.000 A 
ATOM     10  C   UNL     1       6.628   1.999 -18.496  0.00  0.00    +0.000 A 
ATOM     11  C   UNL     1       5.171   1.571 -18.204  0.00  0.00    +0.000 A 
ATOM     12  C   UNL     1       4.786   0.140 -18.622  0.00  0.00    +0.000 A 
ATOM     13  C   UNL     1       5.878  -0.720 -19.285  0.00  0.00    +0.000 A 
ATOM     14  C   UNL     1       7.259  -0.050 -19.464  0.00  0.00    +0.000 A 
ENDBRANCH   3   9
BRANCH   2  15
ATOM     15  O   UNL     1       9.141   2.253 -21.444  0.00  0.00    +0.000 OA
ATOM     16  H   UNL     1       9.269   1.362 -21.828  0.00  0.00    +0.000 HD
ENDBRANCH   2  15
TORSDOF 2
ENDMDL
MODEL 3
REMARK VINA RESULT:      -4.7     18.371     19.051
REMARK  Name = Ciclopirox.pdbqt.pdb
REMARK  2 active torsions:
REMARK  status: ('A' for Active; 'I' for Inactive)
REMARK    1  A    between atoms: N_2  and  O_15
REMARK    2  A    between atoms: C_3  and  C_9
REMARK                            x       y       z     vdW  Elec       q    Type
REMARK                         _______ _______ _______ _____ _____    ______ ____
ROOT
ATOM      1  O   UNL     1       6.059 -16.635 -14.408  0.00  0.00    +0.000 OA
ATOM      2  N   UNL     1       4.029 -16.211 -15.497  0.00  0.00    +0.000 N 
ATOM      3  C   UNL     1       2.772 -15.591 -15.471  0.00  0.00    +0.000 C 
ATOM      4  C   UNL     1       2.571 -14.975 -14.333  0.00  0.00    +0.000 C 
ATOM      5  C   UNL     1       3.274 -14.780 -13.109  0.00  0.00    +0.000 C 
ATOM      6  C   UNL     1       4.935 -16.153 -14.423  0.00  0.00    +0.000 C 
ATOM      7  C   UNL     1       4.393 -15.409 -13.309  0.00  0.00    +0.000 C 
ATOM      8  C   UNL     1       2.558 -14.874 -11.802  0.00  0.00    +0.000 C 
ENDROOT
BRANCH   3   9
ATOM      9  C   UNL     1       1.826 -15.607 -16.548  0.00  0.00    +0.000 A 
ATOM     10  C   UNL     1       0.940 -16.713 -16.827  0.00  0.00    +0.000 A 
ATOM     11  C   UNL     1       0.058 -17.007 -18.062  0.00  0.00    +0.000 A 
ATOM     12  C   UNL     1       0.110 -15.968 -19.197  0.00  0.00    +0.000 A 
ATOM     13  C   UNL     1       1.026 -14.746 -18.995  0.00  0.00    +0.000 A 
ATOM     14  C   UNL     1       1.804 -14.691 -17.662  0.00  0.00    +0.000 A 
ENDBRANCH   3   9
BRANCH   2  15
ATOM     15  O   UNL     1       4.454 -16.846 -16.680  0.00  0.00    +0.000 OA
ATOM     16  H   UNL     1       4.183 -17.776 -16.531  0.00  0.00    +0.000 HD
ENDBRANCH   2  15
TORSDOF 2
ENDMDL
MODEL 4
REMARK VINA RESULT:      -4.7      2.506      5.011
REMARK  Name = Ciclopirox.pdbqt.pdb
REMARK  2 active torsions:
REMARK  status: ('A' for Active; 'I' for Inactive)
REMARK    1  A    between atoms: N_2  and  O_15
REMARK    2  A    between atoms: C_3  and  C_9
REMARK                            x       y       z     vdW  Elec       q    Type
REMARK                         _______ _______ _______ _____ _____    ______ ____
ROOT
ATOM      1  O   UNL     1      10.848   1.889 -15.147  0.00  0.00    +0.000 OA
ATOM      2  N   UNL     1      11.170  -0.033 -16.447  0.00  0.00    +0.000 N 
ATOM      3  C   UNL     1      11.483  -0.585 -17.697  0.00  0.00    +0.000 C 
ATOM      4  C   UNL     1      11.660   0.350 -18.597  0.00  0.00    +0.000 C 
ATOM      5  C   UNL     1      11.603   1.773 -18.655  0.00  0.00    +0.000 C 
ATOM      6  C   UNL     1      11.073   1.352 -16.223  0.00  0.00    +0.000 C 
ATOM      7  C   UNL     1      11.308   2.105 -17.433  0.00  0.00    +0.000 C 
ATOM      8  C   UNL     1      10.964   2.457 -19.817  0.00  0.00    +0.000 C 
ENDROOT
BRANCH   3   9
ATOM      9  C   UNL     1      11.612  -1.987 -17.967  0.00  0.00    +0.000 A 
ATOM     10  C   UNL     1      12.845  -2.726 -17.820  0.00  0.00    +0.000 A 
ATOM     11  C   UNL     1      13.228  -4.146 -18.296  0.00  0.00    +0.000 A 
ATOM     12  C   UNL     1      12.136  -4.926 -19.053  0.00  0.00    +0.000 A 
ATOM     13  C   UNL     1      10.782  -4.224 -19.260  0.00  0.00    +0.000 A 
ATOM     14  C   UNL     1      10.657  -2.797 -18.682  0.00  0.00    +0.000 A 
ENDBRANCH   3   9
BRANCH   2  15
ATOM     15  O   UNL     1      11.034  -0.889 -15.336  0.00  0.00    +0.000 OA
ATOM     16  H   UNL     1      11.044  -0.263 -14.583  0.00  0.00    +0.000 HD
ENDBRANCH   2  15
TORSDOF 2
ENDMDL
MODEL 5
REMARK VINA RESULT:      -4.6     25.347     26.302
REMARK  Name = Ciclopirox.pdbqt.pdb
REMARK  2 active torsions:
REMARK  status: ('A' for Active; 'I' for Inactive)
REMARK    1  A    between atoms: N_2  and  O_15
REMARK    2  A    between atoms: C_3  and  C_9
REMARK                            x       y       z     vdW  Elec       q    Type
REMARK                         _______ _______ _______ _____ _____    ______ ____
ROOT
ATOM      1  O   UNL     1      -9.088   7.856  -7.010  0.00  0.00    +0.000 OA
ATOM      2  N   UNL     1     -10.882   7.383  -8.440  0.00  0.00    +0.000 N 
ATOM      3  C   UNL     1     -12.269   7.366  -8.643  0.00  0.00    +0.000 C 
ATOM      4  C   UNL     1     -12.909   7.756  -7.569  0.00  0.00    +0.000 C 
ATOM      5  C   UNL     1     -12.581   8.174  -6.246  0.00  0.00    +0.000 C 
ATOM      6  C   UNL     1     -10.289   7.779  -7.227  0.00  0.00    +0.000 C 
ATOM      7  C   UNL     1     -11.282   8.131  -6.239  0.00  0.00    +0.000 C 
ATOM      8  C   UNL     1     -13.377   7.689  -5.080  0.00  0.00    +0.000 C 
ENDROOT
BRANCH   3   9
ATOM      9  C   UNL     1     -12.916   6.990  -9.865  0.00  0.00    +0.000 A 
ATOM     10  C   UNL     1     -13.285   5.633 -10.197  0.00  0.00    +0.000 A 
ATOM     11  C   UNL     1     -13.745   5.016 -11.538  0.00  0.00    +0.000 A 
ATOM     12  C   UNL     1     -13.835   5.983 -12.734  0.00  0.00    +0.000 A 
ATOM     13  C   UNL     1     -13.463   7.455 -12.482  0.00  0.00    +0.000 A 
ATOM     14  C   UNL     1     -13.034   7.814 -11.042  0.00  0.00    +0.000 A 
ENDBRANCH   3   9
BRANCH   2  15
ATOM     15  O   UNL     1     -10.029   7.079  -9.519  0.00  0.00    +0.000 OA
ATOM     16  H   UNL     1      -9.145   7.300  -9.160  0.00  0.00    +0.000 HD
ENDBRANCH   2  15
TORSDOF 2
ENDMDL
MODEL 6
REMARK VINA RESULT:      -4.5     18.752     21.031
REMARK  Name = Ciclopirox.pdbqt.pdb
REMARK  2 active torsions:
REMARK  status: ('A' for Active; 'I' for Inactive)
REMARK    1  A    between atoms: N_2  and  O_15
REMARK    2  A    between atoms: C_3  and  C_9
REMARK                            x       y       z     vdW  Elec       q    Type
REMARK                         _______ _______ _______ _____ _____    ______ ____
ROOT
ATOM      1  O   UNL     1       5.963 -17.523  -7.171  0.00  0.00    +0.000 OA
ATOM      2  N   UNL     1       5.187 -16.890  -9.288  0.00  0.00    +0.000 N 
ATOM      3  C   UNL     1       4.213 -17.026 -10.288  0.00  0.00    +0.000 C 
ATOM      4  C   UNL     1       3.316 -17.921  -9.957  0.00  0.00    +0.000 C 
ATOM      5  C   UNL     1       3.072 -18.807  -8.867  0.00  0.00    +0.000 C 
ATOM      6  C   UNL     1       5.168 -17.632  -8.094  0.00  0.00    +0.000 C 
ATOM      7  C   UNL     1       4.051 -18.548  -8.053  0.00  0.00    +0.000 C 
ATOM      8  C   UNL     1       2.625 -20.209  -9.118  0.00  0.00    +0.000 C 
ENDROOT
BRANCH   3   9
ATOM      9  C   UNL     1       4.181 -16.278 -11.511  0.00  0.00    +0.000 A 
ATOM     10  C   UNL     1       3.141 -15.334 -11.851  0.00  0.00    +0.000 A 
ATOM     11  C   UNL     1       2.811 -14.645 -13.195  0.00  0.00    +0.000 A 
ATOM     12  C   UNL     1       3.722 -15.003 -14.384  0.00  0.00    +0.000 A 
ATOM     13  C   UNL     1       4.865 -16.001 -14.123  0.00  0.00    +0.000 A 
ATOM     14  C   UNL     1       4.979 -16.546 -12.681  0.00  0.00    +0.000 A 
ENDBRANCH   3   9
BRANCH   2  15
ATOM     15  O   UNL     1       6.183 -15.905  -9.434  0.00  0.00    +0.000 OA
ATOM     16  H   UNL     1       7.006 -16.407  -9.260  0.00  0.00    +0.000 HD
ENDBRANCH   2  15
TORSDOF 2
ENDMDL
MODEL 7
REMARK VINA RESULT:      -4.5     19.481     20.784
REMARK  Name = Ciclopirox.pdbqt.pdb
REMARK  2 active torsions:
REMARK  status: ('A' for Active; 'I' for Inactive)
REMARK    1  A    between atoms: N_2  and  O_15
REMARK    2  A    between atoms: C_3  and  C_9
REMARK                            x       y       z     vdW  Elec       q    Type
REMARK                         _______ _______ _______ _____ _____    ______ ____
ROOT
ATOM      1  O   UNL     1      10.157  10.257   1.767  0.00  0.00    +0.000 OA
ATOM      2  N   UNL     1       9.032   8.367   0.963  0.00  0.00    +0.000 N 
ATOM      3  C   UNL     1       9.096   7.150   0.269  0.00  0.00    +0.000 C 
ATOM      4  C   UNL     1      10.304   6.926  -0.185  0.00  0.00    +0.000 C 
ATOM      5  C   UNL     1      11.564   7.591  -0.181  0.00  0.00    +0.000 C 
ATOM      6  C   UNL     1      10.145   9.210   1.135  0.00  0.00    +0.000 C 
ATOM      7  C   UNL     1      11.322   8.676   0.492  0.00  0.00    +0.000 C 
ATOM      8  C   UNL     1      12.409   7.617  -1.412  0.00  0.00    +0.000 C 
ENDROOT
BRANCH   3   9
ATOM      9  C   UNL     1       7.995   6.250   0.086  0.00  0.00    +0.000 A 
ATOM     10  C   UNL     1       7.475   5.390   1.124  0.00  0.00    +0.000 A 
ATOM     11  C   UNL     1       6.489   4.202   1.044  0.00  0.00    +0.000 A 
ATOM     12  C   UNL     1       5.956   3.855  -0.358  0.00  0.00    +0.000 A 
ATOM     13  C   UNL     1       6.450   4.716  -1.535  0.00  0.00    +0.000 A 
ATOM     14  C   UNL     1       7.438   5.850  -1.183  0.00  0.00    +0.000 A 
ENDBRANCH   3   9
BRANCH   2  15
ATOM     15  O   UNL     1       7.829   8.728   1.599  0.00  0.00    +0.000 OA
ATOM     16  H   UNL     1       7.266   9.006   0.847  0.00  0.00    +0.000 HD
ENDBRANCH   2  15
TORSDOF 2
ENDMDL
MODEL 8
REMARK VINA RESULT:      -4.5      8.966      9.996
REMARK  Name = Ciclopirox.pdbqt.pdb
REMARK  2 active torsions:
REMARK  status: ('A' for Active; 'I' for Inactive)
REMARK    1  A    between atoms: N_2  and  O_15
REMARK    2  A    between atoms: C_3  and  C_9
REMARK                            x       y       z     vdW  Elec       q    Type
REMARK                         _______ _______ _______ _____ _____    ______ ____
ROOT
ATOM      1  O   UNL     1       3.563  -5.952 -21.745  0.00  0.00    +0.000 OA
ATOM      2  N   UNL     1       3.411  -3.968 -20.509  0.00  0.00    +0.000 N 
ATOM      3  C   UNL     1       2.768  -3.244 -19.496  0.00  0.00    +0.000 C 
ATOM      4  C   UNL     1       1.770  -3.924 -18.988  0.00  0.00    +0.000 C 
ATOM      5  C   UNL     1       1.150  -5.190 -19.200  0.00  0.00    +0.000 C 
ATOM      6  C   UNL     1       3.013  -5.259 -20.901  0.00  0.00    +0.000 C 
ATOM      7  C   UNL     1       1.863  -5.711 -20.153  0.00  0.00    +0.000 C 
ATOM      8  C   UNL     1      -0.338  -5.313 -19.191  0.00  0.00    +0.000 C 
ENDROOT
BRANCH   3   9
ATOM      9  C   UNL     1       3.151  -1.937 -19.049  0.00  0.00    +0.000 A 
ATOM     10  C   UNL     1       3.540  -1.629 -17.692  0.00  0.00    +0.000 A 
ATOM     11  C   UNL     1       3.732  -0.268 -16.986  0.00  0.00    +0.000 A 
ATOM     12  C   UNL     1       3.476   0.985 -17.845  0.00  0.00    +0.000 A 
ATOM     13  C   UNL     1       3.058   0.763 -19.310  0.00  0.00    +0.000 A 
ATOM     14  C   UNL     1       2.938  -0.707 -19.770  0.00  0.00    +0.000 A 
ENDBRANCH   3   9
BRANCH   2  15
ATOM     15  O   UNL     1       4.566  -3.427 -21.108  0.00  0.00    +0.000 OA
ATOM     16  H   UNL     1       4.983  -2.943 -20.366  0.00  0.00    +0.000 HD
ENDBRANCH   2  15
TORSDOF 2
ENDMDL
MODEL 9
REMARK VINA RESULT:      -4.4     18.137     18.907
REMARK  Name = Ciclopirox.pdbqt.pdb
REMARK  2 active torsions:
REMARK  status: ('A' for Active; 'I' for Inactive)
REMARK    1  A    between atoms: N_2  and  O_15
REMARK    2  A    between atoms: C_3  and  C_9
REMARK                            x       y       z     vdW  Elec       q    Type
REMARK                         _______ _______ _______ _____ _____    ______ ____
ROOT
ATOM      1  O   UNL     1       6.738 -18.367 -18.160  0.00  0.00    +0.000 OA
ATOM      2  N   UNL     1       5.838 -17.278 -16.293  0.00  0.00    +0.000 N 
ATOM      3  C   UNL     1       6.032 -16.390 -15.226  0.00  0.00    +0.000 C 
ATOM      4  C   UNL     1       7.268 -15.961 -15.185  0.00  0.00    +0.000 C 
ATOM      5  C   UNL     1       8.473 -16.165 -15.919  0.00  0.00    +0.000 C 
ATOM      6  C   UNL     1       6.862 -17.635 -17.189  0.00  0.00    +0.000 C 
ATOM      7  C   UNL     1       8.112 -16.997 -16.849  0.00  0.00    +0.000 C 
ATOM      8  C   UNL     1       9.775 -16.320 -15.206  0.00  0.00    +0.000 C 
ENDROOT
BRANCH   3   9
ATOM      9  C   UNL     1       5.015 -15.983 -14.300  0.00  0.00    +0.000 A 
ATOM     10  C   UNL     1       3.820 -15.265 -14.680  0.00  0.00    +0.000 A 
ATOM     11  C   UNL     1       2.766 -14.538 -13.814  0.00  0.00    +0.000 A 
ATOM     12  C   UNL     1       3.002 -14.567 -12.292  0.00  0.00    +0.000 A 
ATOM     13  C   UNL     1       4.251 -15.311 -11.784  0.00  0.00    +0.000 A 
ATOM     14  C   UNL     1       5.146 -15.957 -12.865  0.00  0.00    +0.000 A 
ENDBRANCH   3   9
BRANCH   2  15
ATOM     15  O   UNL     1       4.543 -17.772 -16.545  0.00  0.00    +0.000 OA
ATOM     16  H   UNL     1       3.972 -17.084 -16.145  0.00  0.00    +0.000 HD
ENDBRANCH   2  15
TORSDOF 2
ENDMDL
