MODEL 1
REMARK VINA RESULT:      -5.8      0.000      0.000
REMARK  Name = 
REMARK  5 active torsions:
REMARK  status: ('A' for Active; 'I' for Inactive)
REMARK    1  A    between atoms: O_5  and  C_10
REMARK    2  A    between atoms: N_9  and  C_20
REMARK    3  A    between atoms: N_9  and  C_25
REMARK    4  A    between atoms: C_10  and  C_11
REMARK    5  A    between atoms: C_18  and  C_19
REMARK                            x       y       z     vdW  Elec       q    Type
REMARK                         _______ _______ _______ _____ _____    ______ ____
ROOT
ATOM      1  F   UNL     1      -4.433   3.438 -22.972  0.00  0.00    +0.000 F 
ATOM      2  F   UNL     1      -2.160   4.789 -23.515  0.00  0.00    +0.000 F 
ATOM      3  C   UNL     1      -2.207   2.069 -20.439  0.00  0.00    +0.000 A 
ATOM      4  C   UNL     1      -3.396   2.265 -21.177  0.00  0.00    +0.000 A 
ATOM      5  C   UNL     1      -1.024   2.766 -20.737  0.00  0.00    +0.000 A 
ATOM      6  C   UNL     1      -3.350   3.206 -22.214  0.00  0.00    +0.000 A 
ATOM      7  C   UNL     1      -1.013   3.686 -21.781  0.00  0.00    +0.000 A 
ATOM      8  C   UNL     1      -2.175   3.899 -22.512  0.00  0.00    +0.000 A 
ENDROOT
BRANCH   3  14
ATOM      9  O   UNL     1      -2.544   1.512 -18.197  0.00  0.00    +0.000 OA
ATOM     10  N   UNL     1      -1.764  -0.161 -19.573  0.00  0.00    +0.000 N 
ATOM     11  C   UNL     1      -0.001  -1.250 -19.324  0.00  0.00    +0.000 C 
ATOM     12  C   UNL     1      -0.735  -0.581 -20.522  0.00  0.00    +0.000 C 
ATOM     13  C   UNL     1      -1.358  -1.140 -18.566  0.00  0.00    +0.000 C 
ATOM     14  C   UNL     1      -2.206   1.116 -19.308  0.00  0.00    +0.000 C 
BRANCH  11  16
ATOM     15  N   UNL     1       2.134  -1.356 -18.067  0.00  0.00    +0.000 NA
ATOM     16  C   UNL     1       1.126  -0.429 -18.643  0.00  0.00    +0.000 C 
ATOM     17  C   UNL     1       1.819   0.515 -19.640  0.00  0.00    +0.000 C 
ATOM     18  C   UNL     1       2.944   1.298 -18.962  0.00  0.00    +0.000 C 
ATOM     19  C   UNL     1       3.141  -0.598 -17.311  0.00  0.00    +0.000 C 
ATOM     20  C   UNL     1       3.899   0.367 -18.221  0.00  0.00    +0.000 C 
ATOM     21  H   UNL     1       2.623  -1.809 -18.843  0.00  0.00    +0.000 HD
ENDBRANCH  11  16
BRANCH  11  22
ATOM     22  O   UNL     1       0.450  -2.615 -19.568  0.00  0.00    +0.000 OA
ATOM     23  H   UNL     1       1.200  -2.492 -20.180  0.00  0.00    +0.000 HD
ENDBRANCH  11  22
ENDBRANCH   3  14
BRANCH   4  24
ATOM     24  N   UNL     1      -4.578   1.590 -20.801  0.00  0.00    +0.000 N 
ATOM     25  H   UNL     1      -5.232   2.174 -20.267  0.00  0.00    +0.000 HD
BRANCH  24  28
ATOM     26  I   UNL     1      -7.038  -4.002 -22.344  0.00  0.00    +0.000 I 
ATOM     27  F   UNL     1      -5.112  -0.342 -18.933  0.00  0.00    +0.000 F 
ATOM     28  C   UNL     1      -5.136   0.360 -21.198  0.00  0.00    +0.000 A 
ATOM     29  C   UNL     1      -5.385  -0.618 -20.218  0.00  0.00    +0.000 A 
ATOM     30  C   UNL     1      -5.437   0.034 -22.523  0.00  0.00    +0.000 A 
ATOM     31  C   UNL     1      -5.923  -1.864 -20.527  0.00  0.00    +0.000 A 
ATOM     32  C   UNL     1      -5.978  -1.216 -22.852  0.00  0.00    +0.000 A 
ATOM     33  C   UNL     1      -6.221  -2.158 -21.853  0.00  0.00    +0.000 A 
ENDBRANCH  24  28
ENDBRANCH   4  24
TORSDOF 5
ENDMDL
MODEL 2
REMARK VINA RESULT:      -5.8     21.755     23.592
REMARK  Name = 
REMARK  5 active torsions:
REMARK  status: ('A' for Active; 'I' for Inactive)
REMARK    1  A    between atoms: O_5  and  C_10
REMARK    2  A    between atoms: N_9  and  C_20
REMARK    3  A    between atoms: N_9  and  C_25
REMARK    4  A    between atoms: C_10  and  C_11
REMARK    5  A    between atoms: C_18  and  C_19
REMARK                            x       y       z     vdW  Elec       q    Type
REMARK                         _______ _______ _______ _____ _____    ______ ____
ROOT
ATOM      1  F   UNL     1      -7.181  -1.775  -1.345  0.00  0.00    +0.000 F 
ATOM      2  F   UNL     1      -8.671  -3.799  -2.333  0.00  0.00    +0.000 F 
ATOM      3  C   UNL     1     -10.492  -0.812  -0.182  0.00  0.00    +0.000 A 
ATOM      4  C   UNL     1      -9.094  -0.740  -0.375  0.00  0.00    +0.000 A 
ATOM      5  C   UNL     1     -11.263  -1.861  -0.712  0.00  0.00    +0.000 A 
ATOM      6  C   UNL     1      -8.501  -1.779  -1.105  0.00  0.00    +0.000 A 
ATOM      7  C   UNL     1     -10.640  -2.871  -1.441  0.00  0.00    +0.000 A 
ATOM      8  C   UNL     1      -9.265  -2.822  -1.632  0.00  0.00    +0.000 A 
ENDROOT
BRANCH   3  14
ATOM      9  O   UNL     1     -11.459   1.297   0.070  0.00  0.00    +0.000 OA
ATOM     10  N   UNL     1     -11.380  -0.035   1.946  0.00  0.00    +0.000 N 
ATOM     11  C   UNL     1     -10.469   0.435   3.764  0.00  0.00    +0.000 C 
ATOM     12  C   UNL     1     -10.544  -0.821   2.851  0.00  0.00    +0.000 C 
ATOM     13  C   UNL     1     -11.703   0.959   2.969  0.00  0.00    +0.000 C 
ATOM     14  C   UNL     1     -11.168   0.236   0.612  0.00  0.00    +0.000 C 
BRANCH  11  16
ATOM     15  N   UNL     1      -9.617   2.763   3.851  0.00  0.00    +0.000 NA
ATOM     16  C   UNL     1      -9.227   1.352   3.599  0.00  0.00    +0.000 C 
ATOM     17  C   UNL     1      -8.101   0.957   4.570  0.00  0.00    +0.000 C 
ATOM     18  C   UNL     1      -6.895   1.884   4.415  0.00  0.00    +0.000 C 
ATOM     19  C   UNL     1      -8.481   3.655   3.577  0.00  0.00    +0.000 C 
ATOM     20  C   UNL     1      -7.307   3.349   4.505  0.00  0.00    +0.000 C 
ATOM     21  H   UNL     1      -9.834   2.855   4.847  0.00  0.00    +0.000 HD
ENDBRANCH  11  16
BRANCH  11  22
ATOM     22  O   UNL     1     -10.720   0.181   5.177  0.00  0.00    +0.000 OA
ATOM     23  H   UNL     1     -11.421  -0.497   5.157  0.00  0.00    +0.000 HD
ENDBRANCH  11  22
ENDBRANCH   3  14
BRANCH   4  24
ATOM     24  N   UNL     1      -8.353   0.298   0.229  0.00  0.00    +0.000 N 
ATOM     25  H   UNL     1      -8.930   1.088   0.539  0.00  0.00    +0.000 HD
BRANCH  24  28
ATOM     26  I   UNL     1      -2.471   0.453   2.485  0.00  0.00    +0.000 I 
ATOM     27  F   UNL     1      -7.443  -1.511   2.074  0.00  0.00    +0.000 F 
ATOM     28  C   UNL     1      -7.026   0.372   0.694  0.00  0.00    +0.000 A 
ATOM     29  C   UNL     1      -6.592  -0.562   1.653  0.00  0.00    +0.000 A 
ATOM     30  C   UNL     1      -6.109   1.342   0.281  0.00  0.00    +0.000 A 
ATOM     31  C   UNL     1      -5.301  -0.551   2.174  0.00  0.00    +0.000 A 
ATOM     32  C   UNL     1      -4.806   1.368   0.796  0.00  0.00    +0.000 A 
ATOM     33  C   UNL     1      -4.407   0.420   1.737  0.00  0.00    +0.000 A 
ENDBRANCH  24  28
ENDBRANCH   4  24
TORSDOF 5
ENDMDL
MODEL 3
REMARK VINA RESULT:      -5.6     18.283     20.316
REMARK  Name = 
REMARK  5 active torsions:
REMARK  status: ('A' for Active; 'I' for Inactive)
REMARK    1  A    between atoms: O_5  and  C_10
REMARK    2  A    between atoms: N_9  and  C_20
REMARK    3  A    between atoms: N_9  and  C_25
REMARK    4  A    between atoms: C_10  and  C_11
REMARK    5  A    between atoms: C_18  and  C_19
REMARK                            x       y       z     vdW  Elec       q    Type
REMARK                         _______ _______ _______ _____ _____    ______ ____
ROOT
ATOM      1  F   UNL     1      -2.484 -17.838 -12.963  0.00  0.00    +0.000 F 
ATOM      2  F   UNL     1      -4.080 -17.838 -15.141  0.00  0.00    +0.000 F 
ATOM      3  C   UNL     1      -0.029 -18.320 -15.605  0.00  0.00    +0.000 A 
ATOM      4  C   UNL     1      -0.537 -18.155 -14.297  0.00  0.00    +0.000 A 
ATOM      5  C   UNL     1      -0.868 -18.333 -16.733  0.00  0.00    +0.000 A 
ATOM      6  C   UNL     1      -1.923 -17.984 -14.173  0.00  0.00    +0.000 A 
ATOM      7  C   UNL     1      -2.241 -18.170 -16.570  0.00  0.00    +0.000 A 
ATOM      8  C   UNL     1      -2.757 -17.998 -15.292  0.00  0.00    +0.000 A 
ENDROOT
BRANCH   3  14
ATOM      9  O   UNL     1       1.973 -19.510 -15.453  0.00  0.00    +0.000 OA
ATOM     10  N   UNL     1       2.099 -17.382 -16.323  0.00  0.00    +0.000 N 
ATOM     11  C   UNL     1       3.262 -15.810 -15.594  0.00  0.00    +0.000 C 
ATOM     12  C   UNL     1       1.809 -15.963 -16.126  0.00  0.00    +0.000 C 
ATOM     13  C   UNL     1       3.546 -17.181 -16.278  0.00  0.00    +0.000 C 
ATOM     14  C   UNL     1       1.430 -18.467 -15.802  0.00  0.00    +0.000 C 
BRANCH  11  16
ATOM     15  N   UNL     1       4.898 -16.058 -13.746  0.00  0.00    +0.000 NA
ATOM     16  C   UNL     1       3.457 -15.865 -14.056  0.00  0.00    +0.000 C 
ATOM     17  C   UNL     1       2.962 -14.576 -13.376  0.00  0.00    +0.000 C 
ATOM     18  C   UNL     1       3.185 -14.633 -11.865  0.00  0.00    +0.000 C 
ATOM     19  C   UNL     1       5.082 -16.237 -12.299  0.00  0.00    +0.000 C 
ATOM     20  C   UNL     1       4.628 -14.997 -11.530  0.00  0.00    +0.000 C 
ATOM     21  H   UNL     1       5.391 -15.200 -14.005  0.00  0.00    +0.000 HD
ENDBRANCH  11  16
BRANCH  11  22
ATOM     22  O   UNL     1       4.004 -14.686 -16.153  0.00  0.00    +0.000 OA
ATOM     23  H   UNL     1       4.731 -14.563 -15.514  0.00  0.00    +0.000 HD
ENDBRANCH  11  22
ENDBRANCH   3  14
BRANCH   4  24
ATOM     24  N   UNL     1       0.350 -18.085 -13.201  0.00  0.00    +0.000 N 
ATOM     25  H   UNL     1       0.819 -17.176 -13.111  0.00  0.00    +0.000 HD
BRANCH  24  28
ATOM     26  I   UNL     1       1.419 -21.660  -8.124  0.00  0.00    +0.000 I 
ATOM     27  F   UNL     1       1.922 -17.243 -11.122  0.00  0.00    +0.000 F 
ATOM     28  C   UNL     1       0.549 -18.919 -12.085  0.00  0.00    +0.000 A 
ATOM     29  C   UNL     1       1.375 -18.467 -11.040  0.00  0.00    +0.000 A 
ATOM     30  C   UNL     1      -0.004 -20.197 -11.960  0.00  0.00    +0.000 A 
ATOM     31  C   UNL     1       1.634 -19.234  -9.908  0.00  0.00    +0.000 A 
ATOM     32  C   UNL     1       0.248 -20.983 -10.828  0.00  0.00    +0.000 A 
ATOM     33  C   UNL     1       1.063 -20.497  -9.806  0.00  0.00    +0.000 A 
ENDBRANCH  24  28
ENDBRANCH   4  24
TORSDOF 5
ENDMDL
MODEL 4
REMARK VINA RESULT:      -5.5     22.816     25.232
REMARK  Name = 
REMARK  5 active torsions:
REMARK  status: ('A' for Active; 'I' for Inactive)
REMARK    1  A    between atoms: O_5  and  C_10
REMARK    2  A    between atoms: N_9  and  C_20
REMARK    3  A    between atoms: N_9  and  C_25
REMARK    4  A    between atoms: C_10  and  C_11
REMARK    5  A    between atoms: C_18  and  C_19
REMARK                            x       y       z     vdW  Elec       q    Type
REMARK                         _______ _______ _______ _____ _____    ______ ____
ROOT
ATOM      1  F   UNL     1       6.783   5.409   0.355  0.00  0.00    +0.000 F 
ATOM      2  F   UNL     1       8.443   7.531   0.185  0.00  0.00    +0.000 F 
ATOM      3  C   UNL     1      10.020   3.756   0.543  0.00  0.00    +0.000 A 
ATOM      4  C   UNL     1       8.614   3.894   0.517  0.00  0.00    +0.000 A 
ATOM      5  C   UNL     1      10.878   4.865   0.439  0.00  0.00    +0.000 A 
ATOM      6  C   UNL     1       8.107   5.196   0.403  0.00  0.00    +0.000 A 
ATOM      7  C   UNL     1      10.338   6.143   0.318  0.00  0.00    +0.000 A 
ATOM      8  C   UNL     1       8.958   6.298   0.300  0.00  0.00    +0.000 A 
ENDROOT
BRANCH   3  14
ATOM      9  O   UNL     1      10.306   1.530  -0.099  0.00  0.00    +0.000 OA
ATOM     10  N   UNL     1      11.443   2.219   1.781  0.00  0.00    +0.000 N 
ATOM     11  C   UNL     1      11.295   1.394   3.692  0.00  0.00    +0.000 C 
ATOM     12  C   UNL     1      11.355   2.833   3.105  0.00  0.00    +0.000 C 
ATOM     13  C   UNL     1      11.848   0.920   2.315  0.00  0.00    +0.000 C 
ATOM     14  C   UNL     1      10.613   2.411   0.699  0.00  0.00    +0.000 C 
BRANCH  11  16
ATOM     15  N   UNL     1       9.978  -0.660   4.140  0.00  0.00    +0.000 NA
ATOM     16  C   UNL     1       9.887   0.816   3.994  0.00  0.00    +0.000 C 
ATOM     17  C   UNL     1       9.294   1.415   5.282  0.00  0.00    +0.000 C 
ATOM     18  C   UNL     1       7.919   0.818   5.581  0.00  0.00    +0.000 C 
ATOM     19  C   UNL     1       8.635  -1.234   4.302  0.00  0.00    +0.000 C 
ATOM     20  C   UNL     1       7.962  -0.707   5.568  0.00  0.00    +0.000 C 
ATOM     21  H   UNL     1      10.493  -0.858   5.002  0.00  0.00    +0.000 HD
ENDBRANCH  11  16
BRANCH  11  22
ATOM     22  O   UNL     1      12.187   1.155   4.820  0.00  0.00    +0.000 OA
ATOM     23  H   UNL     1      12.976   1.680   4.591  0.00  0.00    +0.000 HD
ENDBRANCH  11  22
ENDBRANCH   3  14
BRANCH   4  24
ATOM     24  N   UNL     1       7.792   2.759   0.687  0.00  0.00    +0.000 N 
ATOM     25  H   UNL     1       8.302   1.870   0.624  0.00  0.00    +0.000 HD
BRANCH  24  28
ATOM     26  I   UNL     1       1.964   2.075   2.982  0.00  0.00    +0.000 I 
ATOM     27  F   UNL     1       7.215   3.095   3.343  0.00  0.00    +0.000 F 
ATOM     28  C   UNL     1       6.471   2.603   1.146  0.00  0.00    +0.000 A 
ATOM     29  C   UNL     1       6.208   2.767   2.519  0.00  0.00    +0.000 A 
ATOM     30  C   UNL     1       5.395   2.264   0.321  0.00  0.00    +0.000 A 
ATOM     31  C   UNL     1       4.933   2.618   3.057  0.00  0.00    +0.000 A 
ATOM     32  C   UNL     1       4.105   2.110   0.847  0.00  0.00    +0.000 A 
ATOM     33  C   UNL     1       3.880   2.290   2.212  0.00  0.00    +0.000 A 
ENDBRANCH  24  28
ENDBRANCH   4  24
TORSDOF 5
ENDMDL
MODEL 5
REMARK VINA RESULT:      -5.5     16.136     19.205
REMARK  Name = 
REMARK  5 active torsions:
REMARK  status: ('A' for Active; 'I' for Inactive)
REMARK    1  A    between atoms: O_5  and  C_10
REMARK    2  A    between atoms: N_9  and  C_20
REMARK    3  A    between atoms: N_9  and  C_25
REMARK    4  A    between atoms: C_10  and  C_11
REMARK    5  A    between atoms: C_18  and  C_19
REMARK                            x       y       z     vdW  Elec       q    Type
REMARK                         _______ _______ _______ _____ _____    ______ ____
ROOT
ATOM      1  F   UNL     1      13.703  14.743 -25.113  0.00  0.00    +0.000 F 
ATOM      2  F   UNL     1      16.023  15.792 -24.215  0.00  0.00    +0.000 F 
ATOM      3  C   UNL     1      14.420  12.519 -22.323  0.00  0.00    +0.000 A 
ATOM      4  C   UNL     1      13.725  13.059 -23.429  0.00  0.00    +0.000 A 
ATOM      5  C   UNL     1      15.635  13.062 -21.871  0.00  0.00    +0.000 A 
ATOM      6  C   UNL     1      14.294  14.181 -24.047  0.00  0.00    +0.000 A 
ATOM      7  C   UNL     1      16.175  14.171 -22.516  0.00  0.00    +0.000 A 
ATOM      8  C   UNL     1      15.500  14.722 -23.599  0.00  0.00    +0.000 A 
ENDROOT
BRANCH   3  14
ATOM      9  O   UNL     1      13.841  10.264 -22.163  0.00  0.00    +0.000 OA
ATOM     10  N   UNL     1      13.308  11.599 -20.364  0.00  0.00    +0.000 N 
ATOM     11  C   UNL     1      11.406  11.892 -19.558  0.00  0.00    +0.000 C 
ATOM     12  C   UNL     1      12.621  12.801 -19.898  0.00  0.00    +0.000 C 
ATOM     13  C   UNL     1      12.405  10.700 -19.648  0.00  0.00    +0.000 C 
ATOM     14  C   UNL     1      13.850  11.357 -21.607  0.00  0.00    +0.000 C 
BRANCH  11  16
ATOM     15  N   UNL     1       9.453  10.591 -20.362  0.00  0.00    +0.000 NA
ATOM     16  C   UNL     1      10.278  11.800 -20.619  0.00  0.00    +0.000 C 
ATOM     17  C   UNL     1       9.373  13.045 -20.593  0.00  0.00    +0.000 C 
ATOM     18  C   UNL     1       8.251  12.928 -21.625  0.00  0.00    +0.000 C 
ATOM     19  C   UNL     1       8.459  10.423 -21.431  0.00  0.00    +0.000 C 
ATOM     20  C   UNL     1       7.499  11.610 -21.480  0.00  0.00    +0.000 C 
ATOM     21  H   UNL     1       8.934  10.746 -19.494  0.00  0.00    +0.000 HD
ENDBRANCH  11  16
BRANCH  11  22
ATOM     22  O   UNL     1      10.832  12.106 -18.235  0.00  0.00    +0.000 OA
ATOM     23  H   UNL     1      10.065  12.680 -18.419  0.00  0.00    +0.000 HD
ENDBRANCH  11  22
ENDBRANCH   3  14
BRANCH   4  24
ATOM     24  N   UNL     1      12.477  12.520 -23.808  0.00  0.00    +0.000 N 
ATOM     25  H   UNL     1      11.696  12.847 -23.229  0.00  0.00    +0.000 HD
BRANCH  24  28
ATOM     26  I   UNL     1      10.354   9.355 -28.826  0.00  0.00    +0.000 I 
ATOM     27  F   UNL     1       9.807  12.291 -24.374  0.00  0.00    +0.000 F 
ATOM     28  C   UNL     1      12.056  11.809 -24.947  0.00  0.00    +0.000 A 
ATOM     29  C   UNL     1      10.678  11.695 -25.204  0.00  0.00    +0.000 A 
ATOM     30  C   UNL     1      12.929  11.176 -25.837  0.00  0.00    +0.000 A 
ATOM     31  C   UNL     1      10.177  10.999 -26.300  0.00  0.00    +0.000 A 
ATOM     32  C   UNL     1      12.442  10.470 -26.945  0.00  0.00    +0.000 A 
ATOM     33  C   UNL     1      11.069  10.388 -27.173  0.00  0.00    +0.000 A 
ENDBRANCH  24  28
ENDBRANCH   4  24
TORSDOF 5
ENDMDL
MODEL 6
REMARK VINA RESULT:      -5.4     14.786     17.583
REMARK  Name = 
REMARK  5 active torsions:
REMARK  status: ('A' for Active; 'I' for Inactive)
REMARK    1  A    between atoms: O_5  and  C_10
REMARK    2  A    between atoms: N_9  and  C_20
REMARK    3  A    between atoms: N_9  and  C_25
REMARK    4  A    between atoms: C_10  and  C_11
REMARK    5  A    between atoms: C_18  and  C_19
REMARK                            x       y       z     vdW  Elec       q    Type
REMARK                         _______ _______ _______ _____ _____    ______ ____
ROOT
ATOM      1  F   UNL     1     -12.025 -16.731 -24.334  0.00  0.00    +0.000 F 
ATOM      2  F   UNL     1     -14.574 -17.525 -23.929  0.00  0.00    +0.000 F 
ATOM      3  C   UNL     1     -13.069 -14.381 -21.759  0.00  0.00    +0.000 A 
ATOM      4  C   UNL     1     -12.221 -15.013 -22.696  0.00  0.00    +0.000 A 
ATOM      5  C   UNL     1     -14.399 -14.790 -21.564  0.00  0.00    +0.000 A 
ATOM      6  C   UNL     1     -12.761 -16.089 -23.414  0.00  0.00    +0.000 A 
ATOM      7  C   UNL     1     -14.905 -15.857 -22.303  0.00  0.00    +0.000 A 
ATOM      8  C   UNL     1     -14.082 -16.497 -23.222  0.00  0.00    +0.000 A 
ENDROOT
BRANCH   3  14
ATOM      9  O   UNL     1     -12.573 -12.127 -21.405  0.00  0.00    +0.000 OA
ATOM     10  N   UNL     1     -11.993 -13.590 -19.725  0.00  0.00    +0.000 N 
ATOM     11  C   UNL     1     -10.082 -13.881 -18.938  0.00  0.00    +0.000 C 
ATOM     12  C   UNL     1     -11.262 -14.802 -19.359  0.00  0.00    +0.000 C 
ATOM     13  C   UNL     1     -11.124 -12.723 -18.931  0.00  0.00    +0.000 C 
ATOM     14  C   UNL     1     -12.542 -13.264 -20.945  0.00  0.00    +0.000 C 
BRANCH  11  16
ATOM     15  N   UNL     1      -8.478 -12.254 -19.902  0.00  0.00    +0.000 NA
ATOM     16  C   UNL     1      -8.957 -13.657 -19.984  0.00  0.00    +0.000 C 
ATOM     17  C   UNL     1      -7.772 -14.611 -19.752  0.00  0.00    +0.000 C 
ATOM     18  C   UNL     1      -6.661 -14.362 -20.772  0.00  0.00    +0.000 C 
ATOM     19  C   UNL     1      -7.501 -11.993 -20.970  0.00  0.00    +0.000 C 
ATOM     20  C   UNL     1      -6.272 -12.888 -20.820  0.00  0.00    +0.000 C 
ATOM     21  H   UNL     1      -7.983 -12.143 -19.013  0.00  0.00    +0.000 HD
ENDBRANCH  11  16
BRANCH  11  22
ATOM     22  O   UNL     1      -9.502 -14.185 -17.636  0.00  0.00    +0.000 OA
ATOM     23  H   UNL     1      -8.692 -13.640 -17.624  0.00  0.00    +0.000 HD
ENDBRANCH  11  22
ENDBRANCH   3  14
BRANCH   4  24
ATOM     24  N   UNL     1     -10.873 -14.608 -22.812  0.00  0.00    +0.000 N 
ATOM     25  H   UNL     1     -10.224 -15.180 -22.259  0.00  0.00    +0.000 HD
BRANCH  24  28
ATOM     26  I   UNL     1      -7.717 -10.805 -26.720  0.00  0.00    +0.000 I 
ATOM     27  F   UNL     1      -8.234 -15.005 -23.428  0.00  0.00    +0.000 F 
ATOM     28  C   UNL     1     -10.217 -13.734 -23.698  0.00  0.00    +0.000 A 
ATOM     29  C   UNL     1      -8.857 -13.954 -23.983  0.00  0.00    +0.000 A 
ATOM     30  C   UNL     1     -10.830 -12.630 -24.299  0.00  0.00    +0.000 A 
ATOM     31  C   UNL     1      -8.131 -13.129 -24.838  0.00  0.00    +0.000 A 
ATOM     32  C   UNL     1     -10.113 -11.790 -25.161  0.00  0.00    +0.000 A 
ATOM     33  C   UNL     1      -8.768 -12.045 -25.429  0.00  0.00    +0.000 A 
ENDBRANCH  24  28
ENDBRANCH   4  24
TORSDOF 5
ENDMDL
MODEL 7
REMARK VINA RESULT:      -5.1     18.254     19.825
REMARK  Name = 
REMARK  5 active torsions:
REMARK  status: ('A' for Active; 'I' for Inactive)
REMARK    1  A    between atoms: O_5  and  C_10
REMARK    2  A    between atoms: N_9  and  C_20
REMARK    3  A    between atoms: N_9  and  C_25
REMARK    4  A    between atoms: C_10  and  C_11
REMARK    5  A    between atoms: C_18  and  C_19
REMARK                            x       y       z     vdW  Elec       q    Type
REMARK                         _______ _______ _______ _____ _____    ______ ____
ROOT
ATOM      1  F   UNL     1       9.713  13.271 -15.795  0.00  0.00    +0.000 F 
ATOM      2  F   UNL     1       9.939  13.915 -13.183  0.00  0.00    +0.000 F 
ATOM      3  C   UNL     1      12.211  10.856 -14.713  0.00  0.00    +0.000 A 
ATOM      4  C   UNL     1      11.330  11.535 -15.584  0.00  0.00    +0.000 A 
ATOM      5  C   UNL     1      12.334  11.207 -13.357  0.00  0.00    +0.000 A 
ATOM      6  C   UNL     1      10.562  12.568 -15.030  0.00  0.00    +0.000 A 
ATOM      7  C   UNL     1      11.561  12.245 -12.844  0.00  0.00    +0.000 A 
ATOM      8  C   UNL     1      10.682  12.918 -13.684  0.00  0.00    +0.000 A 
ENDROOT
BRANCH   3  14
ATOM      9  O   UNL     1      12.609   8.586 -15.082  0.00  0.00    +0.000 OA
ATOM     10  N   UNL     1      14.228  10.052 -15.811  0.00  0.00    +0.000 N 
ATOM     11  C   UNL     1      16.237  10.062 -15.247  0.00  0.00    +0.000 C 
ATOM     12  C   UNL     1      15.138  11.141 -15.458  0.00  0.00    +0.000 C 
ATOM     13  C   UNL     1      15.317   9.111 -16.068  0.00  0.00    +0.000 C 
ATOM     14  C   UNL     1      13.020   9.733 -15.232  0.00  0.00    +0.000 C 
BRANCH  11  16
ATOM     15  N   UNL     1      17.463   8.464 -13.799  0.00  0.00    +0.000 NA
ATOM     16  C   UNL     1      16.460   9.560 -13.795  0.00  0.00    +0.000 C 
ATOM     17  C   UNL     1      16.951  10.692 -12.875  0.00  0.00    +0.000 C 
ATOM     18  C   UNL     1      17.192  10.178 -11.455  0.00  0.00    +0.000 C 
ATOM     19  C   UNL     1      17.592   7.896 -12.449  0.00  0.00    +0.000 C 
ATOM     20  C   UNL     1      18.089   8.945 -11.456  0.00  0.00    +0.000 C 
ATOM     21  H   UNL     1      18.371   8.871 -14.038  0.00  0.00    +0.000 HD
ENDBRANCH  11  16
BRANCH  11  22
ATOM     22  O   UNL     1      17.518  10.361 -15.875  0.00  0.00    +0.000 OA
ATOM     23  H   UNL     1      18.142  10.333 -15.126  0.00  0.00    +0.000 HD
ENDBRANCH  11  22
ENDBRANCH   3  14
BRANCH   4  24
ATOM     24  N   UNL     1      11.194  11.107 -16.922  0.00  0.00    +0.000 N 
ATOM     25  H   UNL     1      10.578  10.294 -17.032  0.00  0.00    +0.000 HD
BRANCH  24  28
ATOM     26  I   UNL     1      12.962  13.589 -22.437  0.00  0.00    +0.000 I 
ATOM     27  F   UNL     1      13.056   9.912 -18.537  0.00  0.00    +0.000 F 
ATOM     28  C   UNL     1      11.547  11.699 -18.149  0.00  0.00    +0.000 A 
ATOM     29  C   UNL     1      12.518  11.070 -18.950  0.00  0.00    +0.000 A 
ATOM     30  C   UNL     1      11.009  12.901 -18.616  0.00  0.00    +0.000 A 
ATOM     31  C   UNL     1      12.933  11.595 -20.171  0.00  0.00    +0.000 A 
ATOM     32  C   UNL     1      11.417  13.445 -19.843  0.00  0.00    +0.000 A 
ATOM     33  C   UNL     1      12.374  12.788 -20.615  0.00  0.00    +0.000 A 
ENDBRANCH  24  28
ENDBRANCH   4  24
TORSDOF 5
ENDMDL
MODEL 8
REMARK VINA RESULT:      -5.1     18.496     20.454
REMARK  Name = 
REMARK  5 active torsions:
REMARK  status: ('A' for Active; 'I' for Inactive)
REMARK    1  A    between atoms: O_5  and  C_10
REMARK    2  A    between atoms: N_9  and  C_20
REMARK    3  A    between atoms: N_9  and  C_25
REMARK    4  A    between atoms: C_10  and  C_11
REMARK    5  A    between atoms: C_18  and  C_19
REMARK                            x       y       z     vdW  Elec       q    Type
REMARK                         _______ _______ _______ _____ _____    ______ ____
ROOT
ATOM      1  F   UNL     1       6.541 -15.895 -12.454  0.00  0.00    +0.000 F 
ATOM      2  F   UNL     1       4.989 -16.105 -10.255  0.00  0.00    +0.000 F 
ATOM      3  C   UNL     1       3.226 -15.784 -13.949  0.00  0.00    +0.000 A 
ATOM      4  C   UNL     1       4.637 -15.776 -13.879  0.00  0.00    +0.000 A 
ATOM      5  C   UNL     1       2.425 -15.909 -12.801  0.00  0.00    +0.000 A 
ATOM      6  C   UNL     1       5.208 -15.879 -12.603  0.00  0.00    +0.000 A 
ATOM      7  C   UNL     1       3.028 -16.018 -11.551  0.00  0.00    +0.000 A 
ATOM      8  C   UNL     1       4.414 -16.003 -11.462  0.00  0.00    +0.000 A 
ENDROOT
BRANCH   3  14
ATOM      9  O   UNL     1       2.144 -14.540 -15.601  0.00  0.00    +0.000 OA
ATOM     10  N   UNL     1       2.417 -16.788 -16.013  0.00  0.00    +0.000 N 
ATOM     11  C   UNL     1       0.903 -18.170 -16.407  0.00  0.00    +0.000 C 
ATOM     12  C   UNL     1       2.193 -18.153 -15.538  0.00  0.00    +0.000 C 
ATOM     13  C   UNL     1       1.512 -16.944 -17.151  0.00  0.00    +0.000 C 
ATOM     14  C   UNL     1       2.565 -15.642 -15.265  0.00  0.00    +0.000 C 
BRANCH  11  16
ATOM     15  N   UNL     1      -1.560 -18.455 -16.425  0.00  0.00    +0.000 NA
ATOM     16  C   UNL     1      -0.431 -17.826 -15.693  0.00  0.00    +0.000 C 
ATOM     17  C   UNL     1      -0.435 -18.320 -14.235  0.00  0.00    +0.000 C 
ATOM     18  C   UNL     1      -1.765 -17.998 -13.552  0.00  0.00    +0.000 C 
ATOM     19  C   UNL     1      -2.839 -18.036 -15.833  0.00  0.00    +0.000 C 
ATOM     20  C   UNL     1      -2.947 -18.492 -14.379  0.00  0.00    +0.000 C 
ATOM     21  H   UNL     1      -1.491 -19.468 -16.297  0.00  0.00    +0.000 HD
ENDBRANCH  11  16
BRANCH  11  22
ATOM     22  O   UNL     1       0.737 -19.360 -17.232  0.00  0.00    +0.000 OA
ATOM     23  H   UNL     1       0.398 -18.999 -18.073  0.00  0.00    +0.000 HD
ENDBRANCH  11  22
ENDBRANCH   3  14
BRANCH   4  24
ATOM     24  N   UNL     1       5.399 -15.586 -15.052  0.00  0.00    +0.000 N 
ATOM     25  H   UNL     1       5.438 -14.608 -15.361  0.00  0.00    +0.000 HD
BRANCH  24  28
ATOM     26  I   UNL     1       9.597 -19.160 -18.102  0.00  0.00    +0.000 I 
ATOM     27  F   UNL     1       8.100 -15.204 -14.807  0.00  0.00    +0.000 F 
ATOM     28  C   UNL     1       6.294 -16.419 -15.749  0.00  0.00    +0.000 A 
ATOM     29  C   UNL     1       7.676 -16.188 -15.616  0.00  0.00    +0.000 A 
ATOM     30  C   UNL     1       5.894 -17.454 -16.597  0.00  0.00    +0.000 A 
ATOM     31  C   UNL     1       8.628 -16.957 -16.280  0.00  0.00    +0.000 A 
ATOM     32  C   UNL     1       6.839 -18.237 -17.274  0.00  0.00    +0.000 A 
ATOM     33  C   UNL     1       8.201 -17.987 -17.110  0.00  0.00    +0.000 A 
ENDBRANCH  24  28
ENDBRANCH   4  24
TORSDOF 5
ENDMDL
MODEL 9
REMARK VINA RESULT:      -5.1     15.456     17.850
REMARK  Name = 
REMARK  5 active torsions:
REMARK  status: ('A' for Active; 'I' for Inactive)
REMARK    1  A    between atoms: O_5  and  C_10
REMARK    2  A    between atoms: N_9  and  C_20
REMARK    3  A    between atoms: N_9  and  C_25
REMARK    4  A    between atoms: C_10  and  C_11
REMARK    5  A    between atoms: C_18  and  C_19
REMARK                            x       y       z     vdW  Elec       q    Type
REMARK                         _______ _______ _______ _____ _____    ______ ____
ROOT
ATOM      1  F   UNL     1      -5.481  14.472 -19.076  0.00  0.00    +0.000 F 
ATOM      2  F   UNL     1      -7.850  15.584 -18.412  0.00  0.00    +0.000 F 
ATOM      3  C   UNL     1      -4.612  16.098 -15.939  0.00  0.00    +0.000 A 
ATOM      4  C   UNL     1      -4.440  15.335 -17.115  0.00  0.00    +0.000 A 
ATOM      5  C   UNL     1      -5.845  16.686 -15.607  0.00  0.00    +0.000 A 
ATOM      6  C   UNL     1      -5.566  15.170 -17.934  0.00  0.00    +0.000 A 
ATOM      7  C   UNL     1      -6.939  16.509 -16.449  0.00  0.00    +0.000 A 
ATOM      8  C   UNL     1      -6.791  15.753 -17.606  0.00  0.00    +0.000 A 
ENDROOT
BRANCH   3  14
ATOM      9  O   UNL     1      -3.045  15.300 -14.403  0.00  0.00    +0.000 OA
ATOM     10  N   UNL     1      -2.985  17.555 -14.866  0.00  0.00    +0.000 N 
ATOM     11  C   UNL     1      -3.181  19.110 -13.487  0.00  0.00    +0.000 C 
ATOM     12  C   UNL     1      -3.729  18.812 -14.912  0.00  0.00    +0.000 C 
ATOM     13  C   UNL     1      -2.119  18.008 -13.779  0.00  0.00    +0.000 C 
ATOM     14  C   UNL     1      -3.469  16.275 -15.017  0.00  0.00    +0.000 C 
BRANCH  11  16
ATOM     15  N   UNL     1      -3.725  19.567 -11.111  0.00  0.00    +0.000 NA
ATOM     16  C   UNL     1      -4.099  18.744 -12.290  0.00  0.00    +0.000 C 
ATOM     17  C   UNL     1      -5.583  18.982 -12.622  0.00  0.00    +0.000 C 
ATOM     18  C   UNL     1      -6.473  18.643 -11.426  0.00  0.00    +0.000 C 
ATOM     19  C   UNL     1      -4.501  19.144  -9.936  0.00  0.00    +0.000 C 
ATOM     20  C   UNL     1      -5.998  19.353 -10.163  0.00  0.00    +0.000 C 
ATOM     21  H   UNL     1      -3.988  20.536 -11.309  0.00  0.00    +0.000 HD
ENDBRANCH  11  16
BRANCH  11  22
ATOM     22  O   UNL     1      -2.635  20.449 -13.308  0.00  0.00    +0.000 OA
ATOM     23  H   UNL     1      -1.986  20.327 -12.590  0.00  0.00    +0.000 HD
ENDBRANCH  11  22
ENDBRANCH   3  14
BRANCH   4  24
ATOM     24  N   UNL     1      -3.201  14.711 -17.375  0.00  0.00    +0.000 N 
ATOM     25  H   UNL     1      -3.057  13.846 -16.841  0.00  0.00    +0.000 HD
BRANCH  24  28
ATOM     26  I   UNL     1       1.127  15.347 -21.911  0.00  0.00    +0.000 I 
ATOM     27  F   UNL     1      -2.685  12.730 -19.195  0.00  0.00    +0.000 F 
ATOM     28  C   UNL     1      -2.230  14.908 -18.374  0.00  0.00    +0.000 A 
ATOM     29  C   UNL     1      -1.975  13.867 -19.286  0.00  0.00    +0.000 A 
ATOM     30  C   UNL     1      -1.472  16.075 -18.504  0.00  0.00    +0.000 A 
ATOM     31  C   UNL     1      -1.023  13.974 -20.295  0.00  0.00    +0.000 A 
ATOM     32  C   UNL     1      -0.508  16.200 -19.514  0.00  0.00    +0.000 A 
ATOM     33  C   UNL     1      -0.290  15.150 -20.407  0.00  0.00    +0.000 A 
ENDBRANCH  24  28
ENDBRANCH   4  24
TORSDOF 5
ENDMDL
