MODEL 1
REMARK VINA RESULT:      -6.3      0.000      0.000
REMARK  Name = COUMESTROL.pdbqt.pdb
REMARK  2 active torsions:
REMARK  status: ('A' for Active; 'I' for Inactive)
REMARK    1  A    between atoms: C_16  and  O_19
REMARK    2  A    between atoms: C_18  and  O_21
REMARK                            x       y       z     vdW  Elec       q    Type
REMARK                         _______ _______ _______ _____ _____    ______ ____
ROOT
ATOM      1  O   UNL     1       6.257  -0.581 -19.296  0.00  0.00    +0.000 OA
ATOM      2  O   UNL     1       2.526   0.758 -18.308  0.00  0.00    +0.000 OA
ATOM      3  O   UNL     1       3.462   2.844 -17.971  0.00  0.00    +0.000 OA
ATOM      4  C   UNL     1       4.897   1.104 -18.647  0.00  0.00    +0.000 A 
ATOM      5  C   UNL     1       4.993  -0.221 -18.984  0.00  0.00    +0.000 A 
ATOM      6  C   UNL     1       6.210   1.627 -18.755  0.00  0.00    +0.000 A 
ATOM      7  C   UNL     1       3.907  -1.153 -19.016  0.00  0.00    +0.000 A 
ATOM      8  C   UNL     1       7.010   0.553 -19.157  0.00  0.00    +0.000 A 
ATOM      9  C   UNL     1       2.659  -0.620 -18.664  0.00  0.00    +0.000 A 
ATOM     10  C   UNL     1       3.618   1.669 -18.282  0.00  0.00    +0.000 A 
ATOM     11  C   UNL     1       6.814   2.879 -18.560  0.00  0.00    +0.000 A 
ATOM     12  C   UNL     1       4.018  -2.495 -19.360  0.00  0.00    +0.000 A 
ATOM     13  C   UNL     1       8.383   0.636 -19.382  0.00  0.00    +0.000 A 
ATOM     14  C   UNL     1       1.512  -1.404 -18.650  0.00  0.00    +0.000 A 
ATOM     15  C   UNL     1       8.191   2.999 -18.776  0.00  0.00    +0.000 A 
ATOM     16  C   UNL     1       8.946   1.898 -19.177  0.00  0.00    +0.000 A 
ATOM     17  C   UNL     1       2.875  -3.294 -19.349  0.00  0.00    +0.000 A 
ATOM     18  C   UNL     1       1.639  -2.745 -18.996  0.00  0.00    +0.000 A 
ENDROOT
BRANCH  16  19
ATOM     19  O   UNL     1      10.288   2.087 -19.370  0.00  0.00    +0.000 OA
ATOM     20  H   UNL     1      10.672   1.254 -19.693  0.00  0.00    +0.000 HD
ENDBRANCH  16  19
BRANCH  18  21
ATOM     21  O   UNL     1       0.516  -3.523 -18.984  0.00  0.00    +0.000 OA
ATOM     22  H   UNL     1       0.708  -4.333 -18.480  0.00  0.00    +0.000 HD
ENDBRANCH  18  21
TORSDOF 2
ENDMDL
MODEL 2
REMARK VINA RESULT:      -6.3     19.882     22.320
REMARK  Name = COUMESTROL.pdbqt.pdb
REMARK  2 active torsions:
REMARK  status: ('A' for Active; 'I' for Inactive)
REMARK    1  A    between atoms: C_16  and  O_19
REMARK    2  A    between atoms: C_18  and  O_21
REMARK                            x       y       z     vdW  Elec       q    Type
REMARK                         _______ _______ _______ _____ _____    ______ ____
ROOT
ATOM      1  O   UNL     1     -11.157   6.972  -6.742  0.00  0.00    +0.000 OA
ATOM      2  O   UNL     1     -13.266  10.039  -8.424  0.00  0.00    +0.000 OA
ATOM      3  O   UNL     1     -13.036   8.965 -10.457  0.00  0.00    +0.000 OA
ATOM      4  C   UNL     1     -12.073   7.939  -8.569  0.00  0.00    +0.000 A 
ATOM      5  C   UNL     1     -11.860   8.023  -7.218  0.00  0.00    +0.000 A 
ATOM      6  C   UNL     1     -11.454   6.734  -8.984  0.00  0.00    +0.000 A 
ATOM      7  C   UNL     1     -12.310   9.083  -6.367  0.00  0.00    +0.000 A 
ATOM      8  C   UNL     1     -10.904   6.176  -7.826  0.00  0.00    +0.000 A 
ATOM      9  C   UNL     1     -13.027  10.099  -7.016  0.00  0.00    +0.000 A 
ATOM     10  C   UNL     1     -12.809   8.977  -9.253  0.00  0.00    +0.000 A 
ATOM     11  C   UNL     1     -11.293   6.052 -10.201  0.00  0.00    +0.000 A 
ATOM     12  C   UNL     1     -12.087   9.157  -4.998  0.00  0.00    +0.000 A 
ATOM     13  C   UNL     1     -10.199   4.973  -7.791  0.00  0.00    +0.000 A 
ATOM     14  C   UNL     1     -13.527  11.192  -6.321  0.00  0.00    +0.000 A 
ATOM     15  C   UNL     1     -10.591   4.843 -10.202  0.00  0.00    +0.000 A 
ATOM     16  C   UNL     1     -10.062   4.326  -9.021  0.00  0.00    +0.000 A 
ATOM     17  C   UNL     1     -12.583  10.249  -4.287  0.00  0.00    +0.000 A 
ATOM     18  C   UNL     1     -13.295  11.252  -4.951  0.00  0.00    +0.000 A 
ENDROOT
BRANCH  16  19
ATOM     19  O   UNL     1      -9.386   3.138  -9.096  0.00  0.00    +0.000 OA
ATOM     20  H   UNL     1      -9.562   2.738  -9.965  0.00  0.00    +0.000 HD
ENDBRANCH  16  19
BRANCH  18  21
ATOM     21  O   UNL     1     -13.785  12.325  -4.261  0.00  0.00    +0.000 OA
ATOM     22  H   UNL     1     -13.356  13.130  -4.600  0.00  0.00    +0.000 HD
ENDBRANCH  18  21
TORSDOF 2
ENDMDL
MODEL 3
REMARK VINA RESULT:      -6.3      6.780     11.762
REMARK  Name = COUMESTROL.pdbqt.pdb
REMARK  2 active torsions:
REMARK  status: ('A' for Active; 'I' for Inactive)
REMARK    1  A    between atoms: C_16  and  O_19
REMARK    2  A    between atoms: C_18  and  O_21
REMARK                            x       y       z     vdW  Elec       q    Type
REMARK                         _______ _______ _______ _____ _____    ______ ____
ROOT
ATOM      1  O   UNL     1      -5.897  -0.703 -19.852  0.00  0.00    +0.000 OA
ATOM      2  O   UNL     1      -2.268  -1.976 -18.477  0.00  0.00    +0.000 OA
ATOM      3  O   UNL     1      -3.249  -4.022 -18.044  0.00  0.00    +0.000 OA
ATOM      4  C   UNL     1      -4.610  -2.337 -18.966  0.00  0.00    +0.000 A 
ATOM      5  C   UNL     1      -4.665  -1.043 -19.416  0.00  0.00    +0.000 A 
ATOM      6  C   UNL     1      -5.916  -2.860 -19.131  0.00  0.00    +0.000 A 
ATOM      7  C   UNL     1      -3.570  -0.122 -19.441  0.00  0.00    +0.000 A 
ATOM      8  C   UNL     1      -6.672  -1.818 -19.678  0.00  0.00    +0.000 A 
ATOM      9  C   UNL     1      -2.357  -0.631 -18.954  0.00  0.00    +0.000 A 
ATOM     10  C   UNL     1      -3.368  -2.877 -18.461  0.00  0.00    +0.000 A 
ATOM     11  C   UNL     1      -6.548  -4.089 -18.882  0.00  0.00    +0.000 A 
ATOM     12  C   UNL     1      -3.639   1.188 -19.900  0.00  0.00    +0.000 A 
ATOM     13  C   UNL     1      -8.025  -1.913 -19.999  0.00  0.00    +0.000 A 
ATOM     14  C   UNL     1      -1.206   0.146 -18.915  0.00  0.00    +0.000 A 
ATOM     15  C   UNL     1      -7.905  -4.219 -19.192  0.00  0.00    +0.000 A 
ATOM     16  C   UNL     1      -8.615  -3.151 -19.736  0.00  0.00    +0.000 A 
ATOM     17  C   UNL     1      -2.491   1.979 -19.867  0.00  0.00    +0.000 A 
ATOM     18  C   UNL     1      -1.292   1.455 -19.378  0.00  0.00    +0.000 A 
ENDROOT
BRANCH  16  19
ATOM     19  O   UNL     1      -9.941  -3.349 -20.015  0.00  0.00    +0.000 OA
ATOM     20  H   UNL     1     -10.112  -4.306 -20.031  0.00  0.00    +0.000 HD
ENDBRANCH  16  19
BRANCH  18  21
ATOM     21  O   UNL     1      -0.164   2.225 -19.344  0.00  0.00    +0.000 OA
ATOM     22  H   UNL     1       0.299   2.055 -18.505  0.00  0.00    +0.000 HD
ENDBRANCH  18  21
TORSDOF 2
ENDMDL
MODEL 4
REMARK VINA RESULT:      -6.2      6.932      8.664
REMARK  Name = COUMESTROL.pdbqt.pdb
REMARK  2 active torsions:
REMARK  status: ('A' for Active; 'I' for Inactive)
REMARK    1  A    between atoms: C_16  and  O_19
REMARK    2  A    between atoms: C_18  and  O_21
REMARK                            x       y       z     vdW  Elec       q    Type
REMARK                         _______ _______ _______ _____ _____    ______ ____
ROOT
ATOM      1  O   UNL     1      10.769  -2.572 -17.598  0.00  0.00    +0.000 OA
ATOM      2  O   UNL     1      12.061   1.008 -19.082  0.00  0.00    +0.000 OA
ATOM      3  O   UNL     1      12.538  -0.086 -21.061  0.00  0.00    +0.000 OA
ATOM      4  C   UNL     1      11.636  -1.364 -19.301  0.00  0.00    +0.000 A 
ATOM      5  C   UNL     1      11.176  -1.351 -18.010  0.00  0.00    +0.000 A 
ATOM      6  C   UNL     1      11.510  -2.704 -19.743  0.00  0.00    +0.000 A 
ATOM      7  C   UNL     1      11.115  -0.203 -17.158  0.00  0.00    +0.000 A 
ATOM      8  C   UNL     1      10.973  -3.408 -18.661  0.00  0.00    +0.000 A 
ATOM      9  C   UNL     1      11.576   0.989 -17.738  0.00  0.00    +0.000 A 
ATOM     10  C   UNL     1      12.114  -0.145 -19.913  0.00  0.00    +0.000 A 
ATOM     11  C   UNL     1      11.786  -3.404 -20.929  0.00  0.00    +0.000 A 
ATOM     12  C   UNL     1      10.646  -0.203 -15.850  0.00  0.00    +0.000 A 
ATOM     13  C   UNL     1      10.688  -4.773 -18.675  0.00  0.00    +0.000 A 
ATOM     14  C   UNL     1      11.577   2.186 -17.033  0.00  0.00    +0.000 A 
ATOM     15  C   UNL     1      11.513  -4.774 -20.977  0.00  0.00    +0.000 A 
ATOM     16  C   UNL     1      10.977  -5.431 -19.872  0.00  0.00    +0.000 A 
ATOM     17  C   UNL     1      10.642   0.991 -15.130  0.00  0.00    +0.000 A 
ATOM     18  C   UNL     1      11.105   2.169 -15.724  0.00  0.00    +0.000 A 
ENDROOT
BRANCH  16  19
ATOM     19  O   UNL     1      10.734  -6.774 -19.989  0.00  0.00    +0.000 OA
ATOM     20  H   UNL     1      10.579  -6.977 -20.928  0.00  0.00    +0.000 HD
ENDBRANCH  16  19
BRANCH  18  21
ATOM     21  O   UNL     1      11.104   3.343 -15.025  0.00  0.00    +0.000 OA
ATOM     22  H   UNL     1      10.432   3.282 -14.324  0.00  0.00    +0.000 HD
ENDBRANCH  18  21
TORSDOF 2
ENDMDL
MODEL 5
REMARK VINA RESULT:      -6.2      6.984     10.335
REMARK  Name = COUMESTROL.pdbqt.pdb
REMARK  2 active torsions:
REMARK  status: ('A' for Active; 'I' for Inactive)
REMARK    1  A    between atoms: C_16  and  O_19
REMARK    2  A    between atoms: C_18  and  O_21
REMARK                            x       y       z     vdW  Elec       q    Type
REMARK                         _______ _______ _______ _____ _____    ______ ____
ROOT
ATOM      1  O   UNL     1      -5.105  -0.060 -19.517  0.00  0.00    +0.000 OA
ATOM      2  O   UNL     1      -5.224  -4.046 -18.630  0.00  0.00    +0.000 OA
ATOM      3  O   UNL     1      -2.955  -3.929 -18.209  0.00  0.00    +0.000 OA
ATOM      4  C   UNL     1      -4.041  -1.949 -18.875  0.00  0.00    +0.000 A 
ATOM      5  C   UNL     1      -5.231  -1.377 -19.241  0.00  0.00    +0.000 A 
ATOM      6  C   UNL     1      -3.080  -0.909 -18.923  0.00  0.00    +0.000 A 
ATOM      7  C   UNL     1      -6.489  -2.055 -19.335  0.00  0.00    +0.000 A 
ATOM      8  C   UNL     1      -3.782   0.233 -19.323  0.00  0.00    +0.000 A 
ATOM      9  C   UNL     1      -6.450  -3.420 -19.015  0.00  0.00    +0.000 A 
ATOM     10  C   UNL     1      -3.984  -3.354 -18.543  0.00  0.00    +0.000 A 
ATOM     11  C   UNL     1      -1.702  -0.798 -18.676  0.00  0.00    +0.000 A 
ATOM     12  C   UNL     1      -7.689  -1.462 -19.707  0.00  0.00    +0.000 A 
ATOM     13  C   UNL     1      -3.205   1.490 -19.496  0.00  0.00    +0.000 A 
ATOM     14  C   UNL     1      -7.592  -4.209 -19.060  0.00  0.00    +0.000 A 
ATOM     15  C   UNL     1      -1.091   0.449 -18.841  0.00  0.00    +0.000 A 
ATOM     16  C   UNL     1      -1.834   1.558 -19.241  0.00  0.00    +0.000 A 
ATOM     17  C   UNL     1      -8.844  -2.242 -19.757  0.00  0.00    +0.000 A 
ATOM     18  C   UNL     1      -8.786  -3.601 -19.435  0.00  0.00    +0.000 A 
ENDROOT
BRANCH  16  19
ATOM     19  O   UNL     1      -1.171   2.747 -19.381  0.00  0.00    +0.000 OA
ATOM     20  H   UNL     1      -0.402   2.742 -18.786  0.00  0.00    +0.000 HD
ENDBRANCH  16  19
BRANCH  18  21
ATOM     21  O   UNL     1      -9.913  -4.372 -19.482  0.00  0.00    +0.000 OA
ATOM     22  H   UNL     1     -10.133  -4.539 -20.415  0.00  0.00    +0.000 HD
ENDBRANCH  18  21
TORSDOF 2
ENDMDL
MODEL 6
REMARK VINA RESULT:      -6.1      4.720      7.123
REMARK  Name = COUMESTROL.pdbqt.pdb
REMARK  2 active torsions:
REMARK  status: ('A' for Active; 'I' for Inactive)
REMARK    1  A    between atoms: C_16  and  O_19
REMARK    2  A    between atoms: C_18  and  O_21
REMARK                            x       y       z     vdW  Elec       q    Type
REMARK                         _______ _______ _______ _____ _____    ______ ____
ROOT
ATOM      1  O   UNL     1      10.693   2.205 -21.209  0.00  0.00    +0.000 OA
ATOM      2  O   UNL     1       8.282   2.192 -17.912  0.00  0.00    +0.000 OA
ATOM      3  O   UNL     1       6.495   2.573 -19.327  0.00  0.00    +0.000 OA
ATOM      4  C   UNL     1       8.632   2.387 -20.298  0.00  0.00    +0.000 A 
ATOM      5  C   UNL     1       9.968   2.186 -20.069  0.00  0.00    +0.000 A 
ATOM      6  C   UNL     1       8.499   2.547 -21.700  0.00  0.00    +0.000 A 
ATOM      7  C   UNL     1      10.572   1.975 -18.788  0.00  0.00    +0.000 A 
ATOM      8  C   UNL     1       9.793   2.427 -22.216  0.00  0.00    +0.000 A 
ATOM      9  C   UNL     1       9.681   1.984 -17.705  0.00  0.00    +0.000 A 
ATOM     10  C   UNL     1       7.700   2.399 -19.193  0.00  0.00    +0.000 A 
ATOM     11  C   UNL     1       7.439   2.778 -22.591  0.00  0.00    +0.000 A 
ATOM     12  C   UNL     1      11.929   1.772 -18.570  0.00  0.00    +0.000 A 
ATOM     13  C   UNL     1      10.112   2.521 -23.570  0.00  0.00    +0.000 A 
ATOM     14  C   UNL     1      10.121   1.794 -16.402  0.00  0.00    +0.000 A 
ATOM     15  C   UNL     1       7.722   2.879 -23.956  0.00  0.00    +0.000 A 
ATOM     16  C   UNL     1       9.029   2.752 -24.422  0.00  0.00    +0.000 A 
ATOM     17  C   UNL     1      12.385   1.580 -17.266  0.00  0.00    +0.000 A 
ATOM     18  C   UNL     1      11.482   1.592 -16.199  0.00  0.00    +0.000 A 
ENDROOT
BRANCH  16  19
ATOM     19  O   UNL     1       9.234   2.861 -25.772  0.00  0.00    +0.000 OA
ATOM     20  H   UNL     1       9.039   3.776 -26.039  0.00  0.00    +0.000 HD
ENDBRANCH  16  19
BRANCH  18  21
ATOM     21  O   UNL     1      11.922   1.403 -14.919  0.00  0.00    +0.000 OA
ATOM     22  H   UNL     1      11.712   0.491 -14.653  0.00  0.00    +0.000 HD
ENDBRANCH  18  21
TORSDOF 2
ENDMDL
MODEL 7
REMARK VINA RESULT:      -6.0      7.131      9.215
REMARK  Name = COUMESTROL.pdbqt.pdb
REMARK  2 active torsions:
REMARK  status: ('A' for Active; 'I' for Inactive)
REMARK    1  A    between atoms: C_16  and  O_19
REMARK    2  A    between atoms: C_18  and  O_21
REMARK                            x       y       z     vdW  Elec       q    Type
REMARK                         _______ _______ _______ _____ _____    ______ ____
ROOT
ATOM      1  O   UNL     1      12.341   1.966 -18.994  0.00  0.00    +0.000 OA
ATOM      2  O   UNL     1      12.375  -1.312 -21.430  0.00  0.00    +0.000 OA
ATOM      3  O   UNL     1      11.450  -2.509 -19.683  0.00  0.00    +0.000 OA
ATOM      4  C   UNL     1      11.900  -0.227 -19.321  0.00  0.00    +0.000 A 
ATOM      5  C   UNL     1      12.388   0.933 -19.863  0.00  0.00    +0.000 A 
ATOM      6  C   UNL     1      11.513   0.099 -17.997  0.00  0.00    +0.000 A 
ATOM      7  C   UNL     1      12.898   1.082 -21.193  0.00  0.00    +0.000 A 
ATOM      8  C   UNL     1      11.803   1.458 -17.844  0.00  0.00    +0.000 A 
ATOM      9  C   UNL     1      12.877  -0.087 -21.968  0.00  0.00    +0.000 A 
ATOM     10  C   UNL     1      11.872  -1.440 -20.106  0.00  0.00    +0.000 A 
ATOM     11  C   UNL     1      10.951  -0.595 -16.913  0.00  0.00    +0.000 A 
ATOM     12  C   UNL     1      13.389   2.264 -21.732  0.00  0.00    +0.000 A 
ATOM     13  C   UNL     1      11.572   2.184 -16.676  0.00  0.00    +0.000 A 
ATOM     14  C   UNL     1      13.339  -0.097 -23.278  0.00  0.00    +0.000 A 
ATOM     15  C   UNL     1      10.707   0.103 -15.726  0.00  0.00    +0.000 A 
ATOM     16  C   UNL     1      11.014   1.458 -15.622  0.00  0.00    +0.000 A 
ATOM     17  C   UNL     1      13.857   2.269 -23.045  0.00  0.00    +0.000 A 
ATOM     18  C   UNL     1      13.828   1.094 -23.803  0.00  0.00    +0.000 A 
ENDROOT
BRANCH  16  19
ATOM     19  O   UNL     1      10.748   2.078 -14.431  0.00  0.00    +0.000 OA
ATOM     20  H   UNL     1      10.373   1.421 -13.819  0.00  0.00    +0.000 HD
ENDBRANCH  16  19
BRANCH  18  21
ATOM     21  O   UNL     1      14.285   1.091 -25.091  0.00  0.00    +0.000 OA
ATOM     22  H   UNL     1      14.276   2.006 -25.422  0.00  0.00    +0.000 HD
ENDBRANCH  18  21
TORSDOF 2
ENDMDL
MODEL 8
REMARK VINA RESULT:      -5.9     19.103     20.744
REMARK  Name = COUMESTROL.pdbqt.pdb
REMARK  2 active torsions:
REMARK  status: ('A' for Active; 'I' for Inactive)
REMARK    1  A    between atoms: C_16  and  O_19
REMARK    2  A    between atoms: C_18  and  O_21
REMARK                            x       y       z     vdW  Elec       q    Type
REMARK                         _______ _______ _______ _____ _____    ______ ____
ROOT
ATOM      1  O   UNL     1       6.922   3.148   1.745  0.00  0.00    +0.000 OA
ATOM      2  O   UNL     1       7.069   5.467  -1.614  0.00  0.00    +0.000 OA
ATOM      3  O   UNL     1       4.814   5.046  -1.895  0.00  0.00    +0.000 OA
ATOM      4  C   UNL     1       5.879   4.073  -0.034  0.00  0.00    +0.000 A 
ATOM      5  C   UNL     1       7.057   3.927   0.651  0.00  0.00    +0.000 A 
ATOM      6  C   UNL     1       4.917   3.323   0.687  0.00  0.00    +0.000 A 
ATOM      7  C   UNL     1       8.311   4.514   0.286  0.00  0.00    +0.000 A 
ATOM      8  C   UNL     1       5.606   2.773   1.772  0.00  0.00    +0.000 A 
ATOM      9  C   UNL     1       8.282   5.296  -0.878  0.00  0.00    +0.000 A 
ATOM     10  C   UNL     1       5.832   4.875  -1.235  0.00  0.00    +0.000 A 
ATOM     11  C   UNL     1       3.548   3.045   0.550  0.00  0.00    +0.000 A 
ATOM     12  C   UNL     1       9.499   4.359   0.990  0.00  0.00    +0.000 A 
ATOM     13  C   UNL     1       5.024   1.957   2.742  0.00  0.00    +0.000 A 
ATOM     14  C   UNL     1       9.423   5.929  -1.355  0.00  0.00    +0.000 A 
ATOM     15  C   UNL     1       2.932   2.230   1.505  0.00  0.00    +0.000 A 
ATOM     16  C   UNL     1       3.661   1.705   2.569  0.00  0.00    +0.000 A 
ATOM     17  C   UNL     1      10.652   4.989   0.522  0.00  0.00    +0.000 A 
ATOM     18  C   UNL     1      10.604   5.764  -0.640  0.00  0.00    +0.000 A 
ENDROOT
BRANCH  16  19
ATOM     19  O   UNL     1       2.994   0.915   3.467  0.00  0.00    +0.000 OA
ATOM     20  H   UNL     1       2.639   1.484   4.172  0.00  0.00    +0.000 HD
ENDBRANCH  16  19
BRANCH  18  21
ATOM     21  O   UNL     1      11.730   6.384  -1.104  0.00  0.00    +0.000 OA
ATOM     22  H   UNL     1      12.452   6.225  -0.471  0.00  0.00    +0.000 HD
ENDBRANCH  18  21
TORSDOF 2
ENDMDL
MODEL 9
REMARK VINA RESULT:      -5.9     15.665     17.018
REMARK  Name = COUMESTROL.pdbqt.pdb
REMARK  2 active torsions:
REMARK  status: ('A' for Active; 'I' for Inactive)
REMARK    1  A    between atoms: C_16  and  O_19
REMARK    2  A    between atoms: C_18  and  O_21
REMARK                            x       y       z     vdW  Elec       q    Type
REMARK                         _______ _______ _______ _____ _____    ______ ____
ROOT
ATOM      1  O   UNL     1      12.337  -5.618  -7.323  0.00  0.00    +0.000 OA
ATOM      2  O   UNL     1      13.818  -9.348  -6.565  0.00  0.00    +0.000 OA
ATOM      3  O   UNL     1      12.145  -9.596  -4.991  0.00  0.00    +0.000 OA
ATOM      4  C   UNL     1      12.233  -7.563  -6.175  0.00  0.00    +0.000 A 
ATOM      5  C   UNL     1      12.889  -6.836  -7.134  0.00  0.00    +0.000 A 
ATOM      6  C   UNL     1      11.178  -6.735  -5.717  0.00  0.00    +0.000 A 
ATOM      7  C   UNL     1      14.031  -7.276  -7.877  0.00  0.00    +0.000 A 
ATOM      8  C   UNL     1      11.283  -5.551  -6.453  0.00  0.00    +0.000 A 
ATOM      9  C   UNL     1      14.481  -8.566  -7.561  0.00  0.00    +0.000 A 
ATOM     10  C   UNL     1      12.684  -8.894  -5.838  0.00  0.00    +0.000 A 
ATOM     11  C   UNL     1      10.148  -6.849  -4.770  0.00  0.00    +0.000 A 
ATOM     12  C   UNL     1      14.687  -6.529  -8.848  0.00  0.00    +0.000 A 
ATOM     13  C   UNL     1      10.427  -4.459  -6.312  0.00  0.00    +0.000 A 
ATOM     14  C   UNL     1      15.579  -9.128  -8.200  0.00  0.00    +0.000 A 
ATOM     15  C   UNL     1       9.271  -5.772  -4.602  0.00  0.00    +0.000 A 
ATOM     16  C   UNL     1       9.417  -4.612  -5.360  0.00  0.00    +0.000 A 
ATOM     17  C   UNL     1      15.791  -7.081  -9.497  0.00  0.00    +0.000 A 
ATOM     18  C   UNL     1      16.225  -8.369  -9.170  0.00  0.00    +0.000 A 
ENDROOT
BRANCH  16  19
ATOM     19  O   UNL     1       8.523  -3.597  -5.143  0.00  0.00    +0.000 OA
ATOM     20  H   UNL     1       7.889  -3.584  -5.881  0.00  0.00    +0.000 HD
ENDBRANCH  16  19
BRANCH  18  21
ATOM     21  O   UNL     1      17.306  -8.915  -9.802  0.00  0.00    +0.000 OA
ATOM     22  H   UNL     1      17.207  -9.884  -9.798  0.00  0.00    +0.000 HD
ENDBRANCH  18  21
TORSDOF 2
ENDMDL
