MODEL 1
REMARK VINA RESULT:      -6.7      0.000      0.000
REMARK  Name = CP466722.pdbqt.pdb
REMARK  3 active torsions:
REMARK  status: ('A' for Active; 'I' for Inactive)
REMARK    1  A    between atoms: C_5  and  C_23
REMARK    2  A    between atoms: C_14  and  O_16
REMARK    3  A    between atoms: C_15  and  O_18
REMARK                            x       y       z     vdW  Elec       q    Type
REMARK                         _______ _______ _______ _____ _____    ______ ____
ROOT
ATOM      1  N   UNL     1      -6.465  -0.793 -21.838  0.00  0.00    +0.000 N 
ATOM      2  N   UNL     1      -6.938  -0.626 -20.581  0.00  0.00    +0.000 NA
ATOM      3  N   UNL     1      -8.456  -1.754 -21.849  0.00  0.00    +0.000 NA
ATOM      4  C   UNL     1      -7.407  -1.500 -22.588  0.00  0.00    +0.000 A 
ATOM      5  C   UNL     1      -8.143  -1.215 -20.623  0.00  0.00    +0.000 A 
ATOM      6  C   UNL     1      -5.203  -0.266 -22.275  0.00  0.00    +0.000 A 
ATOM      7  N   UNL     1      -4.912  -0.391 -23.597  0.00  0.00    +0.000 NA
ATOM      8  C   UNL     1      -3.747   0.121 -24.007  0.00  0.00    +0.000 A 
ATOM      9  N   UNL     1      -2.858   0.747 -23.230  0.00  0.00    +0.000 NA
ATOM     10  C   UNL     1      -3.149   0.866 -21.934  0.00  0.00    +0.000 A 
ATOM     11  C   UNL     1      -4.329   0.365 -21.368  0.00  0.00    +0.000 A 
ATOM     12  C   UNL     1      -2.238   1.523 -21.119  0.00  0.00    +0.000 A 
ATOM     13  C   UNL     1      -4.522   0.517 -19.974  0.00  0.00    +0.000 A 
ATOM     14  C   UNL     1      -3.585   1.144 -19.161  0.00  0.00    +0.000 A 
ATOM     15  C   UNL     1      -2.456   1.701 -19.751  0.00  0.00    +0.000 A 
ATOM     16  N   UNL     1      -7.250  -1.866 -23.875  0.00  0.00    +0.000 N 
ATOM     17  H   UNL     1      -8.071  -2.157 -24.394  0.00  0.00    +0.000 HD
ATOM     18  H   UNL     1      -6.511  -1.438 -24.432  0.00  0.00    +0.000 HD
ENDROOT
BRANCH   5  19
ATOM     19  C   UNL     1      -9.062  -1.286 -19.483  0.00  0.00    +0.000 A 
ATOM     20  N   UNL     1      -9.930  -0.254 -19.297  0.00  0.00    +0.000 NA
ATOM     21  C   UNL     1     -10.766  -0.342 -18.240  0.00  0.00    +0.000 A 
ATOM     22  C   UNL     1     -10.790  -1.405 -17.354  0.00  0.00    +0.000 A 
ATOM     23  C   UNL     1      -9.895  -2.444 -17.570  0.00  0.00    +0.000 A 
ATOM     24  C   UNL     1      -9.016  -2.393 -18.645  0.00  0.00    +0.000 A 
ENDBRANCH   5  19
BRANCH  14  25
ATOM     25  O   UNL     1      -3.861   1.268 -17.827  0.00  0.00    +0.000 OA
ATOM     26  C   UNL     1      -3.637   0.051 -17.162  0.00  0.00    +0.000 C 
ENDBRANCH  14  25
BRANCH  15  27
ATOM     27  O   UNL     1      -1.513   2.346 -18.998  0.00  0.00    +0.000 OA
ATOM     28  C   UNL     1      -0.678   3.119 -19.825  0.00  0.00    +0.000 C 
ENDBRANCH  15  27
TORSDOF 3
ENDMDL
MODEL 2
REMARK VINA RESULT:      -6.6      5.802     10.571
REMARK  Name = CP466722.pdbqt.pdb
REMARK  3 active torsions:
REMARK  status: ('A' for Active; 'I' for Inactive)
REMARK    1  A    between atoms: C_5  and  C_23
REMARK    2  A    between atoms: C_14  and  O_16
REMARK    3  A    between atoms: C_15  and  O_18
REMARK                            x       y       z     vdW  Elec       q    Type
REMARK                         _______ _______ _______ _____ _____    ______ ____
ROOT
ATOM      1  N   UNL     1       2.212  -0.033 -19.005  0.00  0.00    +0.000 N 
ATOM      2  N   UNL     1       3.051   0.944 -19.422  0.00  0.00    +0.000 NA
ATOM      3  N   UNL     1       4.237  -0.772 -18.510  0.00  0.00    +0.000 NA
ATOM      4  C   UNL     1       2.966  -1.078 -18.464  0.00  0.00    +0.000 A 
ATOM      5  C   UNL     1       4.264   0.468 -19.106  0.00  0.00    +0.000 A 
ATOM      6  C   UNL     1       0.784   0.070 -19.096  0.00  0.00    +0.000 A 
ATOM      7  N   UNL     1       0.059  -0.925 -18.517  0.00  0.00    +0.000 NA
ATOM      8  C   UNL     1      -1.272  -0.815 -18.582  0.00  0.00    +0.000 A 
ATOM      9  N   UNL     1      -1.940   0.188 -19.158  0.00  0.00    +0.000 NA
ATOM     10  C   UNL     1      -1.224   1.161 -19.725  0.00  0.00    +0.000 A 
ATOM     11  C   UNL     1       0.177   1.166 -19.740  0.00  0.00    +0.000 A 
ATOM     12  C   UNL     1      -1.908   2.213 -20.317  0.00  0.00    +0.000 A 
ATOM     13  C   UNL     1       0.836   2.231 -20.398  0.00  0.00    +0.000 A 
ATOM     14  C   UNL     1       0.140   3.260 -21.022  0.00  0.00    +0.000 A 
ATOM     15  C   UNL     1      -1.246   3.278 -20.931  0.00  0.00    +0.000 A 
ATOM     16  N   UNL     1       2.454  -2.226 -17.979  0.00  0.00    +0.000 N 
ATOM     17  H   UNL     1       3.049  -2.807 -17.399  0.00  0.00    +0.000 HD
ATOM     18  H   UNL     1       1.457  -2.285 -17.778  0.00  0.00    +0.000 HD
ENDROOT
BRANCH   5  19
ATOM     19  C   UNL     1       5.518   1.184 -19.356  0.00  0.00    +0.000 A 
ATOM     20  N   UNL     1       5.953   1.281 -20.643  0.00  0.00    +0.000 NA
ATOM     21  C   UNL     1       7.112   1.945 -20.847  0.00  0.00    +0.000 A 
ATOM     22  C   UNL     1       7.865   2.522 -19.840  0.00  0.00    +0.000 A 
ATOM     23  C   UNL     1       7.395   2.410 -18.538  0.00  0.00    +0.000 A 
ATOM     24  C   UNL     1       6.208   1.734 -18.283  0.00  0.00    +0.000 A 
ENDBRANCH   5  19
BRANCH  14  25
ATOM     25  O   UNL     1       0.857   4.263 -21.616  0.00  0.00    +0.000 OA
ATOM     26  C   UNL     1       1.171   3.923 -22.943  0.00  0.00    +0.000 C 
ENDBRANCH  14  25
BRANCH  15  27
ATOM     27  O   UNL     1      -1.978   4.280 -21.510  0.00  0.00    +0.000 OA
ATOM     28  C   UNL     1      -2.836   3.749 -22.490  0.00  0.00    +0.000 C 
ENDBRANCH  15  27
TORSDOF 3
ENDMDL
MODEL 3
REMARK VINA RESULT:      -6.4      9.736     14.046
REMARK  Name = CP466722.pdbqt.pdb
REMARK  3 active torsions:
REMARK  status: ('A' for Active; 'I' for Inactive)
REMARK    1  A    between atoms: C_5  and  C_23
REMARK    2  A    between atoms: C_14  and  O_16
REMARK    3  A    between atoms: C_15  and  O_18
REMARK                            x       y       z     vdW  Elec       q    Type
REMARK                         _______ _______ _______ _____ _____    ______ ____
ROOT
ATOM      1  N   UNL     1       7.445  -0.985 -20.799  0.00  0.00    +0.000 N 
ATOM      2  N   UNL     1       7.706  -0.930 -19.472  0.00  0.00    +0.000 NA
ATOM      3  N   UNL     1       9.467  -0.104 -20.655  0.00  0.00    +0.000 NA
ATOM      4  C   UNL     1       8.533  -0.460 -21.499  0.00  0.00    +0.000 A 
ATOM      5  C   UNL     1       8.935  -0.396 -19.421  0.00  0.00    +0.000 A 
ATOM      6  C   UNL     1       6.238  -1.546 -21.336  0.00  0.00    +0.000 A 
ATOM      7  N   UNL     1       6.164  -1.661 -22.689  0.00  0.00    +0.000 NA
ATOM      8  C   UNL     1       5.048  -2.205 -23.186  0.00  0.00    +0.000 A 
ATOM      9  N   UNL     1       4.013  -2.649 -22.466  0.00  0.00    +0.000 NA
ATOM     10  C   UNL     1       4.091  -2.533 -21.139  0.00  0.00    +0.000 A 
ATOM     11  C   UNL     1       5.197  -1.971 -20.486  0.00  0.00    +0.000 A 
ATOM     12  C   UNL     1       3.027  -2.999 -20.380  0.00  0.00    +0.000 A 
ATOM     13  C   UNL     1       5.161  -1.867 -19.075  0.00  0.00    +0.000 A 
ATOM     14  C   UNL     1       4.073  -2.303 -18.328  0.00  0.00    +0.000 A 
ATOM     15  C   UNL     1       3.019  -2.926 -18.986  0.00  0.00    +0.000 A 
ATOM     16  N   UNL     1       8.600  -0.334 -22.839  0.00  0.00    +0.000 N 
ATOM     17  H   UNL     1       9.508  -0.170 -23.260  0.00  0.00    +0.000 HD
ATOM     18  H   UNL     1       7.932  -0.836 -23.424  0.00  0.00    +0.000 HD
ENDROOT
BRANCH   5  19
ATOM     19  C   UNL     1       9.669  -0.142 -18.177  0.00  0.00    +0.000 A 
ATOM     20  N   UNL     1      10.510  -1.110 -17.722  0.00  0.00    +0.000 NA
ATOM     21  C   UNL     1      11.174  -0.853 -16.574  0.00  0.00    +0.000 A 
ATOM     22  C   UNL     1      11.049   0.319 -15.850  0.00  0.00    +0.000 A 
ATOM     23  C   UNL     1      10.186   1.291 -16.340  0.00  0.00    +0.000 A 
ATOM     24  C   UNL     1       9.482   1.066 -17.517  0.00  0.00    +0.000 A 
ENDBRANCH   5  19
BRANCH  14  25
ATOM     25  O   UNL     1       4.130  -2.185 -16.966  0.00  0.00    +0.000 OA
ATOM     26  C   UNL     1       3.676  -0.918 -16.562  0.00  0.00    +0.000 C 
ENDBRANCH  14  25
BRANCH  15  27
ATOM     27  O   UNL     1       1.932  -3.391 -18.295  0.00  0.00    +0.000 OA
ATOM     28  C   UNL     1       1.322  -4.442 -19.002  0.00  0.00    +0.000 C 
ENDBRANCH  15  27
TORSDOF 3
ENDMDL
MODEL 4
REMARK VINA RESULT:      -6.1     22.380     24.821
REMARK  Name = CP466722.pdbqt.pdb
REMARK  3 active torsions:
REMARK  status: ('A' for Active; 'I' for Inactive)
REMARK    1  A    between atoms: C_5  and  C_23
REMARK    2  A    between atoms: C_14  and  O_16
REMARK    3  A    between atoms: C_15  and  O_18
REMARK                            x       y       z     vdW  Elec       q    Type
REMARK                         _______ _______ _______ _____ _____    ______ ____
ROOT
ATOM      1  N   UNL     1      10.576  -6.881  -5.113  0.00  0.00    +0.000 N 
ATOM      2  N   UNL     1      11.401  -7.754  -4.489  0.00  0.00    +0.000 NA
ATOM      3  N   UNL     1       9.644  -7.229  -3.138  0.00  0.00    +0.000 NA
ATOM      4  C   UNL     1       9.502  -6.588  -4.270  0.00  0.00    +0.000 A 
ATOM      5  C   UNL     1      10.811  -7.940  -3.298  0.00  0.00    +0.000 A 
ATOM      6  C   UNL     1      10.844  -6.348  -6.419  0.00  0.00    +0.000 A 
ATOM      7  N   UNL     1      10.004  -5.379  -6.870  0.00  0.00    +0.000 NA
ATOM      8  C   UNL     1      10.269  -4.868  -8.077  0.00  0.00    +0.000 A 
ATOM      9  N   UNL     1      11.289  -5.224  -8.863  0.00  0.00    +0.000 NA
ATOM     10  C   UNL     1      12.110  -6.175  -8.415  0.00  0.00    +0.000 A 
ATOM     11  C   UNL     1      11.942  -6.805  -7.175  0.00  0.00    +0.000 A 
ATOM     12  C   UNL     1      13.179  -6.546  -9.219  0.00  0.00    +0.000 A 
ATOM     13  C   UNL     1      12.853  -7.825  -6.812  0.00  0.00    +0.000 A 
ATOM     14  C   UNL     1      13.898  -8.215  -7.642  0.00  0.00    +0.000 A 
ATOM     15  C   UNL     1      14.094  -7.528  -8.835  0.00  0.00    +0.000 A 
ATOM     16  N   UNL     1       8.475  -5.774  -4.584  0.00  0.00    +0.000 N 
ATOM     17  H   UNL     1       7.881  -5.440  -3.833  0.00  0.00    +0.000 HD
ATOM     18  H   UNL     1       8.557  -5.150  -5.386  0.00  0.00    +0.000 HD
ENDROOT
BRANCH   5  19
ATOM     19  C   UNL     1      11.342  -8.812  -2.246  0.00  0.00    +0.000 A 
ATOM     20  N   UNL     1      12.693  -8.945  -2.148  0.00  0.00    +0.000 NA
ATOM     21  C   UNL     1      13.158  -9.754  -1.171  0.00  0.00    +0.000 A 
ATOM     22  C   UNL     1      12.351 -10.439  -0.281  0.00  0.00    +0.000 A 
ATOM     23  C   UNL     1      10.977 -10.282  -0.402  0.00  0.00    +0.000 A 
ATOM     24  C   UNL     1      10.456  -9.460  -1.394  0.00  0.00    +0.000 A 
ENDBRANCH   5  19
BRANCH  14  25
ATOM     25  O   UNL     1      14.746  -9.195  -7.204  0.00  0.00    +0.000 OA
ATOM     26  C   UNL     1      14.624  -9.366  -5.814  0.00  0.00    +0.000 C 
ENDBRANCH  14  25
BRANCH  15  27
ATOM     27  O   UNL     1      15.119  -7.859  -9.679  0.00  0.00    +0.000 OA
ATOM     28  C   UNL     1      16.121  -6.873  -9.634  0.00  0.00    +0.000 C 
ENDBRANCH  15  27
TORSDOF 3
ENDMDL
MODEL 5
REMARK VINA RESULT:      -6.1     14.734     16.775
REMARK  Name = CP466722.pdbqt.pdb
REMARK  3 active torsions:
REMARK  status: ('A' for Active; 'I' for Inactive)
REMARK    1  A    between atoms: C_5  and  C_23
REMARK    2  A    between atoms: C_14  and  O_16
REMARK    3  A    between atoms: C_15  and  O_18
REMARK                            x       y       z     vdW  Elec       q    Type
REMARK                         _______ _______ _______ _____ _____    ______ ____
ROOT
ATOM      1  N   UNL     1      10.662  -0.699 -17.882  0.00  0.00    +0.000 N 
ATOM      2  N   UNL     1      10.390  -1.650 -18.806  0.00  0.00    +0.000 NA
ATOM      3  N   UNL     1      11.748  -2.494 -17.184  0.00  0.00    +0.000 NA
ATOM      4  C   UNL     1      11.482  -1.247 -16.893  0.00  0.00    +0.000 A 
ATOM      5  C   UNL     1      11.063  -2.720 -18.356  0.00  0.00    +0.000 A 
ATOM      6  C   UNL     1      10.184   0.650 -17.984  0.00  0.00    +0.000 A 
ATOM      7  N   UNL     1      10.642   1.535 -17.059  0.00  0.00    +0.000 NA
ATOM      8  C   UNL     1      10.213   2.797 -17.170  0.00  0.00    +0.000 A 
ATOM      9  N   UNL     1       9.386   3.255 -18.114  0.00  0.00    +0.000 NA
ATOM     10  C   UNL     1       8.939   2.382 -19.019  0.00  0.00    +0.000 A 
ATOM     11  C   UNL     1       9.297   1.027 -19.013  0.00  0.00    +0.000 A 
ATOM     12  C   UNL     1       8.086   2.849 -20.009  0.00  0.00    +0.000 A 
ATOM     13  C   UNL     1       8.739   0.182 -20.001  0.00  0.00    +0.000 A 
ATOM     14  C   UNL     1       7.856   0.653 -20.965  0.00  0.00    +0.000 A 
ATOM     15  C   UNL     1       7.571   2.013 -21.002  0.00  0.00    +0.000 A 
ATOM     16  N   UNL     1      11.923  -0.586 -15.804  0.00  0.00    +0.000 N 
ATOM     17  H   UNL     1      12.694  -0.987 -15.281  0.00  0.00    +0.000 HD
ATOM     18  H   UNL     1      11.855   0.430 -15.773  0.00  0.00    +0.000 HD
ENDROOT
BRANCH   5  19
ATOM     19  C   UNL     1      11.089  -4.019 -19.034  0.00  0.00    +0.000 A 
ATOM     20  N   UNL     1       9.898  -4.612 -19.323  0.00  0.00    +0.000 NA
ATOM     21  C   UNL     1       9.948  -5.810 -19.947  0.00  0.00    +0.000 A 
ATOM     22  C   UNL     1      11.120  -6.452 -20.305  0.00  0.00    +0.000 A 
ATOM     23  C   UNL     1      12.319  -5.821 -20.000  0.00  0.00    +0.000 A 
ATOM     24  C   UNL     1      12.314  -4.590 -19.357  0.00  0.00    +0.000 A 
ENDBRANCH   5  19
BRANCH  14  25
ATOM     25  O   UNL     1       7.380  -0.229 -21.897  0.00  0.00    +0.000 OA
ATOM     26  C   UNL     1       7.860  -1.524 -21.639  0.00  0.00    +0.000 C 
ENDBRANCH  14  25
BRANCH  15  27
ATOM     27  O   UNL     1       6.723   2.531 -21.943  0.00  0.00    +0.000 OA
ATOM     28  C   UNL     1       7.453   2.978 -23.059  0.00  0.00    +0.000 C 
ENDBRANCH  15  27
TORSDOF 3
ENDMDL
MODEL 6
REMARK VINA RESULT:      -6.1     14.235     17.322
REMARK  Name = CP466722.pdbqt.pdb
REMARK  3 active torsions:
REMARK  status: ('A' for Active; 'I' for Inactive)
REMARK    1  A    between atoms: C_5  and  C_23
REMARK    2  A    between atoms: C_14  and  O_16
REMARK    3  A    between atoms: C_15  and  O_18
REMARK                            x       y       z     vdW  Elec       q    Type
REMARK                         _______ _______ _______ _____ _____    ______ ____
ROOT
ATOM      1  N   UNL     1     -11.756   7.931  -7.976  0.00  0.00    +0.000 N 
ATOM      2  N   UNL     1     -12.634   8.911  -7.661  0.00  0.00    +0.000 NA
ATOM      3  N   UNL     1     -11.105   8.659  -5.993  0.00  0.00    +0.000 NA
ATOM      4  C   UNL     1     -10.823   7.808  -6.945  0.00  0.00    +0.000 A 
ATOM      5  C   UNL     1     -12.214   9.328  -6.457  0.00  0.00    +0.000 A 
ATOM      6  C   UNL     1     -11.852   7.152  -9.178  0.00  0.00    +0.000 A 
ATOM      7  N   UNL     1     -10.986   6.111  -9.304  0.00  0.00    +0.000 NA
ATOM      8  C   UNL     1     -11.092   5.372 -10.414  0.00  0.00    +0.000 A 
ATOM      9  N   UNL     1     -11.978   5.568 -11.394  0.00  0.00    +0.000 NA
ATOM     10  C   UNL     1     -12.825   6.590 -11.265  0.00  0.00    +0.000 A 
ATOM     11  C   UNL     1     -12.816   7.452 -10.160  0.00  0.00    +0.000 A 
ATOM     12  C   UNL     1     -13.757   6.797 -12.273  0.00  0.00    +0.000 A 
ATOM     13  C   UNL     1     -13.738   8.526 -10.140  0.00  0.00    +0.000 A 
ATOM     14  C   UNL     1     -14.641   8.746 -11.173  0.00  0.00    +0.000 A 
ATOM     15  C   UNL     1     -14.686   7.838 -12.225  0.00  0.00    +0.000 A 
ATOM     16  N   UNL     1      -9.787   6.946  -6.942  0.00  0.00    +0.000 N 
ATOM     17  H   UNL     1      -9.317   6.765  -6.061  0.00  0.00    +0.000 HD
ATOM     18  H   UNL     1      -9.773   6.176  -7.610  0.00  0.00    +0.000 HD
ENDROOT
BRANCH   5  19
ATOM     19  C   UNL     1     -12.863  10.391  -5.683  0.00  0.00    +0.000 A 
ATOM     20  N   UNL     1     -14.194  10.601  -5.877  0.00  0.00    +0.000 NA
ATOM     21  C   UNL     1     -14.768  11.587  -5.154  0.00  0.00    +0.000 A 
ATOM     22  C   UNL     1     -14.092  12.377  -4.242  0.00  0.00    +0.000 A 
ATOM     23  C   UNL     1     -12.735  12.138  -4.063  0.00  0.00    +0.000 A 
ATOM     24  C   UNL     1     -12.104  11.135  -4.788  0.00  0.00    +0.000 A 
ENDBRANCH   5  19
BRANCH  14  25
ATOM     25  O   UNL     1     -15.513   9.795 -11.063  0.00  0.00    +0.000 OA
ATOM     26  C   UNL     1     -16.500   9.515 -10.103  0.00  0.00    +0.000 C 
ENDBRANCH  14  25
BRANCH  15  27
ATOM     27  O   UNL     1     -15.570   7.998 -13.257  0.00  0.00    +0.000 OA
ATOM     28  C   UNL     1     -16.531   6.971 -13.236  0.00  0.00    +0.000 C 
ENDBRANCH  15  27
TORSDOF 3
ENDMDL
MODEL 7
REMARK VINA RESULT:      -5.9     20.117     21.972
REMARK  Name = CP466722.pdbqt.pdb
REMARK  3 active torsions:
REMARK  status: ('A' for Active; 'I' for Inactive)
REMARK    1  A    between atoms: C_5  and  C_23
REMARK    2  A    between atoms: C_14  and  O_16
REMARK    3  A    between atoms: C_15  and  O_18
REMARK                            x       y       z     vdW  Elec       q    Type
REMARK                         _______ _______ _______ _____ _____    ______ ____
ROOT
ATOM      1  N   UNL     1      -9.447  -1.961  -0.682  0.00  0.00    +0.000 N 
ATOM      2  N   UNL     1      -8.787  -0.924  -0.113  0.00  0.00    +0.000 NA
ATOM      3  N   UNL     1      -7.304  -2.438  -0.947  0.00  0.00    +0.000 NA
ATOM      4  C   UNL     1      -8.515  -2.865  -1.197  0.00  0.00    +0.000 A 
ATOM      5  C   UNL     1      -7.496  -1.246  -0.289  0.00  0.00    +0.000 A 
ATOM      6  C   UNL     1     -10.878  -2.070  -0.683  0.00  0.00    +0.000 A 
ATOM      7  N   UNL     1     -11.404  -3.227  -1.168  0.00  0.00    +0.000 NA
ATOM      8  C   UNL     1     -12.736  -3.336  -1.147  0.00  0.00    +0.000 A 
ATOM      9  N   UNL     1     -13.584  -2.413  -0.684  0.00  0.00    +0.000 NA
ATOM     10  C   UNL     1     -13.062  -1.281  -0.209  0.00  0.00    +0.000 A 
ATOM     11  C   UNL     1     -11.684  -1.028  -0.183  0.00  0.00    +0.000 A 
ATOM     12  C   UNL     1     -13.932  -0.318   0.284  0.00  0.00    +0.000 A 
ATOM     13  C   UNL     1     -11.240   0.221   0.312  0.00  0.00    +0.000 A 
ATOM     14  C   UNL     1     -12.124   1.193   0.768  0.00  0.00    +0.000 A 
ATOM     15  C   UNL     1     -13.481   0.896   0.804  0.00  0.00    +0.000 A 
ATOM     16  N   UNL     1      -8.825  -3.998  -1.856  0.00  0.00    +0.000 N 
ATOM     17  H   UNL     1      -8.099  -4.696  -1.976  0.00  0.00    +0.000 HD
ATOM     18  H   UNL     1      -9.777  -4.362  -1.810  0.00  0.00    +0.000 HD
ENDROOT
BRANCH   5  19
ATOM     19  C   UNL     1      -6.375  -0.423   0.175  0.00  0.00    +0.000 A 
ATOM     20  N   UNL     1      -5.236  -1.057   0.566  0.00  0.00    +0.000 NA
ATOM     21  C   UNL     1      -4.217  -0.277   0.990  0.00  0.00    +0.000 A 
ATOM     22  C   UNL     1      -4.267   1.104   1.044  0.00  0.00    +0.000 A 
ATOM     23  C   UNL     1      -5.441   1.724   0.636  0.00  0.00    +0.000 A 
ATOM     24  C   UNL     1      -6.514   0.959   0.194  0.00  0.00    +0.000 A 
ENDBRANCH   5  19
BRANCH  14  25
ATOM     25  O   UNL     1     -11.608   2.365   1.251  0.00  0.00    +0.000 OA
ATOM     26  C   UNL     1     -11.107   2.183   2.551  0.00  0.00    +0.000 C 
ENDBRANCH  14  25
BRANCH  15  27
ATOM     27  O   UNL     1     -14.391   1.810   1.263  0.00  0.00    +0.000 OA
ATOM     28  C   UNL     1     -15.120   2.349   0.188  0.00  0.00    +0.000 C 
ENDBRANCH  15  27
TORSDOF 3
ENDMDL
MODEL 8
REMARK VINA RESULT:      -5.9      3.555      8.121
REMARK  Name = CP466722.pdbqt.pdb
REMARK  3 active torsions:
REMARK  status: ('A' for Active; 'I' for Inactive)
REMARK    1  A    between atoms: C_5  and  C_23
REMARK    2  A    between atoms: C_14  and  O_16
REMARK    3  A    between atoms: C_15  and  O_18
REMARK                            x       y       z     vdW  Elec       q    Type
REMARK                         _______ _______ _______ _____ _____    ______ ____
ROOT
ATOM      1  N   UNL     1      -0.635   2.648 -21.139  0.00  0.00    +0.000 N 
ATOM      2  N   UNL     1      -0.195   1.772 -20.205  0.00  0.00    +0.000 NA
ATOM      3  N   UNL     1       1.509   3.123 -20.879  0.00  0.00    +0.000 NA
ATOM      4  C   UNL     1       0.425   3.472 -21.523  0.00  0.00    +0.000 A 
ATOM      5  C   UNL     1       1.103   2.085 -20.074  0.00  0.00    +0.000 A 
ATOM      6  C   UNL     1      -1.980   2.647 -21.640  0.00  0.00    +0.000 A 
ATOM      7  N   UNL     1      -2.250   3.491 -22.672  0.00  0.00    +0.000 NA
ATOM      8  C   UNL     1      -3.498   3.472 -23.153  0.00  0.00    +0.000 A 
ATOM      9  N   UNL     1      -4.488   2.691 -22.711  0.00  0.00    +0.000 NA
ATOM     10  C   UNL     1      -4.217   1.866 -21.699  0.00  0.00    +0.000 A 
ATOM     11  C   UNL     1      -2.956   1.792 -21.091  0.00  0.00    +0.000 A 
ATOM     12  C   UNL     1      -5.236   1.043 -21.238  0.00  0.00    +0.000 A 
ATOM     13  C   UNL     1      -2.787   0.904 -20.002  0.00  0.00    +0.000 A 
ATOM     14  C   UNL     1      -3.825   0.112 -19.525  0.00  0.00    +0.000 A 
ATOM     15  C   UNL     1      -5.047   0.144 -20.186  0.00  0.00    +0.000 A 
ATOM     16  N   UNL     1       0.334   4.478 -22.416  0.00  0.00    +0.000 N 
ATOM     17  H   UNL     1       1.193   4.854 -22.801  0.00  0.00    +0.000 HD
ATOM     18  H   UNL     1      -0.480   4.534 -23.027  0.00  0.00    +0.000 HD
ENDROOT
BRANCH   5  19
ATOM     19  C   UNL     1       2.026   1.395 -19.169  0.00  0.00    +0.000 A 
ATOM     20  N   UNL     1       3.027   2.122 -18.601  0.00  0.00    +0.000 NA
ATOM     21  C   UNL     1       3.866   1.463 -17.771  0.00  0.00    +0.000 A 
ATOM     22  C   UNL     1       3.763   0.117 -17.471  0.00  0.00    +0.000 A 
ATOM     23  C   UNL     1       2.730  -0.599 -18.063  0.00  0.00    +0.000 A 
ATOM     24  C   UNL     1       1.846   0.039 -18.924  0.00  0.00    +0.000 A 
ENDBRANCH   5  19
BRANCH  14  25
ATOM     25  O   UNL     1      -3.569  -0.735 -18.481  0.00  0.00    +0.000 OA
ATOM     26  C   UNL     1      -2.291  -1.305 -18.612  0.00  0.00    +0.000 C 
ENDBRANCH  14  25
BRANCH  15  27
ATOM     27  O   UNL     1      -6.096  -0.631 -19.769  0.00  0.00    +0.000 OA
ATOM     28  C   UNL     1      -6.314  -1.682 -20.677  0.00  0.00    +0.000 C 
ENDBRANCH  15  27
TORSDOF 3
ENDMDL
MODEL 9
REMARK VINA RESULT:      -5.9      5.805     10.294
REMARK  Name = CP466722.pdbqt.pdb
REMARK  3 active torsions:
REMARK  status: ('A' for Active; 'I' for Inactive)
REMARK    1  A    between atoms: C_5  and  C_23
REMARK    2  A    between atoms: C_14  and  O_16
REMARK    3  A    between atoms: C_15  and  O_18
REMARK                            x       y       z     vdW  Elec       q    Type
REMARK                         _______ _______ _______ _____ _____    ______ ____
ROOT
ATOM      1  N   UNL     1       2.488  -1.938 -19.750  0.00  0.00    +0.000 N 
ATOM      2  N   UNL     1       2.978  -0.682 -19.620  0.00  0.00    +0.000 NA
ATOM      3  N   UNL     1       4.676  -2.156 -19.976  0.00  0.00    +0.000 NA
ATOM      4  C   UNL     1       3.547  -2.817 -19.982  0.00  0.00    +0.000 A 
ATOM      5  C   UNL     1       4.301  -0.851 -19.760  0.00  0.00    +0.000 A 
ATOM      6  C   UNL     1       1.093  -2.250 -19.617  0.00  0.00    +0.000 A 
ATOM      7  N   UNL     1       0.756  -3.568 -19.636  0.00  0.00    +0.000 NA
ATOM      8  C   UNL     1      -0.541  -3.858 -19.489  0.00  0.00    +0.000 A 
ATOM      9  N   UNL     1      -1.521  -2.967 -19.317  0.00  0.00    +0.000 NA
ATOM     10  C   UNL     1      -1.184  -1.676 -19.300  0.00  0.00    +0.000 A 
ATOM     11  C   UNL     1       0.135  -1.230 -19.455  0.00  0.00    +0.000 A 
ATOM     12  C   UNL     1      -2.193  -0.741 -19.113  0.00  0.00    +0.000 A 
ATOM     13  C   UNL     1       0.376   0.165 -19.454  0.00  0.00    +0.000 A 
ATOM     14  C   UNL     1      -0.647   1.093 -19.304  0.00  0.00    +0.000 A 
ATOM     15  C   UNL     1      -1.938   0.631 -19.076  0.00  0.00    +0.000 A 
ATOM     16  N   UNL     1       3.418  -4.143 -20.186  0.00  0.00    +0.000 N 
ATOM     17  H   UNL     1       4.246  -4.723 -20.106  0.00  0.00    +0.000 HD
ATOM     18  H   UNL     1       2.538  -4.603 -19.953  0.00  0.00    +0.000 HD
ENDROOT
BRANCH   5  19
ATOM     19  C   UNL     1       5.280   0.238 -19.686  0.00  0.00    +0.000 A 
ATOM     20  N   UNL     1       6.096   0.438 -20.757  0.00  0.00    +0.000 NA
ATOM     21  C   UNL     1       6.990   1.447 -20.664  0.00  0.00    +0.000 A 
ATOM     22  C   UNL     1       7.117   2.273 -19.562  0.00  0.00    +0.000 A 
ATOM     23  C   UNL     1       6.269   2.048 -18.485  0.00  0.00    +0.000 A 
ATOM     24  C   UNL     1       5.336   1.020 -18.538  0.00  0.00    +0.000 A 
ENDBRANCH   5  19
BRANCH  14  25
ATOM     25  O   UNL     1      -0.323   2.422 -19.291  0.00  0.00    +0.000 OA
ATOM     26  C   UNL     1       0.672   2.694 -20.246  0.00  0.00    +0.000 C 
ENDBRANCH  14  25
BRANCH  15  27
ATOM     27  O   UNL     1      -2.979   1.503 -18.902  0.00  0.00    +0.000 OA
ATOM     28  C   UNL     1      -4.157   0.798 -18.601  0.00  0.00    +0.000 C 
ENDBRANCH  15  27
TORSDOF 3
ENDMDL
