MODEL 1
REMARK VINA RESULT:      -6.7      0.000      0.000
REMARK  Name = Curcumin.pdbqt.pdb
REMARK  8 active torsions:
REMARK  status: ('A' for Active; 'I' for Inactive)
REMARK    1  A    between atoms: C_2  and  C_4
REMARK    2  A    between atoms: C_5  and  C_6
REMARK    3  A    between atoms: C_8  and  O_12
REMARK    4  A    between atoms: C_9  and  O_14
REMARK    5  A    between atoms: C_16  and  C_18
REMARK    6  A    between atoms: C_19  and  C_20
REMARK    7  A    between atoms: C_22  and  O_26
REMARK    8  A    between atoms: C_23  and  O_28
REMARK                            x       y       z     vdW  Elec       q    Type
REMARK                         _______ _______ _______ _____ _____    ______ ____
ROOT
ATOM      1  C   UNL     1      -4.522  -0.814   0.638  0.00  0.00    +0.000 C 
ATOM      2  C   UNL     1      -3.119  -1.004   0.481  0.00  0.00    +0.000 C 
ATOM      3  O   UNL     1      -2.703  -1.998  -0.096  0.00  0.00    +0.000 OA
ATOM      4  C   UNL     1      -5.926  -0.627   0.797  0.00  0.00    +0.000 C 
ATOM      5  O   UNL     1      -6.342   0.173   1.622  0.00  0.00    +0.000 OA
ENDROOT
BRANCH   2   6
ATOM      6  C   UNL     1      -2.200  -0.024   1.002  0.00  0.00    +0.000 C 
ATOM      7  C   UNL     1      -1.436   0.795   1.436  0.00  0.00    +0.000 C 
BRANCH   7   8
ATOM      8  C   UNL     1      -0.528   1.766   1.953  0.00  0.00    +0.000 A 
ATOM      9  C   UNL     1       0.536   2.209   1.170  0.00  0.00    +0.000 A 
ATOM     10  C   UNL     1       1.436   3.161   1.661  0.00  0.00    +0.000 A 
ATOM     11  C   UNL     1       1.247   3.660   2.954  0.00  0.00    +0.000 A 
ATOM     12  C   UNL     1       0.183   3.218   3.739  0.00  0.00    +0.000 A 
ATOM     13  C   UNL     1      -0.705   2.270   3.238  0.00  0.00    +0.000 A 
BRANCH  10  14
ATOM     14  O   UNL     1       2.504   3.645   0.948  0.00  0.00    +0.000 OA
ATOM     15  C   UNL     1       3.627   2.812   0.880  0.00  0.00    +0.000 C 
ENDBRANCH  10  14
BRANCH  11  16
ATOM     16  O   UNL     1       2.073   4.591   3.519  0.00  0.00    +0.000 OA
ATOM     17  H   UNL     1       2.360   5.242   2.857  0.00  0.00    +0.000 HD
ENDBRANCH  11  16
ENDBRANCH   7   8
ENDBRANCH   2   6
BRANCH   4  18
ATOM     18  C   UNL     1      -6.845  -1.382  -0.017  0.00  0.00    +0.000 C 
ATOM     19  C   UNL     1      -7.608  -2.012  -0.699  0.00  0.00    +0.000 C 
BRANCH  19  20
ATOM     20  C   UNL     1      -8.511  -2.760  -1.509  0.00  0.00    +0.000 A 
ATOM     21  C   UNL     1      -8.567  -2.525  -2.883  0.00  0.00    +0.000 A 
ATOM     22  C   UNL     1      -9.446  -3.250  -3.692  0.00  0.00    +0.000 A 
ATOM     23  C   UNL     1     -10.266  -4.213  -3.098  0.00  0.00    +0.000 A 
ATOM     24  C   UNL     1     -10.214  -4.452  -1.725  0.00  0.00    +0.000 A 
ATOM     25  C   UNL     1      -9.334  -3.723  -0.931  0.00  0.00    +0.000 A 
BRANCH  22  26
ATOM     26  O   UNL     1      -9.565  -3.082  -5.051  0.00  0.00    +0.000 OA
ATOM     27  C   UNL     1      -8.579  -2.284  -5.650  0.00  0.00    +0.000 C 
ENDBRANCH  22  26
BRANCH  23  28
ATOM     28  O   UNL     1     -11.134  -4.933  -3.873  0.00  0.00    +0.000 OA
ATOM     29  H   UNL     1     -12.045  -4.679  -3.640  0.00  0.00    +0.000 HD
ENDBRANCH  23  28
ENDBRANCH  19  20
ENDBRANCH   4  18
TORSDOF 8
ENDMDL
MODEL 2
REMARK VINA RESULT:      -6.6      3.960      7.558
REMARK  Name = Curcumin.pdbqt.pdb
REMARK  8 active torsions:
REMARK  status: ('A' for Active; 'I' for Inactive)
REMARK    1  A    between atoms: C_2  and  C_4
REMARK    2  A    between atoms: C_5  and  C_6
REMARK    3  A    between atoms: C_8  and  O_12
REMARK    4  A    between atoms: C_9  and  O_14
REMARK    5  A    between atoms: C_16  and  C_18
REMARK    6  A    between atoms: C_19  and  C_20
REMARK    7  A    between atoms: C_22  and  O_26
REMARK    8  A    between atoms: C_23  and  O_28
REMARK                            x       y       z     vdW  Elec       q    Type
REMARK                         _______ _______ _______ _____ _____    ______ ____
ROOT
ATOM      1  C   UNL     1       2.080   1.908   0.914  0.00  0.00    +0.000 C 
ATOM      2  C   UNL     1       3.308   1.226   1.157  0.00  0.00    +0.000 C 
ATOM      3  O   UNL     1       3.289   0.087   1.599  0.00  0.00    +0.000 OA
ATOM      4  C   UNL     1       0.853   2.591   0.675  0.00  0.00    +0.000 C 
ATOM      5  O   UNL     1       0.850   3.806   0.537  0.00  0.00    +0.000 OA
ENDROOT
BRANCH   2   6
ATOM      6  C   UNL     1       4.560   1.882   0.878  0.00  0.00    +0.000 C 
ATOM      7  C   UNL     1       5.605   2.428   0.647  0.00  0.00    +0.000 C 
BRANCH   7   8
ATOM      8  C   UNL     1       6.846   3.075   0.371  0.00  0.00    +0.000 A 
ATOM      9  C   UNL     1       6.883   4.169  -0.490  0.00  0.00    +0.000 A 
ATOM     10  C   UNL     1       8.090   4.816  -0.772  0.00  0.00    +0.000 A 
ATOM     11  C   UNL     1       9.261   4.342  -0.172  0.00  0.00    +0.000 A 
ATOM     12  C   UNL     1       9.228   3.246   0.689  0.00  0.00    +0.000 A 
ATOM     13  C   UNL     1       8.018   2.612   0.961  0.00  0.00    +0.000 A 
BRANCH  10  14
ATOM     14  O   UNL     1       8.203   5.899  -1.607  0.00  0.00    +0.000 OA
ATOM     15  C   UNL     1       8.227   5.620  -2.978  0.00  0.00    +0.000 C 
ENDBRANCH  10  14
BRANCH  11  16
ATOM     16  O   UNL     1      10.487   4.908  -0.387  0.00  0.00    +0.000 OA
ATOM     17  H   UNL     1      10.427   5.878  -0.361  0.00  0.00    +0.000 HD
ENDBRANCH  11  16
ENDBRANCH   7   8
ENDBRANCH   2   6
BRANCH   4  18
ATOM     18  C   UNL     1      -0.377   1.845   0.596  0.00  0.00    +0.000 C 
ATOM     19  C   UNL     1      -1.405   1.225   0.528  0.00  0.00    +0.000 C 
BRANCH  19  20
ATOM     20  C   UNL     1      -2.625   0.493   0.445  0.00  0.00    +0.000 A 
ATOM     21  C   UNL     1      -3.842   1.151   0.621  0.00  0.00    +0.000 A 
ATOM     22  C   UNL     1      -5.048   0.448   0.543  0.00  0.00    +0.000 A 
ATOM     23  C   UNL     1      -5.008  -0.925   0.284  0.00  0.00    +0.000 A 
ATOM     24  C   UNL     1      -3.794  -1.587   0.108  0.00  0.00    +0.000 A 
ATOM     25  C   UNL     1      -2.601  -0.876   0.189  0.00  0.00    +0.000 A 
BRANCH  22  26
ATOM     26  O   UNL     1      -6.288   1.017   0.703  0.00  0.00    +0.000 OA
ATOM     27  C   UNL     1      -6.637   1.345   2.023  0.00  0.00    +0.000 C 
ENDBRANCH  22  26
BRANCH  23  28
ATOM     28  O   UNL     1      -6.177  -1.631   0.204  0.00  0.00    +0.000 OA
ATOM     29  H   UNL     1      -6.348  -1.847  -0.730  0.00  0.00    +0.000 HD
ENDBRANCH  23  28
ENDBRANCH  19  20
ENDBRANCH   4  18
TORSDOF 8
ENDMDL
MODEL 3
REMARK VINA RESULT:      -6.6      3.955     12.988
REMARK  Name = Curcumin.pdbqt.pdb
REMARK  8 active torsions:
REMARK  status: ('A' for Active; 'I' for Inactive)
REMARK    1  A    between atoms: C_2  and  C_4
REMARK    2  A    between atoms: C_5  and  C_6
REMARK    3  A    between atoms: C_8  and  O_12
REMARK    4  A    between atoms: C_9  and  O_14
REMARK    5  A    between atoms: C_16  and  C_18
REMARK    6  A    between atoms: C_19  and  C_20
REMARK    7  A    between atoms: C_22  and  O_26
REMARK    8  A    between atoms: C_23  and  O_28
REMARK                            x       y       z     vdW  Elec       q    Type
REMARK                         _______ _______ _______ _____ _____    ______ ____
ROOT
ATOM      1  C   UNL     1       2.174   3.100   0.691  0.00  0.00    +0.000 C 
ATOM      2  C   UNL     1       0.823   3.206   0.251  0.00  0.00    +0.000 C 
ATOM      3  O   UNL     1       0.523   4.051  -0.580  0.00  0.00    +0.000 OA
ATOM      4  C   UNL     1       3.525   2.997   1.134  0.00  0.00    +0.000 C 
ATOM      5  O   UNL     1       3.782   2.391   2.165  0.00  0.00    +0.000 OA
ENDROOT
BRANCH   2   6
ATOM      6  C   UNL     1      -0.177   2.317   0.784  0.00  0.00    +0.000 C 
ATOM      7  C   UNL     1      -1.011   1.576   1.230  0.00  0.00    +0.000 C 
BRANCH   7   8
ATOM      8  C   UNL     1      -2.003   0.698   1.758  0.00  0.00    +0.000 A 
ATOM      9  C   UNL     1      -2.959   0.140   0.912  0.00  0.00    +0.000 A 
ATOM     10  C   UNL     1      -3.939  -0.724   1.412  0.00  0.00    +0.000 A 
ATOM     11  C   UNL     1      -3.940  -1.017   2.780  0.00  0.00    +0.000 A 
ATOM     12  C   UNL     1      -2.984  -0.460   3.629  0.00  0.00    +0.000 A 
ATOM     13  C   UNL     1      -2.015   0.398   3.117  0.00  0.00    +0.000 A 
BRANCH  10  14
ATOM     14  O   UNL     1      -4.910  -1.310   0.641  0.00  0.00    +0.000 OA
ATOM     15  C   UNL     1      -6.031  -0.522   0.358  0.00  0.00    +0.000 C 
ENDBRANCH  10  14
BRANCH  11  16
ATOM     16  O   UNL     1      -4.857  -1.849   3.360  0.00  0.00    +0.000 OA
ATOM     17  H   UNL     1      -4.521  -2.760   3.392  0.00  0.00    +0.000 HD
ENDBRANCH  11  16
ENDBRANCH   7   8
ENDBRANCH   2   6
BRANCH   4  18
ATOM     18  C   UNL     1       4.579   3.607   0.364  0.00  0.00    +0.000 C 
ATOM     19  C   UNL     1       5.459   4.113  -0.280  0.00  0.00    +0.000 C 
BRANCH  19  20
ATOM     20  C   UNL     1       6.504   4.708  -1.044  0.00  0.00    +0.000 A 
ATOM     21  C   UNL     1       6.720   4.300  -2.360  0.00  0.00    +0.000 A 
ATOM     22  C   UNL     1       7.740   4.875  -3.124  0.00  0.00    +0.000 A 
ATOM     23  C   UNL     1       8.537   5.865  -2.542  0.00  0.00    +0.000 A 
ATOM     24  C   UNL     1       8.325   6.276  -1.227  0.00  0.00    +0.000 A 
ATOM     25  C   UNL     1       7.306   5.696  -0.478  0.00  0.00    +0.000 A 
BRANCH  22  26
ATOM     26  O   UNL     1       8.021   4.532  -4.424  0.00  0.00    +0.000 OA
ATOM     27  C   UNL     1       7.291   3.447  -4.935  0.00  0.00    +0.000 C 
ENDBRANCH  22  26
BRANCH  23  28
ATOM     28  O   UNL     1       9.541   6.439  -3.273  0.00  0.00    +0.000 OA
ATOM     29  H   UNL     1       9.481   7.407  -3.179  0.00  0.00    +0.000 HD
ENDBRANCH  23  28
ENDBRANCH  19  20
ENDBRANCH   4  18
TORSDOF 8
ENDMDL
MODEL 4
REMARK VINA RESULT:      -6.5      1.973      2.572
REMARK  Name = Curcumin.pdbqt.pdb
REMARK  8 active torsions:
REMARK  status: ('A' for Active; 'I' for Inactive)
REMARK    1  A    between atoms: C_2  and  C_4
REMARK    2  A    between atoms: C_5  and  C_6
REMARK    3  A    between atoms: C_8  and  O_12
REMARK    4  A    between atoms: C_9  and  O_14
REMARK    5  A    between atoms: C_16  and  C_18
REMARK    6  A    between atoms: C_19  and  C_20
REMARK    7  A    between atoms: C_22  and  O_26
REMARK    8  A    between atoms: C_23  and  O_28
REMARK                            x       y       z     vdW  Elec       q    Type
REMARK                         _______ _______ _______ _____ _____    ______ ____
ROOT
ATOM      1  C   UNL     1      -4.390   0.408   0.619  0.00  0.00    +0.000 C 
ATOM      2  C   UNL     1      -3.156  -0.299   0.702  0.00  0.00    +0.000 C 
ATOM      3  O   UNL     1      -3.162  -1.516   0.813  0.00  0.00    +0.000 OA
ATOM      4  C   UNL     1      -5.626   1.114   0.540  0.00  0.00    +0.000 C 
ATOM      5  O   UNL     1      -5.650   2.320   0.742  0.00  0.00    +0.000 OA
ENDROOT
BRANCH   2   6
ATOM      6  C   UNL     1      -1.911   0.424   0.652  0.00  0.00    +0.000 C 
ATOM      7  C   UNL     1      -0.873   1.027   0.608  0.00  0.00    +0.000 C 
BRANCH   7   8
ATOM      8  C   UNL     1       0.359   1.745   0.557  0.00  0.00    +0.000 A 
ATOM      9  C   UNL     1       1.528   1.153   1.029  0.00  0.00    +0.000 A 
ATOM     10  C   UNL     1       2.745   1.841   0.986  0.00  0.00    +0.000 A 
ATOM     11  C   UNL     1       2.765   3.136   0.460  0.00  0.00    +0.000 A 
ATOM     12  C   UNL     1       1.596   3.731  -0.013  0.00  0.00    +0.000 A 
ATOM     13  C   UNL     1       0.392   3.035   0.035  0.00  0.00    +0.000 A 
BRANCH  10  14
ATOM     14  O   UNL     1       3.935   1.323   1.432  0.00  0.00    +0.000 OA
ATOM     15  C   UNL     1       4.149   1.369   2.814  0.00  0.00    +0.000 C 
ENDBRANCH  10  14
BRANCH  11  16
ATOM     16  O   UNL     1       3.905   3.887   0.377  0.00  0.00    +0.000 OA
ATOM     17  H   UNL     1       4.266   4.063   1.263  0.00  0.00    +0.000 HD
ENDBRANCH  11  16
ENDBRANCH   7   8
ENDBRANCH   2   6
BRANCH   4  18
ATOM     18  C   UNL     1      -6.837   0.403   0.222  0.00  0.00    +0.000 C 
ATOM     19  C   UNL     1      -7.847  -0.191  -0.047  0.00  0.00    +0.000 C 
BRANCH  19  20
ATOM     20  C   UNL     1      -9.044  -0.894  -0.370  0.00  0.00    +0.000 A 
ATOM     21  C   UNL     1      -8.974  -2.108  -1.052  0.00  0.00    +0.000 A 
ATOM     22  C   UNL     1     -10.138  -2.810  -1.377  0.00  0.00    +0.000 A 
ATOM     23  C   UNL     1     -11.372  -2.271  -1.004  0.00  0.00    +0.000 A 
ATOM     24  C   UNL     1     -11.449  -1.057  -0.322  0.00  0.00    +0.000 A 
ATOM     25  C   UNL     1     -10.282  -0.368  -0.005  0.00  0.00    +0.000 A 
BRANCH  22  26
ATOM     26  O   UNL     1     -10.158  -4.010  -2.045  0.00  0.00    +0.000 OA
ATOM     27  C   UNL     1      -9.872  -3.943  -3.418  0.00  0.00    +0.000 C 
ENDBRANCH  22  26
BRANCH  23  28
ATOM     28  O   UNL     1     -12.523  -2.943  -1.312  0.00  0.00    +0.000 OA
ATOM     29  H   UNL     1     -13.204  -2.713  -0.654  0.00  0.00    +0.000 HD
ENDBRANCH  23  28
ENDBRANCH  19  20
ENDBRANCH   4  18
TORSDOF 8
ENDMDL
MODEL 5
REMARK VINA RESULT:      -6.5      4.992      8.889
REMARK  Name = Curcumin.pdbqt.pdb
REMARK  8 active torsions:
REMARK  status: ('A' for Active; 'I' for Inactive)
REMARK    1  A    between atoms: C_2  and  C_4
REMARK    2  A    between atoms: C_5  and  C_6
REMARK    3  A    between atoms: C_8  and  O_12
REMARK    4  A    between atoms: C_9  and  O_14
REMARK    5  A    between atoms: C_16  and  C_18
REMARK    6  A    between atoms: C_19  and  C_20
REMARK    7  A    between atoms: C_22  and  O_26
REMARK    8  A    between atoms: C_23  and  O_28
REMARK                            x       y       z     vdW  Elec       q    Type
REMARK                         _______ _______ _______ _____ _____    ______ ____
ROOT
ATOM      1  C   UNL     1       2.304   3.085   0.718  0.00  0.00    +0.000 C 
ATOM      2  C   UNL     1       3.643   2.955   1.187  0.00  0.00    +0.000 C 
ATOM      3  O   UNL     1       3.871   2.299   2.193  0.00  0.00    +0.000 OA
ATOM      4  C   UNL     1       0.964   3.219   0.253  0.00  0.00    +0.000 C 
ATOM      5  O   UNL     1       0.683   4.103  -0.544  0.00  0.00    +0.000 OA
ENDROOT
BRANCH   2   6
ATOM      6  C   UNL     1       4.719   3.592   0.471  0.00  0.00    +0.000 C 
ATOM      7  C   UNL     1       5.615   4.124  -0.127  0.00  0.00    +0.000 C 
BRANCH   7   8
ATOM      8  C   UNL     1       6.678   4.757  -0.837  0.00  0.00    +0.000 A 
ATOM      9  C   UNL     1       7.634   5.496  -0.142  0.00  0.00    +0.000 A 
ATOM     10  C   UNL     1       8.684   6.123  -0.821  0.00  0.00    +0.000 A 
ATOM     11  C   UNL     1       8.755   5.995  -2.211  0.00  0.00    +0.000 A 
ATOM     12  C   UNL     1       7.800   5.256  -2.909  0.00  0.00    +0.000 A 
ATOM     13  C   UNL     1       6.760   4.637  -2.221  0.00  0.00    +0.000 A 
BRANCH  10  14
ATOM     14  O   UNL     1       9.660   6.864  -0.205  0.00  0.00    +0.000 OA
ATOM     15  C   UNL     1       9.217   7.849   0.686  0.00  0.00    +0.000 C 
ENDBRANCH  10  14
BRANCH  11  16
ATOM     16  O   UNL     1       9.743   6.571  -2.961  0.00  0.00    +0.000 OA
ATOM     17  H   UNL     1       9.558   6.470  -3.910  0.00  0.00    +0.000 HD
ENDBRANCH  11  16
ENDBRANCH   7   8
ENDBRANCH   2   6
BRANCH   4  18
ATOM     18  C   UNL     1      -0.051   2.311   0.724  0.00  0.00    +0.000 C 
ATOM     19  C   UNL     1      -0.900   1.555   1.114  0.00  0.00    +0.000 C 
BRANCH  19  20
ATOM     20  C   UNL     1      -1.910   0.662   1.575  0.00  0.00    +0.000 A 
ATOM     21  C   UNL     1      -2.123   0.503   2.944  0.00  0.00    +0.000 A 
ATOM     22  C   UNL     1      -3.109  -0.370   3.413  0.00  0.00    +0.000 A 
ATOM     23  C   UNL     1      -3.877  -1.077   2.484  0.00  0.00    +0.000 A 
ATOM     24  C   UNL     1      -3.668  -0.922   1.114  0.00  0.00    +0.000 A 
ATOM     25  C   UNL     1      -2.682  -0.050   0.661  0.00  0.00    +0.000 A 
BRANCH  22  26
ATOM     26  O   UNL     1      -3.384  -0.585   4.742  0.00  0.00    +0.000 OA
ATOM     27  C   UNL     1      -2.278  -0.907   5.544  0.00  0.00    +0.000 C 
ENDBRANCH  22  26
BRANCH  23  28
ATOM     28  O   UNL     1      -4.847  -1.936   2.923  0.00  0.00    +0.000 OA
ATOM     29  H   UNL     1      -4.966  -2.638   2.258  0.00  0.00    +0.000 HD
ENDBRANCH  23  28
ENDBRANCH  19  20
ENDBRANCH   4  18
TORSDOF 8
ENDMDL
MODEL 6
REMARK VINA RESULT:      -6.4      1.107      2.603
REMARK  Name = Curcumin.pdbqt.pdb
REMARK  8 active torsions:
REMARK  status: ('A' for Active; 'I' for Inactive)
REMARK    1  A    between atoms: C_2  and  C_4
REMARK    2  A    between atoms: C_5  and  C_6
REMARK    3  A    between atoms: C_8  and  O_12
REMARK    4  A    between atoms: C_9  and  O_14
REMARK    5  A    between atoms: C_16  and  C_18
REMARK    6  A    between atoms: C_19  and  C_20
REMARK    7  A    between atoms: C_22  and  O_26
REMARK    8  A    between atoms: C_23  and  O_28
REMARK                            x       y       z     vdW  Elec       q    Type
REMARK                         _______ _______ _______ _____ _____    ______ ____
ROOT
ATOM      1  C   UNL     1      -4.300  -0.687   0.722  0.00  0.00    +0.000 C 
ATOM      2  C   UNL     1      -2.914  -0.702   0.392  0.00  0.00    +0.000 C 
ATOM      3  O   UNL     1      -2.484  -1.550  -0.376  0.00  0.00    +0.000 OA
ATOM      4  C   UNL     1      -5.686  -0.674   1.054  0.00  0.00    +0.000 C 
ATOM      5  O   UNL     1      -6.070  -0.054   2.035  0.00  0.00    +0.000 OA
ENDROOT
BRANCH   2   6
ATOM      6  C   UNL     1      -2.030   0.281   0.964  0.00  0.00    +0.000 C 
ATOM      7  C   UNL     1      -1.295   1.102   1.441  0.00  0.00    +0.000 C 
BRANCH   7   8
ATOM      8  C   UNL     1      -0.420   2.076   2.009  0.00  0.00    +0.000 A 
ATOM      9  C   UNL     1      -0.426   2.297   3.385  0.00  0.00    +0.000 A 
ATOM     10  C   UNL     1       0.424   3.247   3.959  0.00  0.00    +0.000 A 
ATOM     11  C   UNL     1       1.281   3.972   3.125  0.00  0.00    +0.000 A 
ATOM     12  C   UNL     1       1.289   3.753   1.748  0.00  0.00    +0.000 A 
ATOM     13  C   UNL     1       0.437   2.804   1.190  0.00  0.00    +0.000 A 
BRANCH  10  14
ATOM     14  O   UNL     1       0.475   3.517   5.303  0.00  0.00    +0.000 OA
ATOM     15  C   UNL     1       0.807   2.443   6.136  0.00  0.00    +0.000 C 
ENDBRANCH  10  14
BRANCH  11  16
ATOM     16  O   UNL     1       2.147   4.920   3.594  0.00  0.00    +0.000 OA
ATOM     17  H   UNL     1       3.049   4.751   3.272  0.00  0.00    +0.000 HD
ENDBRANCH  11  16
ENDBRANCH   7   8
ENDBRANCH   2   6
BRANCH   4  18
ATOM     18  C   UNL     1      -6.625  -1.392   0.230  0.00  0.00    +0.000 C 
ATOM     19  C   UNL     1      -7.407  -1.996  -0.456  0.00  0.00    +0.000 C 
BRANCH  19  20
ATOM     20  C   UNL     1      -8.331  -2.714  -1.269  0.00  0.00    +0.000 A 
ATOM     21  C   UNL     1      -9.368  -3.430  -0.673  0.00  0.00    +0.000 A 
ATOM     22  C   UNL     1     -10.283  -4.140  -1.456  0.00  0.00    +0.000 A 
ATOM     23  C   UNL     1     -10.137  -4.116  -2.846  0.00  0.00    +0.000 A 
ATOM     24  C   UNL     1      -9.102  -3.401  -3.446  0.00  0.00    +0.000 A 
ATOM     25  C   UNL     1      -8.198  -2.699  -2.655  0.00  0.00    +0.000 A 
BRANCH  22  26
ATOM     26  O   UNL     1     -11.332  -4.870  -0.952  0.00  0.00    +0.000 OA
ATOM     27  C   UNL     1     -11.146  -5.383   0.342  0.00  0.00    +0.000 C 
ENDBRANCH  22  26
BRANCH  23  28
ATOM     28  O   UNL     1     -11.022  -4.804  -3.630  0.00  0.00    +0.000 OA
ATOM     29  H   UNL     1     -11.819  -4.999  -3.104  0.00  0.00    +0.000 HD
ENDBRANCH  23  28
ENDBRANCH  19  20
ENDBRANCH   4  18
TORSDOF 8
ENDMDL
MODEL 7
REMARK VINA RESULT:      -6.3     18.028     20.452
REMARK  Name = Curcumin.pdbqt.pdb
REMARK  8 active torsions:
REMARK  status: ('A' for Active; 'I' for Inactive)
REMARK    1  A    between atoms: C_2  and  C_4
REMARK    2  A    between atoms: C_5  and  C_6
REMARK    3  A    between atoms: C_8  and  O_12
REMARK    4  A    between atoms: C_9  and  O_14
REMARK    5  A    between atoms: C_16  and  C_18
REMARK    6  A    between atoms: C_19  and  C_20
REMARK    7  A    between atoms: C_22  and  O_26
REMARK    8  A    between atoms: C_23  and  O_28
REMARK                            x       y       z     vdW  Elec       q    Type
REMARK                         _______ _______ _______ _____ _____    ______ ____
ROOT
ATOM      1  C   UNL     1       3.264   1.184 -18.789  0.00  0.00    +0.000 C 
ATOM      2  C   UNL     1       4.324   1.229 -17.837  0.00  0.00    +0.000 C 
ATOM      3  O   UNL     1       4.088   1.007 -16.658  0.00  0.00    +0.000 OA
ATOM      4  C   UNL     1       2.203   1.144 -19.739  0.00  0.00    +0.000 C 
ATOM      5  O   UNL     1       2.353   1.657 -20.839  0.00  0.00    +0.000 OA
ENDROOT
BRANCH   2   6
ATOM      6  C   UNL     1       5.664   1.531 -18.270  0.00  0.00    +0.000 C 
ATOM      7  C   UNL     1       6.783   1.782 -18.628  0.00  0.00    +0.000 C 
BRANCH   7   8
ATOM      8  C   UNL     1       8.111   2.079 -19.056  0.00  0.00    +0.000 A 
ATOM      9  C   UNL     1       9.152   2.093 -18.131  0.00  0.00    +0.000 A 
ATOM     10  C   UNL     1      10.461   2.381 -18.532  0.00  0.00    +0.000 A 
ATOM     11  C   UNL     1      10.703   2.657 -19.881  0.00  0.00    +0.000 A 
ATOM     12  C   UNL     1       9.663   2.644 -20.810  0.00  0.00    +0.000 A 
ATOM     13  C   UNL     1       8.365   2.355 -20.396  0.00  0.00    +0.000 A 
BRANCH  10  14
ATOM     14  O   UNL     1      11.535   2.411 -17.679  0.00  0.00    +0.000 OA
ATOM     15  C   UNL     1      11.828   1.215 -17.015  0.00  0.00    +0.000 C 
ENDBRANCH  10  14
BRANCH  11  16
ATOM     16  O   UNL     1      11.947   2.950 -20.368  0.00  0.00    +0.000 OA
ATOM     17  H   UNL     1      12.025   2.677 -21.297  0.00  0.00    +0.000 HD
ENDBRANCH  11  16
ENDBRANCH   7   8
ENDBRANCH   2   6
BRANCH   4  18
ATOM     18  C   UNL     1       0.962   0.497 -19.398  0.00  0.00    +0.000 C 
ATOM     19  C   UNL     1      -0.072  -0.045 -19.111  0.00  0.00    +0.000 C 
BRANCH  19  20
ATOM     20  C   UNL     1      -1.295  -0.690 -18.768  0.00  0.00    +0.000 A 
ATOM     21  C   UNL     1      -2.184  -0.071 -17.889  0.00  0.00    +0.000 A 
ATOM     22  C   UNL     1      -3.388  -0.691 -17.543  0.00  0.00    +0.000 A 
ATOM     23  C   UNL     1      -3.683  -1.940 -18.095  0.00  0.00    +0.000 A 
ATOM     24  C   UNL     1      -2.798  -2.563 -18.974  0.00  0.00    +0.000 A 
ATOM     25  C   UNL     1      -1.603  -1.936 -19.310  0.00  0.00    +0.000 A 
BRANCH  22  26
ATOM     26  O   UNL     1      -4.318  -0.152 -16.687  0.00  0.00    +0.000 OA
ATOM     27  C   UNL     1      -4.264  -0.618 -15.364  0.00  0.00    +0.000 C 
ENDBRANCH  22  26
BRANCH  23  28
ATOM     28  O   UNL     1      -4.857  -2.563 -17.768  0.00  0.00    +0.000 OA
ATOM     29  H   UNL     1      -5.308  -2.038 -17.082  0.00  0.00    +0.000 HD
ENDBRANCH  23  28
ENDBRANCH  19  20
ENDBRANCH   4  18
TORSDOF 8
ENDMDL
MODEL 8
REMARK VINA RESULT:      -6.3     18.027     23.113
REMARK  Name = Curcumin.pdbqt.pdb
REMARK  8 active torsions:
REMARK  status: ('A' for Active; 'I' for Inactive)
REMARK    1  A    between atoms: C_2  and  C_4
REMARK    2  A    between atoms: C_5  and  C_6
REMARK    3  A    between atoms: C_8  and  O_12
REMARK    4  A    between atoms: C_9  and  O_14
REMARK    5  A    between atoms: C_16  and  C_18
REMARK    6  A    between atoms: C_19  and  C_20
REMARK    7  A    between atoms: C_22  and  O_26
REMARK    8  A    between atoms: C_23  and  O_28
REMARK                            x       y       z     vdW  Elec       q    Type
REMARK                         _______ _______ _______ _____ _____    ______ ____
ROOT
ATOM      1  C   UNL     1       3.298   1.134 -18.789  0.00  0.00    +0.000 C 
ATOM      2  C   UNL     1       2.261   1.034 -19.760  0.00  0.00    +0.000 C 
ATOM      3  O   UNL     1       2.434   1.491 -20.880  0.00  0.00    +0.000 OA
ATOM      4  C   UNL     1       4.336   1.238 -17.818  0.00  0.00    +0.000 C 
ATOM      5  O   UNL     1       4.077   1.077 -16.634  0.00  0.00    +0.000 OA
ENDROOT
BRANCH   2   6
ATOM      6  C   UNL     1       1.017   0.392 -19.417  0.00  0.00    +0.000 C 
ATOM      7  C   UNL     1      -0.020  -0.144 -19.133  0.00  0.00    +0.000 C 
BRANCH   7   8
ATOM      8  C   UNL     1      -1.250  -0.781 -18.793  0.00  0.00    +0.000 A 
ATOM      9  C   UNL     1      -2.160  -0.135 -17.958  0.00  0.00    +0.000 A 
ATOM     10  C   UNL     1      -3.371  -0.745 -17.615  0.00  0.00    +0.000 A 
ATOM     11  C   UNL     1      -3.651  -2.016 -18.125  0.00  0.00    +0.000 A 
ATOM     12  C   UNL     1      -2.742  -2.665 -18.960  0.00  0.00    +0.000 A 
ATOM     13  C   UNL     1      -1.540  -2.046 -19.294  0.00  0.00    +0.000 A 
BRANCH  10  14
ATOM     14  O   UNL     1      -4.314  -0.170 -16.801  0.00  0.00    +0.000 OA
ATOM     15  C   UNL     1      -4.241  -0.502 -15.444  0.00  0.00    +0.000 C 
ENDBRANCH  10  14
BRANCH  11  16
ATOM     16  O   UNL     1      -4.807  -2.691 -17.846  0.00  0.00    +0.000 OA
ATOM     17  H   UNL     1      -4.630  -3.450 -17.265  0.00  0.00    +0.000 HD
ENDBRANCH  11  16
ENDBRANCH   7   8
ENDBRANCH   2   6
BRANCH   4  18
ATOM     18  C   UNL     1       5.682   1.533 -18.238  0.00  0.00    +0.000 C 
ATOM     19  C   UNL     1       6.806   1.782 -18.584  0.00  0.00    +0.000 C 
BRANCH  19  20
ATOM     20  C   UNL     1       8.138   2.079 -18.993  0.00  0.00    +0.000 A 
ATOM     21  C   UNL     1       9.163   2.110 -18.048  0.00  0.00    +0.000 A 
ATOM     22  C   UNL     1      10.476   2.400 -18.433  0.00  0.00    +0.000 A 
ATOM     23  C   UNL     1      10.739   2.657 -19.781  0.00  0.00    +0.000 A 
ATOM     24  C   UNL     1       9.717   2.628 -20.729  0.00  0.00    +0.000 A 
ATOM     25  C   UNL     1       8.415   2.338 -20.333  0.00  0.00    +0.000 A 
BRANCH  22  26
ATOM     26  O   UNL     1      11.543   2.450 -17.568  0.00  0.00    +0.000 OA
ATOM     27  C   UNL     1      12.120   1.212 -17.247  0.00  0.00    +0.000 C 
ENDBRANCH  22  26
BRANCH  23  28
ATOM     28  O   UNL     1      12.016   2.943 -20.177  0.00  0.00    +0.000 OA
ATOM     29  H   UNL     1      12.620   2.776 -19.430  0.00  0.00    +0.000 HD
ENDBRANCH  23  28
ENDBRANCH  19  20
ENDBRANCH   4  18
TORSDOF 8
ENDMDL
MODEL 9
REMARK VINA RESULT:      -6.1     18.053     23.137
REMARK  Name = Curcumin.pdbqt.pdb
REMARK  8 active torsions:
REMARK  status: ('A' for Active; 'I' for Inactive)
REMARK    1  A    between atoms: C_2  and  C_4
REMARK    2  A    between atoms: C_5  and  C_6
REMARK    3  A    between atoms: C_8  and  O_12
REMARK    4  A    between atoms: C_9  and  O_14
REMARK    5  A    between atoms: C_16  and  C_18
REMARK    6  A    between atoms: C_19  and  C_20
REMARK    7  A    between atoms: C_22  and  O_26
REMARK    8  A    between atoms: C_23  and  O_28
REMARK                            x       y       z     vdW  Elec       q    Type
REMARK                         _______ _______ _______ _____ _____    ______ ____
ROOT
ATOM      1  C   UNL     1       3.664   0.072 -19.055  0.00  0.00    +0.000 C 
ATOM      2  C   UNL     1       2.712  -0.580 -18.219  0.00  0.00    +0.000 C 
ATOM      3  O   UNL     1       3.097  -1.259 -17.278  0.00  0.00    +0.000 OA
ATOM      4  C   UNL     1       4.618   0.719 -19.893  0.00  0.00    +0.000 C 
ATOM      5  O   UNL     1       4.278   1.131 -20.994  0.00  0.00    +0.000 OA
ENDROOT
BRANCH   2   6
ATOM      6  C   UNL     1       1.304  -0.432 -18.485  0.00  0.00    +0.000 C 
ATOM      7  C   UNL     1       0.130  -0.309 -18.709  0.00  0.00    +0.000 C 
BRANCH   7   8
ATOM      8  C   UNL     1      -1.264  -0.165 -18.973  0.00  0.00    +0.000 A 
ATOM      9  C   UNL     1      -2.189  -0.928 -18.263  0.00  0.00    +0.000 A 
ATOM     10  C   UNL     1      -3.559  -0.800 -18.509  0.00  0.00    +0.000 A 
ATOM     11  C   UNL     1      -3.984   0.110 -19.482  0.00  0.00    +0.000 A 
ATOM     12  C   UNL     1      -3.061   0.875 -20.194  0.00  0.00    +0.000 A 
ATOM     13  C   UNL     1      -1.700   0.737 -19.940  0.00  0.00    +0.000 A 
BRANCH  10  14
ATOM     14  O   UNL     1      -4.526  -1.516 -17.849  0.00  0.00    +0.000 OA
ATOM     15  C   UNL     1      -4.570  -1.358 -16.459  0.00  0.00    +0.000 C 
ENDBRANCH  10  14
BRANCH  11  16
ATOM     16  O   UNL     1      -5.302   0.304 -19.792  0.00  0.00    +0.000 OA
ATOM     17  H   UNL     1      -5.421   1.140 -20.275  0.00  0.00    +0.000 HD
ENDBRANCH  11  16
ENDBRANCH   7   8
ENDBRANCH   2   6
BRANCH   4  18
ATOM     18  C   UNL     1       5.975   0.885 -19.438  0.00  0.00    +0.000 C 
ATOM     19  C   UNL     1       7.108   1.021 -19.062  0.00  0.00    +0.000 C 
BRANCH  19  20
ATOM     20  C   UNL     1       8.453   1.180 -18.619  0.00  0.00    +0.000 A 
ATOM     21  C   UNL     1       9.316   0.085 -18.613  0.00  0.00    +0.000 A 
ATOM     22  C   UNL     1      10.638   0.223 -18.181  0.00  0.00    +0.000 A 
ATOM     23  C   UNL     1      11.077   1.481 -17.757  0.00  0.00    +0.000 A 
ATOM     24  C   UNL     1      10.219   2.579 -17.761  0.00  0.00    +0.000 A 
ATOM     25  C   UNL     1       8.904   2.427 -18.193  0.00  0.00    +0.000 A 
BRANCH  22  26
ATOM     26  O   UNL     1      11.552  -0.802 -18.144  0.00  0.00    +0.000 OA
ATOM     27  C   UNL     1      11.349  -1.757 -17.135  0.00  0.00    +0.000 C 
ENDBRANCH  22  26
BRANCH  23  28
ATOM     28  O   UNL     1      12.367   1.637 -17.331  0.00  0.00    +0.000 OA
ATOM     29  H   UNL     1      12.839   0.792 -17.447  0.00  0.00    +0.000 HD
ENDBRANCH  23  28
ENDBRANCH  19  20
ENDBRANCH   4  18
TORSDOF 8
ENDMDL
