MODEL 1
REMARK VINA RESULT:      -9.6      0.000      0.000
REMARK  Name = Cyclosporin_A.pdbqt.pdb
REMARK  4 active torsions:
REMARK  status: ('A' for Active; 'I' for Inactive)
REMARK    1  A    between atoms: N_13  and  C_36
REMARK    2  A    between atoms: C_36  and  O_70
REMARK    3  A    between atoms: C_72  and  C_73
REMARK    4  A    between atoms: C_75  and  C_76
REMARK                            x       y       z     vdW  Elec       q    Type
REMARK                         _______ _______ _______ _____ _____    ______ ____
ROOT
ATOM      1  O   UNL     1       2.242  -1.631 -22.554  0.00  0.00    +0.000 OA
ATOM      2  O   UNL     1       1.461   0.772 -27.018  0.00  0.00    +0.000 OA
ATOM      3  O   UNL     1       4.551   4.413 -26.681  0.00  0.00    +0.000 OA
ATOM      4  O   UNL     1       3.399   1.031 -18.606  0.00  0.00    +0.000 OA
ATOM      5  O   UNL     1       5.203  -0.222 -28.633  0.00  0.00    +0.000 OA
ATOM      6  O   UNL     1      15.225  -0.295 -23.470  0.00  0.00    +0.000 OA
ATOM      7  O   UNL     1       6.094  -3.778 -19.444  0.00  0.00    +0.000 OA
ATOM      8  O   UNL     1      12.640   0.994 -19.479  0.00  0.00    +0.000 OA
ATOM      9  O   UNL     1      13.256   0.378 -27.846  0.00  0.00    +0.000 OA
ATOM     10  O   UNL     1       9.744  -1.609 -18.171  0.00  0.00    +0.000 OA
ATOM     11  O   UNL     1       9.348  -1.419 -28.173  0.00  0.00    +0.000 OA
ATOM     12  N   UNL     1       2.171   0.558 -25.228  0.00  0.00    +0.000 NA
ATOM     13  N   UNL     1       3.232   0.547 -22.313  0.00  0.00    +0.000 NA
ATOM     14  N   UNL     1       3.298   2.935 -27.109  0.00  0.00    +0.000 NA
ATOM     15  N   UNL     1       6.184   2.130 -28.175  0.00  0.00    +0.000 NA
ATOM     16  N   UNL     1       5.065  -0.156 -19.934  0.00  0.00    +0.000 NA
ATOM     17  N   UNL     1      13.842   1.460 -24.214  0.00  0.00    +0.000 N 
ATOM     18  N   UNL     1      12.210   0.549 -21.737  0.00  0.00    +0.000 N 
ATOM     19  N   UNL     1      10.545  -0.828 -19.796  0.00  0.00    +0.000 NA
ATOM     20  N   UNL     1       7.181  -2.220 -20.695  0.00  0.00    +0.000 NA
ATOM     21  N   UNL     1       8.233   0.388 -26.886  0.00  0.00    +0.000 NA
ATOM     22  N   UNL     1      11.653   0.237 -26.045  0.00  0.00    +0.000 NA
ATOM     23  C   UNL     1       2.391  -0.561 -24.480  0.00  0.00    +0.000 C 
ATOM     24  C   UNL     1       3.201   2.233 -25.977  0.00  0.00    +0.000 C 
ATOM     25  C   UNL     1       2.954   0.708 -20.969  0.00  0.00    +0.000 C 
ATOM     26  C   UNL     1       1.767  -1.772 -24.719  0.00  0.00    +0.000 C 
ATOM     27  C   UNL     1       2.898   3.373 -25.083  0.00  0.00    +0.000 C 
ATOM     28  C   UNL     1       2.681  -0.439 -23.137  0.00  0.00    +0.000 C 
ATOM     29  C   UNL     1       2.540   1.141 -26.427  0.00  0.00    +0.000 C 
ATOM     30  C   UNL     1       4.976   2.604 -28.304  0.00  0.00    +0.000 C 
ATOM     31  C   UNL     1       4.608   3.197 -27.134  0.00  0.00    +0.000 C 
ATOM     32  C   UNL     1       3.987   0.753 -19.890  0.00  0.00    +0.000 C 
ATOM     33  C   UNL     1       0.864  -1.389 -25.759  0.00  0.00    +0.000 C 
ATOM     34  C   UNL     1       1.520  -2.324 -23.506  0.00  0.00    +0.000 C 
ATOM     35  C   UNL     1       1.273  -0.096 -26.051  0.00  0.00    +0.000 C 
ATOM     36  C   UNL     1       3.156   4.231 -26.542  0.00  0.00    +0.000 C 
ATOM     37  C   UNL     1       5.066  -1.454 -19.363  0.00  0.00    +0.000 C 
ATOM     38  C   UNL     1      13.421   0.062 -22.156  0.00  0.00    +0.000 A 
ATOM     39  C   UNL     1       5.824   0.867 -27.967  0.00  0.00    +0.000 C 
ATOM     40  C   UNL     1      13.803   1.153 -25.598  0.00  0.00    +0.000 C 
ATOM     41  C   UNL     1      10.707   0.515 -19.727  0.00  0.00    +0.000 C 
ATOM     42  C   UNL     1       6.469   2.545 -29.572  0.00  0.00    +0.000 C 
ATOM     43  C   UNL     1      14.235  -0.963 -21.583  0.00  0.00    +0.000 A 
ATOM     44  C   UNL     1      15.364   1.923 -26.101  0.00  0.00    +0.000 C 
ATOM     45  C   UNL     1       7.059   0.236 -27.418  0.00  0.00    +0.000 C 
ATOM     46  C   UNL     1      11.603   0.720 -18.535  0.00  0.00    +0.000 C 
ATOM     47  C   UNL     1       3.987  -1.677 -18.456  0.00  0.00    +0.000 C 
ATOM     48  C   UNL     1      14.088   0.462 -23.310  0.00  0.00    +0.000 A 
ATOM     49  C   UNL     1       5.979  -2.376 -19.758  0.00  0.00    +0.000 C 
ATOM     50  C   UNL     1      11.859   0.682 -20.477  0.00  0.00    +0.000 C 
ATOM     51  C   UNL     1      12.929   0.550 -26.472  0.00  0.00    +0.000 C 
ATOM     52  C   UNL     1       8.247  -1.468 -20.028  0.00  0.00    +0.000 C 
ATOM     53  C   UNL     1      13.975  -1.815 -20.370  0.00  0.00    +0.000 C 
ATOM     54  C   UNL     1      15.310  -1.149 -22.414  0.00  0.00    +0.000 A 
ATOM     55  C   UNL     1       9.285  -0.881 -19.259  0.00  0.00    +0.000 C 
ATOM     56  C   UNL     1      10.736  -0.323 -26.767  0.00  0.00    +0.000 C 
ATOM     57  C   UNL     1       6.255  -0.636 -28.100  0.00  0.00    +0.000 C 
ATOM     58  C   UNL     1      14.941   1.991 -24.798  0.00  0.00    +0.000 C 
ATOM     59  C   UNL     1       2.999  -1.177 -17.996  0.00  0.00    +0.000 C 
ATOM     60  C   UNL     1       9.281  -0.365 -27.189  0.00  0.00    +0.000 C 
ATOM     61  C   UNL     1      11.136  -1.226 -18.401  0.00  0.00    +0.000 C 
ATOM     62  C   UNL     1       6.995  -3.437 -20.221  0.00  0.00    +0.000 C 
ATOM     63  C   UNL     1      10.498  -1.241 -27.735  0.00  0.00    +0.000 C 
ATOM     64  H   UNL     1       5.469  -0.207 -20.870  0.00  0.00    +0.000 HD
ATOM     65  H   UNL     1      11.478   0.598 -22.441  0.00  0.00    +0.000 HD
ATOM     66  H   UNL     1       8.417   1.268 -26.411  0.00  0.00    +0.000 HD
ATOM     67  H   UNL     1      11.381   0.810 -25.252  0.00  0.00    +0.000 HD
ATOM     68  C   UNL     1       1.781   0.455 -20.458  0.00  0.00    +0.000 C 
ATOM     69  C   UNL     1       1.261   0.134 -19.173  0.00  0.00    +0.000 C 
ATOM     70  C   UNL     1       2.377   0.097 -18.207  0.00  0.00    +0.000 C 
ATOM     71  C   UNL     1       1.587   4.298 -24.611  0.00  0.00    +0.000 C 
ATOM     72  C   UNL     1       1.362   4.798 -23.397  0.00  0.00    +0.000 C 
ATOM     73  C   UNL     1       2.204   4.772 -25.772  0.00  0.00    +0.000 C 
ATOM     74  C   UNL     1       5.181   3.159 -29.649  0.00  0.00    +0.000 C 
ATOM     75  C   UNL     1       5.661   2.616 -30.833  0.00  0.00    +0.000 C 
ATOM     76  C   UNL     1       6.020   3.510 -32.040  0.00  0.00    +0.000 C 
ATOM     77  C   UNL     1       6.633   1.658 -30.620  0.00  0.00    +0.000 C 
ATOM     78  C   UNL     1      11.613   0.843 -16.940  0.00  0.00    +0.000 C 
ATOM     79  C   UNL     1      12.379   1.474 -16.053  0.00  0.00    +0.000 C 
ATOM     80  C   UNL     1      11.380  -0.492 -17.273  0.00  0.00    +0.000 C 
ATOM     81  C   UNL     1      15.496   1.689 -27.409  0.00  0.00    +0.000 C 
ATOM     82  C   UNL     1      16.668   2.181 -28.192  0.00  0.00    +0.000 C 
ATOM     83  C   UNL     1      14.439   0.967 -28.016  0.00  0.00    +0.000 C 
ENDROOT
BRANCH  69  84
ATOM     84  C   UNL     1       0.003  -0.455 -18.906  0.00  0.00    +0.000 C 
ATOM     85  C   UNL     1      -1.069  -0.949 -18.683  0.00  0.00    +0.000 C 
BRANCH  85  86
ATOM     86  C   UNL     1      -2.438  -1.576 -18.400  0.00  0.00    +0.000 C 
ATOM     87  C   UNL     1      -3.626  -2.124 -18.152  0.00  0.00    +0.000 C 
ENDBRANCH  85  86
ENDBRANCH  69  84
BRANCH  13  88
ATOM     88  C   UNL     1       4.377   1.273 -22.839  0.00  0.00    +0.000 C 
BRANCH  88  89
ATOM     89  O   UNL     1       5.431   1.936 -23.296  0.00  0.00    +0.000 OA
ATOM     90  H   UNL     1       6.024   2.167 -22.559  0.00  0.00    +0.000 HD
ENDBRANCH  88  89
ENDBRANCH  13  88
TORSDOF 4
ENDMDL
MODEL 2
REMARK VINA RESULT:      -9.5      7.274     14.846
REMARK  Name = Cyclosporin_A.pdbqt.pdb
REMARK  4 active torsions:
REMARK  status: ('A' for Active; 'I' for Inactive)
REMARK    1  A    between atoms: N_13  and  C_36
REMARK    2  A    between atoms: C_36  and  O_70
REMARK    3  A    between atoms: C_72  and  C_73
REMARK    4  A    between atoms: C_75  and  C_76
REMARK                            x       y       z     vdW  Elec       q    Type
REMARK                         _______ _______ _______ _____ _____    ______ ____
ROOT
ATOM      1  O   UNL     1       1.976  -7.278 -27.404  0.00  0.00    +0.000 OA
ATOM      2  O   UNL     1      -1.611 -10.944 -27.389  0.00  0.00    +0.000 OA
ATOM      3  O   UNL     1      -2.756 -11.125 -22.744  0.00  0.00    +0.000 OA
ATOM      4  O   UNL     1       4.927  -6.842 -23.517  0.00  0.00    +0.000 OA
ATOM      5  O   UNL     1      -4.784  -8.355 -26.478  0.00  0.00    +0.000 OA
ATOM      6  O   UNL     1      -4.887   0.243 -19.187  0.00  0.00    +0.000 OA
ATOM      7  O   UNL     1       2.933  -2.194 -25.866  0.00  0.00    +0.000 OA
ATOM      8  O   UNL     1      -0.153  -0.923 -18.485  0.00  0.00    +0.000 OA
ATOM      9  O   UNL     1      -7.842  -3.063 -21.142  0.00  0.00    +0.000 OA
ATOM     10  O   UNL     1       2.356  -0.708 -21.731  0.00  0.00    +0.000 OA
ATOM     11  O   UNL     1      -6.308  -4.631 -24.857  0.00  0.00    +0.000 OA
ATOM     12  N   UNL     1      -0.359  -9.697 -26.598  0.00  0.00    +0.000 NA
ATOM     13  N   UNL     1       1.726  -7.947 -25.107  0.00  0.00    +0.000 NA
ATOM     14  N   UNL     1      -2.550 -11.154 -24.718  0.00  0.00    +0.000 NA
ATOM     15  N   UNL     1      -4.837  -9.068 -23.989  0.00  0.00    +0.000 NA
ATOM     16  N   UNL     1       2.976  -5.418 -23.861  0.00  0.00    +0.000 NA
ATOM     17  N   UNL     1      -4.903  -2.092 -18.879  0.00  0.00    +0.000 N 
ATOM     18  N   UNL     1      -1.950  -1.719 -19.757  0.00  0.00    +0.000 N 
ATOM     19  N   UNL     1       0.545  -1.254 -21.171  0.00  0.00    +0.000 NA
ATOM     20  N   UNL     1       1.318  -2.923 -24.439  0.00  0.00    +0.000 NA
ATOM     21  N   UNL     1      -4.651  -6.102 -23.738  0.00  0.00    +0.000 NA
ATOM     22  N   UNL     1      -5.501  -3.411 -21.626  0.00  0.00    +0.000 NA
ATOM     23  C   UNL     1       0.201  -8.555 -27.092  0.00  0.00    +0.000 C 
ATOM     24  C   UNL     1      -1.503 -10.361 -24.961  0.00  0.00    +0.000 C 
ATOM     25  C   UNL     1       3.044  -7.764 -24.737  0.00  0.00    +0.000 C 
ATOM     26  C   UNL     1       0.281  -8.270 -28.444  0.00  0.00    +0.000 C 
ATOM     27  C   UNL     1      -0.571 -10.991 -23.999  0.00  0.00    +0.000 C 
ATOM     28  C   UNL     1       1.254  -7.966 -26.424  0.00  0.00    +0.000 C 
ATOM     29  C   UNL     1      -1.592 -10.252 -26.308  0.00  0.00    +0.000 C 
ATOM     30  C   UNL     1      -4.389 -10.234 -24.366  0.00  0.00    +0.000 C 
ATOM     31  C   UNL     1      -3.182 -10.454 -23.771  0.00  0.00    +0.000 C 
ATOM     32  C   UNL     1       3.517  -6.719 -23.779  0.00  0.00    +0.000 C 
ATOM     33  C   UNL     1      -0.218  -9.493 -28.989  0.00  0.00    +0.000 C 
ATOM     34  C   UNL     1       1.470  -7.647 -28.635  0.00  0.00    +0.000 C 
ATOM     35  C   UNL     1      -0.668 -10.164 -27.862  0.00  0.00    +0.000 C 
ATOM     36  C   UNL     1      -1.983 -11.892 -23.644  0.00  0.00    +0.000 C 
ATOM     37  C   UNL     1       3.482  -4.371 -24.672  0.00  0.00    +0.000 C 
ATOM     38  C   UNL     1      -2.885  -0.736 -19.556  0.00  0.00    +0.000 A 
ATOM     39  C   UNL     1      -4.485  -8.413 -25.091  0.00  0.00    +0.000 C 
ATOM     40  C   UNL     1      -6.108  -2.407 -19.556  0.00  0.00    +0.000 C 
ATOM     41  C   UNL     1       0.530  -1.996 -20.038  0.00  0.00    +0.000 C 
ATOM     42  C   UNL     1      -6.207  -9.641 -23.935  0.00  0.00    +0.000 C 
ATOM     43  C   UNL     1      -2.757   0.680 -19.690  0.00  0.00    +0.000 A 
ATOM     44  C   UNL     1      -7.282  -2.038 -18.225  0.00  0.00    +0.000 C 
ATOM     45  C   UNL     1      -4.574  -6.979 -24.691  0.00  0.00    +0.000 C 
ATOM     46  C   UNL     1       1.166  -1.107 -19.004  0.00  0.00    +0.000 C 
ATOM     47  C   UNL     1       4.788  -4.629 -25.186  0.00  0.00    +0.000 C 
ATOM     48  C   UNL     1      -4.217  -0.956 -19.219  0.00  0.00    +0.000 A 
ATOM     49  C   UNL     1       2.708  -3.296 -24.965  0.00  0.00    +0.000 C 
ATOM     50  C   UNL     1      -0.672  -1.596 -19.475  0.00  0.00    +0.000 C 
ATOM     51  C   UNL     1      -6.474  -2.910 -20.782  0.00  0.00    +0.000 C 
ATOM     52  C   UNL     1       1.410  -2.461 -23.051  0.00  0.00    +0.000 C 
ATOM     53  C   UNL     1      -1.561   1.489 -20.117  0.00  0.00    +0.000 C 
ATOM     54  C   UNL     1      -3.993   1.230 -19.465  0.00  0.00    +0.000 A 
ATOM     55  C   UNL     1       1.607  -1.876 -21.774  0.00  0.00    +0.000 C 
ATOM     56  C   UNL     1      -5.712  -3.917 -22.798  0.00  0.00    +0.000 C 
ATOM     57  C   UNL     1      -4.802  -7.192 -26.024  0.00  0.00    +0.000 C 
ATOM     58  C   UNL     1      -5.932  -1.907 -18.021  0.00  0.00    +0.000 C 
ATOM     59  C   UNL     1       5.655  -5.455 -25.237  0.00  0.00    +0.000 C 
ATOM     60  C   UNL     1      -5.407  -5.016 -23.797  0.00  0.00    +0.000 C 
ATOM     61  C   UNL     1       1.503  -0.105 -20.707  0.00  0.00    +0.000 C 
ATOM     62  C   UNL     1       1.825  -2.087 -25.325  0.00  0.00    +0.000 C 
ATOM     63  C   UNL     1      -6.457  -3.821 -23.926  0.00  0.00    +0.000 C 
ATOM     64  H   UNL     1       1.960  -5.445 -23.952  0.00  0.00    +0.000 HD
ATOM     65  H   UNL     1      -2.231  -2.490 -20.356  0.00  0.00    +0.000 HD
ATOM     66  H   UNL     1      -4.318  -6.384 -22.820  0.00  0.00    +0.000 HD
ATOM     67  H   UNL     1      -4.673  -3.686 -21.106  0.00  0.00    +0.000 HD
ATOM     68  C   UNL     1       4.044  -8.207 -25.450  0.00  0.00    +0.000 C 
ATOM     69  C   UNL     1       5.423  -7.892 -25.602  0.00  0.00    +0.000 C 
ATOM     70  C   UNL     1       5.757  -6.777 -24.693  0.00  0.00    +0.000 C 
ATOM     71  C   UNL     1       0.457 -12.308 -23.910  0.00  0.00    +0.000 C 
ATOM     72  C   UNL     1       1.636 -12.356 -23.291  0.00  0.00    +0.000 C 
ATOM     73  C   UNL     1      -0.858 -12.613 -23.548  0.00  0.00    +0.000 C 
ATOM     74  C   UNL     1      -5.675 -10.933 -24.235  0.00  0.00    +0.000 C 
ATOM     75  C   UNL     1      -6.946 -10.675 -24.731  0.00  0.00    +0.000 C 
ATOM     76  C   UNL     1      -8.181 -11.443 -24.213  0.00  0.00    +0.000 C 
ATOM     77  C   UNL     1      -7.209  -9.323 -24.833  0.00  0.00    +0.000 C 
ATOM     78  C   UNL     1       2.572  -0.616 -18.419  0.00  0.00    +0.000 C 
ATOM     79  C   UNL     1       3.000  -0.201 -17.230  0.00  0.00    +0.000 C 
ATOM     80  C   UNL     1       2.387  -0.021 -19.667  0.00  0.00    +0.000 C 
ATOM     81  C   UNL     1      -8.500  -2.259 -18.724  0.00  0.00    +0.000 C 
ATOM     82  C   UNL     1      -9.739  -2.070 -17.914  0.00  0.00    +0.000 C 
ATOM     83  C   UNL     1      -8.545  -2.713 -20.065  0.00  0.00    +0.000 C 
ENDROOT
BRANCH  69  84
ATOM     84  C   UNL     1       6.246  -8.258 -26.693  0.00  0.00    +0.000 C 
ATOM     85  C   UNL     1       6.943  -8.562 -27.622  0.00  0.00    +0.000 C 
BRANCH  85  86
ATOM     86  C   UNL     1       7.831  -8.946 -28.811  0.00  0.00    +0.000 C 
ATOM     87  C   UNL     1       8.605  -9.275 -29.843  0.00  0.00    +0.000 C 
ENDBRANCH  85  86
ENDBRANCH  69  84
BRANCH  13  88
ATOM     88  C   UNL     1       0.726  -7.838 -24.057  0.00  0.00    +0.000 C 
BRANCH  88  89
ATOM     89  O   UNL     1      -0.181  -7.713 -23.098  0.00  0.00    +0.000 OA
ATOM     90  H   UNL     1       0.184  -8.029 -22.252  0.00  0.00    +0.000 HD
ENDBRANCH  88  89
ENDBRANCH  13  88
TORSDOF 4
ENDMDL
MODEL 3
REMARK VINA RESULT:      -9.2     23.005     29.201
REMARK  Name = Cyclosporin_A.pdbqt.pdb
REMARK  4 active torsions:
REMARK  status: ('A' for Active; 'I' for Inactive)
REMARK    1  A    between atoms: N_13  and  C_36
REMARK    2  A    between atoms: C_36  and  O_70
REMARK    3  A    between atoms: C_72  and  C_73
REMARK    4  A    between atoms: C_75  and  C_76
REMARK                            x       y       z     vdW  Elec       q    Type
REMARK                         _______ _______ _______ _____ _____    ______ ____
ROOT
ATOM      1  O   UNL     1      -3.237  22.133 -11.347  0.00  0.00    +0.000 OA
ATOM      2  O   UNL     1      -5.842  20.915 -15.594  0.00  0.00    +0.000 OA
ATOM      3  O   UNL     1      -7.557  16.596 -14.443  0.00  0.00    +0.000 OA
ATOM      4  O   UNL     1      -1.046  18.559  -8.811  0.00  0.00    +0.000 OA
ATOM      5  O   UNL     1      -9.624  21.183 -13.799  0.00  0.00    +0.000 OA
ATOM      6  O   UNL     1     -12.744  17.641  -3.561  0.00  0.00    +0.000 OA
ATOM      7  O   UNL     1      -3.711  22.562  -5.988  0.00  0.00    +0.000 OA
ATOM      8  O   UNL     1      -8.016  16.339  -3.098  0.00  0.00    +0.000 OA
ATOM      9  O   UNL     1     -14.546  18.354  -8.002  0.00  0.00    +0.000 OA
ATOM     10  O   UNL     1      -5.194  19.311  -3.366  0.00  0.00    +0.000 OA
ATOM     11  O   UNL     1     -12.183  21.141 -10.295  0.00  0.00    +0.000 OA
ATOM     12  N   UNL     1      -5.037  20.590 -13.863  0.00  0.00    +0.000 NA
ATOM     13  N   UNL     1      -3.646  19.766 -11.214  0.00  0.00    +0.000 NA
ATOM     14  N   UNL     1      -7.074  18.404 -15.102  0.00  0.00    +0.000 NA
ATOM     15  N   UNL     1      -9.861  18.613 -13.586  0.00  0.00    +0.000 NA
ATOM     16  N   UNL     1      -3.205  19.498  -8.174  0.00  0.00    +0.000 NA
ATOM     17  N   UNL     1     -12.262  16.485  -5.555  0.00  0.00    +0.000 N 
ATOM     18  N   UNL     1      -9.382  17.302  -4.736  0.00  0.00    +0.000 N 
ATOM     19  N   UNL     1      -6.889  18.672  -4.145  0.00  0.00    +0.000 NA
ATOM     20  N   UNL     1      -5.297  21.041  -6.577  0.00  0.00    +0.000 NA
ATOM     21  N   UNL     1     -10.405  19.479 -10.784  0.00  0.00    +0.000 NA
ATOM     22  N   UNL     1     -12.145  18.565  -7.858  0.00  0.00    +0.000 NA
ATOM     23  C   UNL     1      -4.693  21.449 -12.860  0.00  0.00    +0.000 C 
ATOM     24  C   UNL     1      -6.215  18.878 -14.195  0.00  0.00    +0.000 C 
ATOM     25  C   UNL     1      -2.472  19.431 -10.568  0.00  0.00    +0.000 C 
ATOM     26  C   UNL     1      -4.491  22.803 -13.054  0.00  0.00    +0.000 C 
ATOM     27  C   UNL     1      -5.308  17.708 -14.176  0.00  0.00    +0.000 C 
ATOM     28  C   UNL     1      -3.911  21.001 -11.816  0.00  0.00    +0.000 C 
ATOM     29  C   UNL     1      -6.136  20.170 -14.590  0.00  0.00    +0.000 C 
ATOM     30  C   UNL     1      -9.107  18.506 -14.644  0.00  0.00    +0.000 C 
ATOM     31  C   UNL     1      -7.978  17.818 -14.312  0.00  0.00    +0.000 C 
ATOM     32  C   UNL     1      -2.394  18.912  -9.169  0.00  0.00    +0.000 C 
ATOM     33  C   UNL     1      -4.612  22.875 -14.476  0.00  0.00    +0.000 C 
ATOM     34  C   UNL     1      -3.465  23.159 -12.243  0.00  0.00    +0.000 C 
ATOM     35  C   UNL     1      -5.048  21.601 -14.806  0.00  0.00    +0.000 C 
ATOM     36  C   UNL     1      -6.508  17.108 -15.239  0.00  0.00    +0.000 C 
ATOM     37  C   UNL     1      -2.846  20.617  -7.380  0.00  0.00    +0.000 C 
ATOM     38  C   UNL     1     -10.538  17.526  -4.034  0.00  0.00    +0.000 A 
ATOM     39  C   UNL     1      -9.519  19.863 -13.288  0.00  0.00    +0.000 C 
ATOM     40  C   UNL     1     -13.253  17.050  -6.396  0.00  0.00    +0.000 C 
ATOM     41  C   UNL     1      -6.892  17.345  -4.421  0.00  0.00    +0.000 C 
ATOM     42  C   UNL     1     -11.055  18.412 -14.448  0.00  0.00    +0.000 C 
ATOM     43  C   UNL     1     -10.724  18.173  -2.774  0.00  0.00    +0.000 A 
ATOM     44  C   UNL     1     -14.656  16.008  -5.915  0.00  0.00    +0.000 C 
ATOM     45  C   UNL     1      -9.993  20.031 -11.884  0.00  0.00    +0.000 C 
ATOM     46  C   UNL     1      -6.631  16.690  -3.091  0.00  0.00    +0.000 C 
ATOM     47  C   UNL     1      -1.457  20.938  -7.443  0.00  0.00    +0.000 C 
ATOM     48  C   UNL     1     -11.816  17.193  -4.470  0.00  0.00    +0.000 A 
ATOM     49  C   UNL     1      -3.799  21.326  -6.724  0.00  0.00    +0.000 C 
ATOM     50  C   UNL     1      -8.220  17.028  -4.186  0.00  0.00    +0.000 C 
ATOM     51  C   UNL     1     -13.316  18.015  -7.373  0.00  0.00    +0.000 C 
ATOM     52  C   UNL     1      -5.511  19.924  -5.653  0.00  0.00    +0.000 C 
ATOM     53  C   UNL     1      -9.700  18.816  -1.876  0.00  0.00    +0.000 C 
ATOM     54  C   UNL     1     -12.073  18.226  -2.532  0.00  0.00    +0.000 A 
ATOM     55  C   UNL     1      -5.638  18.949  -4.629  0.00  0.00    +0.000 C 
ATOM     56  C   UNL     1     -12.065  19.472  -8.777  0.00  0.00    +0.000 C 
ATOM     57  C   UNL     1      -9.976  21.197 -12.600  0.00  0.00    +0.000 C 
ATOM     58  C   UNL     1     -13.416  15.806  -5.365  0.00  0.00    +0.000 C 
ATOM     59  C   UNL     1      -0.424  20.637  -7.971  0.00  0.00    +0.000 C 
ATOM     60  C   UNL     1     -11.376  19.973 -10.031  0.00  0.00    +0.000 C 
ATOM     61  C   UNL     1      -6.298  18.627  -2.695  0.00  0.00    +0.000 C 
ATOM     62  C   UNL     1      -4.878  22.151  -5.999  0.00  0.00    +0.000 C 
ATOM     63  C   UNL     1     -12.645  20.587  -9.283  0.00  0.00    +0.000 C 
ATOM     64  H   UNL     1      -4.164  19.619  -8.501  0.00  0.00    +0.000 HD
ATOM     65  H   UNL     1      -9.390  17.582  -5.714  0.00  0.00    +0.000 HD
ATOM     66  H   UNL     1     -10.148  18.508 -10.629  0.00  0.00    +0.000 HD
ATOM     67  H   UNL     1     -11.357  17.943  -7.702  0.00  0.00    +0.000 HD
ATOM     68  C   UNL     1      -1.307  19.881 -10.947  0.00  0.00    +0.000 C 
ATOM     69  C   UNL     1      -0.031  20.075 -10.349  0.00  0.00    +0.000 C 
ATOM     70  C   UNL     1      -0.096  19.634  -8.941  0.00  0.00    +0.000 C 
ATOM     71  C   UNL     1      -4.026  17.087 -15.054  0.00  0.00    +0.000 C 
ATOM     72  C   UNL     1      -2.968  16.442 -14.566  0.00  0.00    +0.000 C 
ATOM     73  C   UNL     1      -5.272  16.698 -15.553  0.00  0.00    +0.000 C 
ATOM     74  C   UNL     1     -10.201  18.183 -15.571  0.00  0.00    +0.000 C 
ATOM     75  C   UNL     1     -11.414  18.797 -15.852  0.00  0.00    +0.000 C 
ATOM     76  C   UNL     1     -12.498  18.087 -16.691  0.00  0.00    +0.000 C 
ATOM     77  C   UNL     1     -11.967  19.408 -14.743  0.00  0.00    +0.000 C 
ATOM     78  C   UNL     1      -5.473  16.266  -2.071  0.00  0.00    +0.000 C 
ATOM     79  C   UNL     1      -5.326  15.300  -1.168  0.00  0.00    +0.000 C 
ATOM     80  C   UNL     1      -5.614  17.654  -2.020  0.00  0.00    +0.000 C 
ATOM     81  C   UNL     1     -15.707  16.444  -6.613  0.00  0.00    +0.000 C 
ATOM     82  C   UNL     1     -17.058  15.821  -6.491  0.00  0.00    +0.000 C 
ATOM     83  C   UNL     1     -15.456  17.519  -7.500  0.00  0.00    +0.000 C 
ENDROOT
BRANCH  69  84
ATOM     84  C   UNL     1       1.000  20.912 -10.838  0.00  0.00    +0.000 C 
ATOM     85  C   UNL     1       1.879  21.615 -11.257  0.00  0.00    +0.000 C 
BRANCH  85  86
ATOM     86  C   UNL     1       3.003  22.509 -11.791  0.00  0.00    +0.000 C 
ATOM     87  C   UNL     1       3.982  23.282 -12.258  0.00  0.00    +0.000 C 
ENDBRANCH  85  86
ENDBRANCH  69  84
BRANCH  13  88
ATOM     88  C   UNL     1      -4.782  18.880 -11.017  0.00  0.00    +0.000 C 
BRANCH  88  89
ATOM     89  O   UNL     1      -5.824  18.085 -10.817  0.00  0.00    +0.000 OA
ATOM     90  H   UNL     1      -5.734  17.626  -9.963  0.00  0.00    +0.000 HD
ENDBRANCH  88  89
ENDBRANCH  13  88
TORSDOF 4
ENDMDL
MODEL 4
REMARK VINA RESULT:      -9.1     22.061     26.743
REMARK  Name = Cyclosporin_A.pdbqt.pdb
REMARK  4 active torsions:
REMARK  status: ('A' for Active; 'I' for Inactive)
REMARK    1  A    between atoms: N_13  and  C_36
REMARK    2  A    between atoms: C_36  and  O_70
REMARK    3  A    between atoms: C_72  and  C_73
REMARK    4  A    between atoms: C_75  and  C_76
REMARK                            x       y       z     vdW  Elec       q    Type
REMARK                         _______ _______ _______ _____ _____    ______ ____
ROOT
ATOM      1  O   UNL     1       2.298 -21.552  -7.222  0.00  0.00    +0.000 OA
ATOM      2  O   UNL     1       5.504 -21.051 -11.195  0.00  0.00    +0.000 OA
ATOM      3  O   UNL     1       7.087 -16.576 -10.572  0.00  0.00    +0.000 OA
ATOM      4  O   UNL     1      -0.193 -17.622  -5.685  0.00  0.00    +0.000 OA
ATOM      5  O   UNL     1       8.983 -20.956  -8.854  0.00  0.00    +0.000 OA
ATOM      6  O   UNL     1      10.635 -15.659   0.960  0.00  0.00    +0.000 OA
ATOM      7  O   UNL     1       1.988 -21.042  -1.859  0.00  0.00    +0.000 OA
ATOM      8  O   UNL     1       5.906 -14.358   0.504  0.00  0.00    +0.000 OA
ATOM      9  O   UNL     1      13.051 -17.105  -2.984  0.00  0.00    +0.000 OA
ATOM     10  O   UNL     1       3.116 -17.368   0.349  0.00  0.00    +0.000 OA
ATOM     11  O   UNL     1      11.010 -20.276  -5.078  0.00  0.00    +0.000 OA
ATOM     12  N   UNL     1       4.461 -20.443  -9.681  0.00  0.00    +0.000 NA
ATOM     13  N   UNL     1       2.713 -19.192  -7.443  0.00  0.00    +0.000 NA
ATOM     14  N   UNL     1       6.682 -18.478 -10.971  0.00  0.00    +0.000 NA
ATOM     15  N   UNL     1       9.219 -18.385  -9.056  0.00  0.00    +0.000 NA
ATOM     16  N   UNL     1       1.840 -18.409  -4.590  0.00  0.00    +0.000 NA
ATOM     17  N   UNL     1      10.460 -14.871  -1.252  0.00  0.00    +0.000 N 
ATOM     18  N   UNL     1       7.482 -15.572  -0.729  0.00  0.00    +0.000 N 
ATOM     19  N   UNL     1       4.914 -16.852  -0.276  0.00  0.00    +0.000 NA
ATOM     20  N   UNL     1       3.661 -19.626  -2.466  0.00  0.00    +0.000 NA
ATOM     21  N   UNL     1       9.341 -18.747  -6.098  0.00  0.00    +0.000 NA
ATOM     22  N   UNL     1      10.651 -17.319  -3.153  0.00  0.00    +0.000 NA
ATOM     23  C   UNL     1       3.965 -21.120  -8.605  0.00  0.00    +0.000 C 
ATOM     24  C   UNL     1       5.696 -18.799 -10.129  0.00  0.00    +0.000 C 
ATOM     25  C   UNL     1       1.462 -18.766  -7.041  0.00  0.00    +0.000 C 
ATOM     26  C   UNL     1       3.777 -22.490  -8.588  0.00  0.00    +0.000 C 
ATOM     27  C   UNL     1       4.810 -17.655 -10.445  0.00  0.00    +0.000 C 
ATOM     28  C   UNL     1       3.046 -20.509  -7.778  0.00  0.00    +0.000 C 
ATOM     29  C   UNL     1       5.659 -20.141 -10.303  0.00  0.00    +0.000 C 
ATOM     30  C   UNL     1       8.626 -18.472 -10.214  0.00  0.00    +0.000 C 
ATOM     31  C   UNL     1       7.470 -17.752 -10.173  0.00  0.00    +0.000 C 
ATOM     32  C   UNL     1       1.189 -18.014  -5.778  0.00  0.00    +0.000 C 
ATOM     33  C   UNL     1       4.101 -22.805  -9.944  0.00  0.00    +0.000 C 
ATOM     34  C   UNL     1       2.640 -22.714  -7.886  0.00  0.00    +0.000 C 
ATOM     35  C   UNL     1       4.596 -21.601 -10.423  0.00  0.00    +0.000 C 
ATOM     36  C   UNL     1       6.158 -17.232 -11.411  0.00  0.00    +0.000 C 
ATOM     37  C   UNL     1       1.357 -19.379  -3.676  0.00  0.00    +0.000 C 
ATOM     38  C   UNL     1       8.522 -15.657   0.161  0.00  0.00    +0.000 A 
ATOM     39  C   UNL     1       8.821 -19.569  -8.599  0.00  0.00    +0.000 C 
ATOM     40  C   UNL     1      11.556 -15.560  -1.831  0.00  0.00    +0.000 C 
ATOM     41  C   UNL     1       4.972 -15.593  -0.773  0.00  0.00    +0.000 C 
ATOM     42  C   UNL     1      10.526 -18.320  -9.758  0.00  0.00    +0.000 C 
ATOM     43  C   UNL     1       8.516 -16.074   1.527  0.00  0.00    +0.000 A 
ATOM     44  C   UNL     1      12.886 -14.433  -1.339  0.00  0.00    +0.000 C 
ATOM     45  C   UNL     1       9.086 -19.486  -7.134  0.00  0.00    +0.000 C 
ATOM     46  C   UNL     1       4.531 -14.721   0.371  0.00  0.00    +0.000 C 
ATOM     47  C   UNL     1      -0.013 -19.724  -3.882  0.00  0.00    +0.000 C 
ATOM     48  C   UNL     1       9.854 -15.387  -0.137  0.00  0.00    +0.000 A 
ATOM     49  C   UNL     1       2.196 -19.951  -2.776  0.00  0.00    +0.000 C 
ATOM     50  C   UNL     1       6.257 -15.223  -0.408  0.00  0.00    +0.000 C 
ATOM     51  C   UNL     1      11.747 -16.679  -2.607  0.00  0.00    +0.000 C 
ATOM     52  C   UNL     1       3.753 -18.363  -1.728  0.00  0.00    +0.000 C 
ATOM     53  C   UNL     1       7.366 -16.565   2.365  0.00  0.00    +0.000 C 
ATOM     54  C   UNL     1       9.815 -16.066   1.967  0.00  0.00    +0.000 A 
ATOM     55  C   UNL     1       3.742 -17.225  -0.881  0.00  0.00    +0.000 C 
ATOM     56  C   UNL     1      10.694 -18.372  -3.904  0.00  0.00    +0.000 C 
ATOM     57  C   UNL     1       9.158 -20.758  -7.633  0.00  0.00    +0.000 C 
ATOM     58  C   UNL     1      11.583 -14.155  -1.018  0.00  0.00    +0.000 C 
ATOM     59  C   UNL     1      -0.955 -19.532  -4.597  0.00  0.00    +0.000 C 
ATOM     60  C   UNL     1      10.187 -19.091  -5.138  0.00  0.00    +0.000 C 
ATOM     61  C   UNL     1       4.120 -16.565   1.044  0.00  0.00    +0.000 C 
ATOM     62  C   UNL     1       3.149 -20.624  -1.771  0.00  0.00    +0.000 C 
ATOM     63  C   UNL     1      11.328 -19.550  -4.121  0.00  0.00    +0.000 C 
ATOM     64  H   UNL     1       2.834 -18.572  -4.749  0.00  0.00    +0.000 HD
ATOM     65  H   UNL     1       7.628 -16.017  -1.632  0.00  0.00    +0.000 HD
ATOM     66  H   UNL     1       9.076 -17.767  -6.151  0.00  0.00    +0.000 HD
ATOM     67  H   UNL     1       9.857 -16.690  -3.223  0.00  0.00    +0.000 HD
ATOM     68  C   UNL     1       0.358 -19.290  -7.500  0.00  0.00    +0.000 C 
ATOM     69  C   UNL     1      -0.993 -19.394  -7.068  0.00  0.00    +0.000 C 
ATOM     70  C   UNL     1      -1.127 -18.716  -5.763  0.00  0.00    +0.000 C 
ATOM     71  C   UNL     1       3.675 -17.212 -11.591  0.00  0.00    +0.000 C 
ATOM     72  C   UNL     1       2.566 -16.506 -11.380  0.00  0.00    +0.000 C 
ATOM     73  C   UNL     1       4.985 -16.899 -11.965  0.00  0.00    +0.000 C 
ATOM     74  C   UNL     1       9.847 -18.300 -11.015  0.00  0.00    +0.000 C 
ATOM     75  C   UNL     1      11.080 -18.937 -11.008  0.00  0.00    +0.000 C 
ATOM     76  C   UNL     1      12.282 -18.369 -11.791  0.00  0.00    +0.000 C 
ATOM     77  C   UNL     1      11.459 -19.340  -9.742  0.00  0.00    +0.000 C 
ATOM     78  C   UNL     1       3.243 -14.143   1.126  0.00  0.00    +0.000 C 
ATOM     79  C   UNL     1       2.978 -13.037   1.817  0.00  0.00    +0.000 C 
ATOM     80  C   UNL     1       3.358 -15.499   1.434  0.00  0.00    +0.000 C 
ATOM     81  C   UNL     1      14.022 -14.969  -1.792  0.00  0.00    +0.000 C 
ATOM     82  C   UNL     1      15.349 -14.316  -1.587  0.00  0.00    +0.000 C 
ATOM     83  C   UNL     1      13.888 -16.184  -2.507  0.00  0.00    +0.000 C 
ENDROOT
BRANCH  69  84
ATOM     84  C   UNL     1      -1.953 -20.316  -7.549  0.00  0.00    +0.000 C 
ATOM     85  C   UNL     1      -2.767 -21.095  -7.965  0.00  0.00    +0.000 C 
BRANCH  85  86
ATOM     86  C   UNL     1      -3.807 -22.086  -8.499  0.00  0.00    +0.000 C 
ATOM     87  C   UNL     1      -4.710 -22.945  -8.968  0.00  0.00    +0.000 C 
ENDBRANCH  85  86
ENDBRANCH  69  84
BRANCH  13  88
ATOM     88  C   UNL     1       3.819 -18.271  -7.240  0.00  0.00    +0.000 C 
BRANCH  88  89
ATOM     89  O   UNL     1       4.837 -17.446  -7.038  0.00  0.00    +0.000 OA
ATOM     90  H   UNL     1       4.518 -16.611  -6.652  0.00  0.00    +0.000 HD
ENDBRANCH  88  89
ENDBRANCH  13  88
TORSDOF 4
ENDMDL
MODEL 5
REMARK VINA RESULT:      -8.9      4.743      9.413
REMARK  Name = Cyclosporin_A.pdbqt.pdb
REMARK  4 active torsions:
REMARK  status: ('A' for Active; 'I' for Inactive)
REMARK    1  A    between atoms: N_13  and  C_36
REMARK    2  A    between atoms: C_36  and  O_70
REMARK    3  A    between atoms: C_72  and  C_73
REMARK    4  A    between atoms: C_75  and  C_76
REMARK                            x       y       z     vdW  Elec       q    Type
REMARK                         _______ _______ _______ _____ _____    ______ ____
ROOT
ATOM      1  O   UNL     1       1.246   6.179 -28.617  0.00  0.00    +0.000 OA
ATOM      2  O   UNL     1       4.670   9.972 -28.164  0.00  0.00    +0.000 OA
ATOM      3  O   UNL     1       5.138  10.258 -23.409  0.00  0.00    +0.000 OA
ATOM      4  O   UNL     1      -2.209   5.691 -25.177  0.00  0.00    +0.000 OA
ATOM      5  O   UNL     1       7.766   7.512 -26.767  0.00  0.00    +0.000 OA
ATOM      6  O   UNL     1       7.125  -0.975 -19.373  0.00  0.00    +0.000 OA
ATOM      7  O   UNL     1       0.253   1.086 -27.134  0.00  0.00    +0.000 OA
ATOM      8  O   UNL     1       2.302   0.029 -19.368  0.00  0.00    +0.000 OA
ATOM      9  O   UNL     1      10.214   2.408 -20.954  0.00  0.00    +0.000 OA
ATOM     10  O   UNL     1       0.288  -0.321 -22.930  0.00  0.00    +0.000 OA
ATOM     11  O   UNL     1       9.170   3.867 -24.876  0.00  0.00    +0.000 OA
ATOM     12  N   UNL     1       3.360   8.691 -27.535  0.00  0.00    +0.000 NA
ATOM     13  N   UNL     1       1.146   6.889 -26.321  0.00  0.00    +0.000 NA
ATOM     14  N   UNL     1       5.213  10.252 -25.392  0.00  0.00    +0.000 NA
ATOM     15  N   UNL     1       7.443   8.260 -24.309  0.00  0.00    +0.000 NA
ATOM     16  N   UNL     1      -0.183   4.334 -25.216  0.00  0.00    +0.000 NA
ATOM     17  N   UNL     1       7.018   1.363 -19.110  0.00  0.00    +0.000 N 
ATOM     18  N   UNL     1       4.233   0.871 -20.388  0.00  0.00    +0.000 N 
ATOM     19  N   UNL     1       1.982   0.297 -22.132  0.00  0.00    +0.000 NA
ATOM     20  N   UNL     1       1.624   1.892 -25.507  0.00  0.00    +0.000 NA
ATOM     21  N   UNL     1       7.323   5.293 -24.031  0.00  0.00    +0.000 NA
ATOM     22  N   UNL     1       7.955   2.665 -21.769  0.00  0.00    +0.000 NA
ATOM     23  C   UNL     1       2.915   7.523 -28.082  0.00  0.00    +0.000 C 
ATOM     24  C   UNL     1       4.238   9.419 -25.766  0.00  0.00    +0.000 C 
ATOM     25  C   UNL     1      -0.205   6.663 -26.137  0.00  0.00    +0.000 C 
ATOM     26  C   UNL     1       3.037   7.216 -29.425  0.00  0.00    +0.000 C 
ATOM     27  C   UNL     1       3.158  10.028 -24.957  0.00  0.00    +0.000 C 
ATOM     28  C   UNL     1       1.798   6.906 -27.557  0.00  0.00    +0.000 C 
ATOM     29  C   UNL     1       4.520   9.295 -27.084  0.00  0.00    +0.000 C 
ATOM     30  C   UNL     1       7.013   9.404 -24.767  0.00  0.00    +0.000 C 
ATOM     31  C   UNL     1       5.728   9.588 -24.353  0.00  0.00    +0.000 C 
ATOM     32  C   UNL     1      -0.773   5.615 -25.236  0.00  0.00    +0.000 C 
ATOM     33  C   UNL     1       3.567   8.449 -29.918  0.00  0.00    +0.000 C 
ATOM     34  C   UNL     1       1.909   6.549 -29.771  0.00  0.00    +0.000 C 
ATOM     35  C   UNL     1       3.829   9.151 -28.751  0.00  0.00    +0.000 C 
ATOM     36  C   UNL     1       4.474  10.985 -24.423  0.00  0.00    +0.000 C 
ATOM     37  C   UNL     1      -0.533   3.258 -26.070  0.00  0.00    +0.000 C 
ATOM     38  C   UNL     1       5.164  -0.074 -20.039  0.00  0.00    +0.000 A 
ATOM     39  C   UNL     1       7.272   7.578 -25.437  0.00  0.00    +0.000 C 
ATOM     40  C   UNL     1       8.296   1.712 -19.615  0.00  0.00    +0.000 C 
ATOM     41  C   UNL     1       1.811   1.055 -21.022  0.00  0.00    +0.000 C 
ATOM     42  C   UNL     1       8.771   8.883 -24.073  0.00  0.00    +0.000 C 
ATOM     43  C   UNL     1       5.103  -1.496 -20.163  0.00  0.00    +0.000 A 
ATOM     44  C   UNL     1       9.281   1.404 -18.126  0.00  0.00    +0.000 C 
ATOM     45  C   UNL     1       7.352   6.154 -25.001  0.00  0.00    +0.000 C 
ATOM     46  C   UNL     1       1.065   0.158 -20.071  0.00  0.00    +0.000 C 
ATOM     47  C   UNL     1      -1.761   3.462 -26.768  0.00  0.00    +0.000 C 
ATOM     48  C   UNL     1       6.426   0.199 -19.522  0.00  0.00    +0.000 A 
ATOM     49  C   UNL     1       0.311   2.207 -26.231  0.00  0.00    +0.000 C 
ATOM     50  C   UNL     1       2.934   0.707 -20.287  0.00  0.00    +0.000 C 
ATOM     51  C   UNL     1       8.815   2.210 -20.787  0.00  0.00    +0.000 C 
ATOM     52  C   UNL     1       1.351   1.446 -24.137  0.00  0.00    +0.000 C 
ATOM     53  C   UNL     1       4.008  -2.353 -20.739  0.00  0.00    +0.000 C 
ATOM     54  C   UNL     1       6.313  -1.997 -19.755  0.00  0.00    +0.000 A 
ATOM     55  C   UNL     1       0.995   0.872 -22.889  0.00  0.00    +0.000 C 
ATOM     56  C   UNL     1       8.313   3.161 -22.909  0.00  0.00    +0.000 C 
ATOM     57  C   UNL     1       7.760   6.356 -26.292  0.00  0.00    +0.000 C 
ATOM     58  C   UNL     1       7.921   1.227 -18.111  0.00  0.00    +0.000 C 
ATOM     59  C   UNL     1      -2.639   4.255 -26.957  0.00  0.00    +0.000 C 
ATOM     60  C   UNL     1       8.115   4.234 -23.961  0.00  0.00    +0.000 C 
ATOM     61  C   UNL     1       1.006  -0.879 -21.786  0.00  0.00    +0.000 C 
ATOM     62  C   UNL     1       1.275   1.026 -26.439  0.00  0.00    +0.000 C 
ATOM     63  C   UNL     1       9.213   3.076 -23.919  0.00  0.00    +0.000 C 
ATOM     64  H   UNL     1       0.834   4.395 -25.163  0.00  0.00    +0.000 HD
ATOM     65  H   UNL     1       4.571   1.645 -20.956  0.00  0.00    +0.000 HD
ATOM     66  H   UNL     1       6.853   5.576 -23.174  0.00  0.00    +0.000 HD
ATOM     67  H   UNL     1       7.053   2.917 -21.377  0.00  0.00    +0.000 HD
ATOM     68  C   UNL     1      -1.107   7.059 -26.992  0.00  0.00    +0.000 C 
ATOM     69  C   UNL     1      -2.440   6.693 -27.331  0.00  0.00    +0.000 C 
ATOM     70  C   UNL     1      -2.862   5.580 -26.457  0.00  0.00    +0.000 C 
ATOM     71  C   UNL     1       2.084  11.308 -25.039  0.00  0.00    +0.000 C 
ATOM     72  C   UNL     1       0.829  11.323 -24.594  0.00  0.00    +0.000 C 
ATOM     73  C   UNL     1       3.324  11.666 -24.500  0.00  0.00    +0.000 C 
ATOM     74  C   UNL     1       8.244  10.150 -24.469  0.00  0.00    +0.000 C 
ATOM     75  C   UNL     1       9.580   9.932 -24.775  0.00  0.00    +0.000 C 
ATOM     76  C   UNL     1      10.702  10.750 -24.103  0.00  0.00    +0.000 C 
ATOM     77  C   UNL     1       9.900   8.588 -24.814  0.00  0.00    +0.000 C 
ATOM     78  C   UNL     1      -0.393  -0.374 -19.681  0.00  0.00    +0.000 C 
ATOM     79  C   UNL     1      -0.970  -0.789 -18.557  0.00  0.00    +0.000 C 
ATOM     80  C   UNL     1      -0.012  -0.980 -20.880  0.00  0.00    +0.000 C 
ATOM     81  C   UNL     1      10.549   1.661 -18.452  0.00  0.00    +0.000 C 
ATOM     82  C   UNL     1      11.667   1.528 -17.471  0.00  0.00    +0.000 C 
ATOM     83  C   UNL     1      10.768   2.098 -19.781  0.00  0.00    +0.000 C 
ENDROOT
BRANCH  69  84
ATOM     84  C   UNL     1      -3.112   7.015 -28.534  0.00  0.00    +0.000 C 
ATOM     85  C   UNL     1      -3.689   7.290 -29.550  0.00  0.00    +0.000 C 
BRANCH  85  86
ATOM     86  C   UNL     1      -4.428   7.642 -30.846  0.00  0.00    +0.000 C 
ATOM     87  C   UNL     1      -5.076   7.947 -31.969  0.00  0.00    +0.000 C 
ENDBRANCH  85  86
ENDBRANCH  69  84
BRANCH  13  88
ATOM     88  C   UNL     1       1.989   6.830 -25.138  0.00  0.00    +0.000 C 
BRANCH  88  89
ATOM     89  O   UNL     1       2.752   6.752 -24.056  0.00  0.00    +0.000 OA
ATOM     90  H   UNL     1       2.235   6.996 -23.267  0.00  0.00    +0.000 HD
ENDBRANCH  88  89
ENDBRANCH  13  88
TORSDOF 4
ENDMDL
MODEL 6
REMARK VINA RESULT:      -8.7      5.220     12.982
REMARK  Name = Cyclosporin_A.pdbqt.pdb
REMARK  4 active torsions:
REMARK  status: ('A' for Active; 'I' for Inactive)
REMARK    1  A    between atoms: N_13  and  C_36
REMARK    2  A    between atoms: C_36  and  O_70
REMARK    3  A    between atoms: C_72  and  C_73
REMARK    4  A    between atoms: C_75  and  C_76
REMARK                            x       y       z     vdW  Elec       q    Type
REMARK                         _______ _______ _______ _____ _____    ______ ____
ROOT
ATOM      1  O   UNL     1      16.218  -3.902 -25.362  0.00  0.00    +0.000 OA
ATOM      2  O   UNL     1      14.251  -8.512 -26.455  0.00  0.00    +0.000 OA
ATOM      3  O   UNL     1      11.990  -9.566 -22.370  0.00  0.00    +0.000 OA
ATOM      4  O   UNL     1      17.630  -2.965 -20.765  0.00  0.00    +0.000 OA
ATOM      5  O   UNL     1      10.265  -7.209 -26.516  0.00  0.00    +0.000 OA
ATOM      6  O   UNL     1       5.191   0.029 -19.519  0.00  0.00    +0.000 OA
ATOM      7  O   UNL     1      14.905   1.014 -23.564  0.00  0.00    +0.000 OA
ATOM      8  O   UNL     1       9.641   0.392 -17.439  0.00  0.00    +0.000 OA
ATOM      9  O   UNL     1       4.219  -3.819 -22.299  0.00  0.00    +0.000 OA
ATOM     10  O   UNL     1      12.724   1.766 -19.779  0.00  0.00    +0.000 OA
ATOM     11  O   UNL     1       7.168  -4.384 -25.395  0.00  0.00    +0.000 OA
ATOM     12  N   UNL     1      14.727  -7.021 -25.314  0.00  0.00    +0.000 NA
ATOM     13  N   UNL     1      15.582  -4.866 -23.251  0.00  0.00    +0.000 NA
ATOM     14  N   UNL     1      12.735  -9.308 -24.191  0.00  0.00    +0.000 NA
ATOM     15  N   UNL     1       9.766  -8.171 -24.164  0.00  0.00    +0.000 NA
ATOM     16  N   UNL     1      15.489  -2.222 -21.666  0.00  0.00    +0.000 NA
ATOM     17  N   UNL     1       5.891  -2.203 -19.250  0.00  0.00    +0.000 N 
ATOM     18  N   UNL     1       8.657  -0.798 -19.197  0.00  0.00    +0.000 N 
ATOM     19  N   UNL     1      11.130   0.604 -19.794  0.00  0.00    +0.000 NA
ATOM     20  N   UNL     1      13.308  -0.352 -22.693  0.00  0.00    +0.000 NA
ATOM     21  N   UNL     1       8.847  -5.352 -23.843  0.00  0.00    +0.000 NA
ATOM     22  N   UNL     1       6.572  -3.334 -22.061  0.00  0.00    +0.000 NA
ATOM     23  C   UNL     1      14.976  -5.713 -25.608  0.00  0.00    +0.000 C 
ATOM     24  C   UNL     1      13.471  -8.197 -24.102  0.00  0.00    +0.000 C 
ATOM     25  C   UNL     1      16.598  -4.307 -22.502  0.00  0.00    +0.000 C 
ATOM     26  C   UNL     1      15.327  -5.269 -26.870  0.00  0.00    +0.000 C 
ATOM     27  C   UNL     1      14.254  -8.593 -22.910  0.00  0.00    +0.000 C 
ATOM     28  C   UNL     1      15.532  -4.891 -24.649  0.00  0.00    +0.000 C 
ATOM     29  C   UNL     1      13.730  -7.975 -25.412  0.00  0.00    +0.000 C 
ATOM     30  C   UNL     1      10.672  -9.079 -24.399  0.00  0.00    +0.000 C 
ATOM     31  C   UNL     1      11.664  -8.960 -23.471  0.00  0.00    +0.000 C 
ATOM     32  C   UNL     1      16.397  -3.278 -21.437  0.00  0.00    +0.000 C 
ATOM     33  C   UNL     1      15.450  -6.519 -27.551  0.00  0.00    +0.000 C 
ATOM     34  C   UNL     1      16.234  -4.277 -26.691  0.00  0.00    +0.000 C 
ATOM     35  C   UNL     1      14.962  -7.420 -26.616  0.00  0.00    +0.000 C 
ATOM     36  C   UNL     1      13.198  -9.937 -23.002  0.00  0.00    +0.000 C 
ATOM     37  C   UNL     1      15.810  -0.985 -22.278  0.00  0.00    +0.000 C 
ATOM     38  C   UNL     1       7.425  -0.200 -19.279  0.00  0.00    +0.000 A 
ATOM     39  C   UNL     1      10.165  -7.320 -25.104  0.00  0.00    +0.000 C 
ATOM     40  C   UNL     1       5.106  -2.816 -20.260  0.00  0.00    +0.000 C 
ATOM     41  C   UNL     1      11.054  -0.223 -18.724  0.00  0.00    +0.000 C 
ATOM     42  C   UNL     1       8.718  -9.160 -24.528  0.00  0.00    +0.000 C 
ATOM     43  C   UNL     1       7.093   1.186 -19.356  0.00  0.00    +0.000 A 
ATOM     44  C   UNL     1       3.556  -2.997 -19.339  0.00  0.00    +0.000 C 
ATOM     45  C   UNL     1       9.482  -6.046 -24.737  0.00  0.00    +0.000 C 
ATOM     46  C   UNL     1      11.032   0.704 -17.539  0.00  0.00    +0.000 C 
ATOM     47  C   UNL     1      17.214  -0.747 -22.380  0.00  0.00    +0.000 C 
ATOM     48  C   UNL     1       6.212  -0.877 -19.359  0.00  0.00    +0.000 A 
ATOM     49  C   UNL     1      14.829  -0.194 -22.781  0.00  0.00    +0.000 C 
ATOM     50  C   UNL     1       9.683  -0.300 -18.544  0.00  0.00    +0.000 C 
ATOM     51  C   UNL     1       5.292  -3.271 -21.544  0.00  0.00    +0.000 C 
ATOM     52  C   UNL     1      12.845  -0.041 -21.338  0.00  0.00    +0.000 C 
ATOM     53  C   UNL     1       8.007   2.382 -19.397  0.00  0.00    +0.000 C 
ATOM     54  C   UNL     1       5.733   1.277 -19.507  0.00  0.00    +0.000 A 
ATOM     55  C   UNL     1      12.464   0.431 -20.055  0.00  0.00    +0.000 C 
ATOM     56  C   UNL     1       6.883  -3.747 -23.246  0.00  0.00    +0.000 C 
ATOM     57  C   UNL     1       9.722  -6.172 -26.078  0.00  0.00    +0.000 C 
ATOM     58  C   UNL     1       4.665  -2.459 -18.738  0.00  0.00    +0.000 C 
ATOM     59  C   UNL     1      18.288  -1.237 -22.175  0.00  0.00    +0.000 C 
ATOM     60  C   UNL     1       7.813  -4.570 -24.117  0.00  0.00    +0.000 C 
ATOM     61  C   UNL     1      11.467   1.943 -19.054  0.00  0.00    +0.000 C 
ATOM     62  C   UNL     1      13.724   0.696 -23.379  0.00  0.00    +0.000 C 
ATOM     63  C   UNL     1       6.498  -3.774 -24.545  0.00  0.00    +0.000 C 
ATOM     64  H   UNL     1      14.612  -2.567 -22.058  0.00  0.00    +0.000 HD
ATOM     65  H   UNL     1       8.836  -1.548 -19.860  0.00  0.00    +0.000 HD
ATOM     66  H   UNL     1       8.986  -5.611 -22.870  0.00  0.00    +0.000 HD
ATOM     67  H   UNL     1       7.265  -3.381 -21.319  0.00  0.00    +0.000 HD
ATOM     68  C   UNL     1      17.845  -4.320 -22.885  0.00  0.00    +0.000 C 
ATOM     69  C   UNL     1      19.017  -3.561 -22.613  0.00  0.00    +0.000 C 
ATOM     70  C   UNL     1      18.681  -2.505 -21.637  0.00  0.00    +0.000 C 
ATOM     71  C   UNL     1      15.603  -9.507 -22.528  0.00  0.00    +0.000 C 
ATOM     72  C   UNL     1      16.504  -9.238 -21.584  0.00  0.00    +0.000 C 
ATOM     73  C   UNL     1      14.426 -10.260 -22.580  0.00  0.00    +0.000 C 
ATOM     74  C   UNL     1       9.721 -10.168 -24.666  0.00  0.00    +0.000 C 
ATOM     75  C   UNL     1       8.632 -10.283 -25.518  0.00  0.00    +0.000 C 
ATOM     76  C   UNL     1       7.642 -11.462 -25.402  0.00  0.00    +0.000 C 
ATOM     77  C   UNL     1       7.960  -9.087 -25.683  0.00  0.00    +0.000 C 
ATOM     78  C   UNL     1      11.962   1.556 -16.555  0.00  0.00    +0.000 C 
ATOM     79  C   UNL     1      11.872   1.954 -15.288  0.00  0.00    +0.000 C 
ATOM     80  C   UNL     1      11.941   2.194 -17.796  0.00  0.00    +0.000 C 
ATOM     81  C   UNL     1       2.678  -3.544 -20.183  0.00  0.00    +0.000 C 
ATOM     82  C   UNL     1       1.275  -3.858 -19.780  0.00  0.00    +0.000 C 
ATOM     83  C   UNL     1       3.168  -3.837 -21.479  0.00  0.00    +0.000 C 
ENDROOT
BRANCH  69  84
ATOM     84  C   UNL     1      20.185  -3.517 -23.410  0.00  0.00    +0.000 C 
ATOM     85  C   UNL     1      21.177  -3.472 -24.086  0.00  0.00    +0.000 C 
BRANCH  85  86
ATOM     86  C   UNL     1      22.441  -3.410 -24.950  0.00  0.00    +0.000 C 
ATOM     87  C   UNL     1      23.542  -3.360 -25.698  0.00  0.00    +0.000 C 
ENDBRANCH  85  86
ENDBRANCH  69  84
BRANCH  13  88
ATOM     88  C   UNL     1      14.354  -5.203 -22.549  0.00  0.00    +0.000 C 
BRANCH  88  89
ATOM     89  O   UNL     1      13.230  -5.487 -21.905  0.00  0.00    +0.000 OA
ATOM     90  H   UNL     1      12.482  -5.024 -22.322  0.00  0.00    +0.000 HD
ENDBRANCH  88  89
ENDBRANCH  13  88
TORSDOF 4
ENDMDL
MODEL 7
REMARK VINA RESULT:      -8.6      8.822     15.658
REMARK  Name = Cyclosporin_A.pdbqt.pdb
REMARK  4 active torsions:
REMARK  status: ('A' for Active; 'I' for Inactive)
REMARK    1  A    between atoms: N_13  and  C_36
REMARK    2  A    between atoms: C_36  and  O_70
REMARK    3  A    between atoms: C_72  and  C_73
REMARK    4  A    between atoms: C_75  and  C_76
REMARK                            x       y       z     vdW  Elec       q    Type
REMARK                         _______ _______ _______ _____ _____    ______ ____
ROOT
ATOM      1  O   UNL     1       1.420 -10.673 -26.664  0.00  0.00    +0.000 OA
ATOM      2  O   UNL     1      -2.965 -13.330 -26.507  0.00  0.00    +0.000 OA
ATOM      3  O   UNL     1      -4.516 -12.330 -22.090  0.00  0.00    +0.000 OA
ATOM      4  O   UNL     1       4.036 -10.184 -22.550  0.00  0.00    +0.000 OA
ATOM      5  O   UNL     1      -5.447  -9.949 -26.470  0.00  0.00    +0.000 OA
ATOM      6  O   UNL     1      -4.007  -0.309 -20.805  0.00  0.00    +0.000 OA
ATOM      7  O   UNL     1       3.493  -5.751 -25.889  0.00  0.00    +0.000 OA
ATOM      8  O   UNL     1       0.200  -2.382 -19.299  0.00  0.00    +0.000 OA
ATOM      9  O   UNL     1      -7.519  -3.154 -22.550  0.00  0.00    +0.000 OA
ATOM     10  O   UNL     1       2.954  -3.394 -22.174  0.00  0.00    +0.000 OA
ATOM     11  O   UNL     1      -6.116  -5.729 -25.713  0.00  0.00    +0.000 OA
ATOM     12  N   UNL     1      -1.511 -12.278 -25.778  0.00  0.00    +0.000 NA
ATOM     13  N   UNL     1       0.811 -10.804 -24.341  0.00  0.00    +0.000 NA
ATOM     14  N   UNL     1      -4.154 -12.790 -23.986  0.00  0.00    +0.000 NA
ATOM     15  N   UNL     1      -5.894 -10.130 -23.926  0.00  0.00    +0.000 NA
ATOM     16  N   UNL     1       2.546  -8.441 -23.383  0.00  0.00    +0.000 NA
ATOM     17  N   UNL     1      -4.638  -2.469 -20.114  0.00  0.00    +0.000 N 
ATOM     18  N   UNL     1      -1.622  -2.971 -20.645  0.00  0.00    +0.000 N 
ATOM     19  N   UNL     1       1.022  -3.383 -21.775  0.00  0.00    +0.000 NA
ATOM     20  N   UNL     1       1.629  -5.791 -24.585  0.00  0.00    +0.000 NA
ATOM     21  N   UNL     1      -4.987  -7.298 -24.154  0.00  0.00    +0.000 NA
ATOM     22  N   UNL     1      -5.310  -4.124 -22.655  0.00  0.00    +0.000 NA
ATOM     23  C   UNL     1      -0.640 -11.417 -26.379  0.00  0.00    +0.000 C 
ATOM     24  C   UNL     1      -2.923 -12.326 -24.219  0.00  0.00    +0.000 C 
ATOM     25  C   UNL     1       2.095 -10.863 -23.836  0.00  0.00    +0.000 C 
ATOM     26  C   UNL     1      -0.374 -11.427 -27.736  0.00  0.00    +0.000 C 
ATOM     27  C   UNL     1      -2.268 -12.955 -23.050  0.00  0.00    +0.000 C 
ATOM     28  C   UNL     1       0.465 -10.969 -25.686  0.00  0.00    +0.000 C 
ATOM     29  C   UNL     1      -2.865 -12.464 -25.564  0.00  0.00    +0.000 C 
ATOM     30  C   UNL     1      -5.724 -11.418 -24.039  0.00  0.00    +0.000 C 
ATOM     31  C   UNL     1      -4.668 -11.792 -23.262  0.00  0.00    +0.000 C 
ATOM     32  C   UNL     1       2.732  -9.791 -23.013  0.00  0.00    +0.000 C 
ATOM     33  C   UNL     1      -1.117 -12.583 -28.130  0.00  0.00    +0.000 C 
ATOM     34  C   UNL     1       0.946 -11.147 -27.871  0.00  0.00    +0.000 C 
ATOM     35  C   UNL     1      -1.817 -12.898 -26.975  0.00  0.00    +0.000 C 
ATOM     36  C   UNL     1      -3.887 -13.417 -22.738  0.00  0.00    +0.000 C 
ATOM     37  C   UNL     1       3.369  -7.719 -24.284  0.00  0.00    +0.000 C 
ATOM     38  C   UNL     1      -2.292  -1.779 -20.737  0.00  0.00    +0.000 A 
ATOM     39  C   UNL     1      -5.294  -9.803 -25.066  0.00  0.00    +0.000 C 
ATOM     40  C   UNL     1      -5.821  -2.622 -20.882  0.00  0.00    +0.000 C 
ATOM     41  C   UNL     1       0.722  -3.866 -20.546  0.00  0.00    +0.000 C 
ATOM     42  C   UNL     1      -7.364 -10.347 -23.958  0.00  0.00    +0.000 C 
ATOM     43  C   UNL     1      -1.799  -0.485 -21.089  0.00  0.00    +0.000 A 
ATOM     44  C   UNL     1      -6.974  -1.739 -19.798  0.00  0.00    +0.000 C 
ATOM     45  C   UNL     1      -5.052  -8.338 -24.928  0.00  0.00    +0.000 C 
ATOM     46  C   UNL     1       1.470  -2.965 -19.601  0.00  0.00    +0.000 C 
ATOM     47  C   UNL     1       4.607  -8.369 -24.571  0.00  0.00    +0.000 C 
ATOM     48  C   UNL     1      -3.661  -1.614 -20.547  0.00  0.00    +0.000 A 
ATOM     49  C   UNL     1       2.919  -6.572 -24.853  0.00  0.00    +0.000 C 
ATOM     50  C   UNL     1      -0.384  -3.096 -20.221  0.00  0.00    +0.000 C 
ATOM     51  C   UNL     1      -6.194  -3.256 -22.044  0.00  0.00    +0.000 C 
ATOM     52  C   UNL     1       1.714  -5.102 -23.295  0.00  0.00    +0.000 C 
ATOM     53  C   UNL     1      -0.406  -0.075 -21.484  0.00  0.00    +0.000 C 
ATOM     54  C   UNL     1      -2.871   0.370 -21.124  0.00  0.00    +0.000 A 
ATOM     55  C   UNL     1       1.941  -4.340 -22.119  0.00  0.00    +0.000 C 
ATOM     56  C   UNL     1      -5.539  -4.785 -23.743  0.00  0.00    +0.000 C 
ATOM     57  C   UNL     1      -5.210  -8.747 -26.224  0.00  0.00    +0.000 C 
ATOM     58  C   UNL     1      -5.658  -1.887 -19.443  0.00  0.00    +0.000 C 
ATOM     59  C   UNL     1       5.237  -9.368 -24.368  0.00  0.00    +0.000 C 
ATOM     60  C   UNL     1      -5.436  -6.098 -24.494  0.00  0.00    +0.000 C 
ATOM     61  C   UNL     1       2.196  -2.421 -21.389  0.00  0.00    +0.000 C 
ATOM     62  C   UNL     1       2.406  -5.285 -25.524  0.00  0.00    +0.000 C 
ATOM     63  C   UNL     1      -6.135  -4.741 -24.959  0.00  0.00    +0.000 C 
ATOM     64  H   UNL     1       1.568  -8.248 -23.601  0.00  0.00    +0.000 HD
ATOM     65  H   UNL     1      -2.036  -3.758 -21.138  0.00  0.00    +0.000 HD
ATOM     66  H   UNL     1      -4.817  -7.465 -23.166  0.00  0.00    +0.000 HD
ATOM     67  H   UNL     1      -4.626  -4.477 -21.992  0.00  0.00    +0.000 HD
ATOM     68  C   UNL     1       3.008 -11.656 -24.326  0.00  0.00    +0.000 C 
ATOM     69  C   UNL     1       4.430 -11.707 -24.345  0.00  0.00    +0.000 C 
ATOM     70  C   UNL     1       4.955 -10.545 -23.600  0.00  0.00    +0.000 C 
ATOM     71  C   UNL     1      -1.618 -14.431 -22.606  0.00  0.00    +0.000 C 
ATOM     72  C   UNL     1      -0.548 -14.630 -21.838  0.00  0.00    +0.000 C 
ATOM     73  C   UNL     1      -2.993 -14.346 -22.375  0.00  0.00    +0.000 C 
ATOM     74  C   UNL     1      -7.151 -11.760 -23.964  0.00  0.00    +0.000 C 
ATOM     75  C   UNL     1      -8.268 -11.316 -24.659  0.00  0.00    +0.000 C 
ATOM     76  C   UNL     1      -9.697 -11.660 -24.187  0.00  0.00    +0.000 C 
ATOM     77  C   UNL     1      -8.171  -9.986 -25.020  0.00  0.00    +0.000 C 
ATOM     78  C   UNL     1       2.898  -2.710 -18.926  0.00  0.00    +0.000 C 
ATOM     79  C   UNL     1       3.312  -2.181 -17.778  0.00  0.00    +0.000 C 
ATOM     80  C   UNL     1       2.978  -2.343 -20.270  0.00  0.00    +0.000 C 
ATOM     81  C   UNL     1      -8.160  -1.763 -20.410  0.00  0.00    +0.000 C 
ATOM     82  C   UNL     1      -9.377  -1.137 -19.813  0.00  0.00    +0.000 C 
ATOM     83  C   UNL     1      -8.202  -2.447 -21.649  0.00  0.00    +0.000 C 
ENDROOT
BRANCH  69  84
ATOM     84  C   UNL     1       5.225 -12.460 -25.241  0.00  0.00    +0.000 C 
ATOM     85  C   UNL     1       5.906 -13.093 -26.000  0.00  0.00    +0.000 C 
BRANCH  85  86
ATOM     86  C   UNL     1       6.778 -13.898 -26.971  0.00  0.00    +0.000 C 
ATOM     87  C   UNL     1       7.531 -14.601 -27.814  0.00  0.00    +0.000 C 
ENDBRANCH  85  86
ENDBRANCH  69  84
BRANCH  13  88
ATOM     88  C   UNL     1      -0.216 -10.263 -23.465  0.00  0.00    +0.000 C 
BRANCH  88  89
ATOM     89  O   UNL     1      -1.148  -9.746 -22.675  0.00  0.00    +0.000 OA
ATOM     90  H   UNL     1      -0.939  -8.815 -22.480  0.00  0.00    +0.000 HD
ENDBRANCH  88  89
ENDBRANCH  13  88
TORSDOF 4
ENDMDL
MODEL 8
REMARK VINA RESULT:      -8.1     17.908     23.036
REMARK  Name = Cyclosporin_A.pdbqt.pdb
REMARK  4 active torsions:
REMARK  status: ('A' for Active; 'I' for Inactive)
REMARK    1  A    between atoms: N_13  and  C_36
REMARK    2  A    between atoms: C_36  and  O_70
REMARK    3  A    between atoms: C_72  and  C_73
REMARK    4  A    between atoms: C_75  and  C_76
REMARK                            x       y       z     vdW  Elec       q    Type
REMARK                         _______ _______ _______ _____ _____    ______ ____
ROOT
ATOM      1  O   UNL     1       1.701  20.025 -21.551  0.00  0.00    +0.000 OA
ATOM      2  O   UNL     1      -2.992  17.990 -21.168  0.00  0.00    +0.000 OA
ATOM      3  O   UNL     1      -2.466  15.113 -17.377  0.00  0.00    +0.000 OA
ATOM      4  O   UNL     1       5.572  17.290 -20.313  0.00  0.00    +0.000 OA
ATOM      5  O   UNL     1      -3.958  19.956 -17.591  0.00  0.00    +0.000 OA
ATOM      6  O   UNL     1       2.626  21.719  -8.611  0.00  0.00    +0.000 OA
ATOM      7  O   UNL     1       5.495  22.639 -18.741  0.00  0.00    +0.000 OA
ATOM      8  O   UNL     1       6.085  19.476 -11.307  0.00  0.00    +0.000 OA
ATOM      9  O   UNL     1      -2.031  21.087  -9.791  0.00  0.00    +0.000 OA
ATOM     10  O   UNL     1       7.134  21.217 -14.877  0.00  0.00    +0.000 OA
ATOM     11  O   UNL     1      -2.803  21.992 -13.936  0.00  0.00    +0.000 OA
ATOM     12  N   UNL     1      -1.107  18.168 -20.763  0.00  0.00    +0.000 NA
ATOM     13  N   UNL     1       1.928  18.109 -20.115  0.00  0.00    +0.000 NA
ATOM     14  N   UNL     1      -2.967  16.312 -18.877  0.00  0.00    +0.000 NA
ATOM     15  N   UNL     1      -3.531  17.847 -16.150  0.00  0.00    +0.000 NA
ATOM     16  N   UNL     1       4.596  18.951 -18.818  0.00  0.00    +0.000 NA
ATOM     17  N   UNL     1       1.560  19.788  -9.434  0.00  0.00    +0.000 N 
ATOM     18  N   UNL     1       3.827  20.048 -11.537  0.00  0.00    +0.000 N 
ATOM     19  N   UNL     1       5.594  20.809 -13.714  0.00  0.00    +0.000 NA
ATOM     20  N   UNL     1       4.309  21.502 -17.168  0.00  0.00    +0.000 NA
ATOM     21  N   UNL     1      -1.830  19.857 -14.751  0.00  0.00    +0.000 NA
ATOM     22  N   UNL     1      -0.482  20.678 -11.598  0.00  0.00    +0.000 NA
ATOM     23  C   UNL     1      -0.255  19.223 -20.910  0.00  0.00    +0.000 C 
ATOM     24  C   UNL     1      -1.813  16.853 -19.280  0.00  0.00    +0.000 C 
ATOM     25  C   UNL     1       3.200  17.751 -20.516  0.00  0.00    +0.000 C 
ATOM     26  C   UNL     1      -0.496  20.283 -21.766  0.00  0.00    +0.000 C 
ATOM     27  C   UNL     1      -1.059  15.586 -19.418  0.00  0.00    +0.000 C 
ATOM     28  C   UNL     1       1.104  19.029 -20.772  0.00  0.00    +0.000 C 
ATOM     29  C   UNL     1      -2.276  17.811 -20.117  0.00  0.00    +0.000 C 
ATOM     30  C   UNL     1      -3.873  17.132 -17.186  0.00  0.00    +0.000 C 
ATOM     31  C   UNL     1      -2.815  16.352 -17.550  0.00  0.00    +0.000 C 
ATOM     32  C   UNL     1       4.414  17.825 -19.648  0.00  0.00    +0.000 C 
ATOM     33  C   UNL     1      -1.683  19.819 -22.412  0.00  0.00    +0.000 C 
ATOM     34  C   UNL     1       0.704  20.636 -22.288  0.00  0.00    +0.000 C 
ATOM     35  C   UNL     1      -2.004  18.688 -21.677  0.00  0.00    +0.000 C 
ATOM     36  C   UNL     1      -2.522  14.965 -18.781  0.00  0.00    +0.000 C 
ATOM     37  C   UNL     1       5.253  20.149 -19.196  0.00  0.00    +0.000 C 
ATOM     38  C   UNL     1       3.628  20.834 -10.432  0.00  0.00    +0.000 A 
ATOM     39  C   UNL     1      -3.288  18.969 -16.821  0.00  0.00    +0.000 C 
ATOM     40  C   UNL     1       0.212  20.222  -9.368  0.00  0.00    +0.000 C 
ATOM     41  C   UNL     1       5.589  19.535 -13.251  0.00  0.00    +0.000 C 
ATOM     42  C   UNL     1      -4.897  17.655 -15.599  0.00  0.00    +0.000 C 
ATOM     43  C   UNL     1       4.389  21.949  -9.962  0.00  0.00    +0.000 A 
ATOM     44  C   UNL     1      -0.109  19.877  -7.619  0.00  0.00    +0.000 C 
ATOM     45  C   UNL     1      -2.517  19.798 -15.850  0.00  0.00    +0.000 C 
ATOM     46  C   UNL     1       6.882  19.412 -12.491  0.00  0.00    +0.000 C 
ATOM     47  C   UNL     1       6.005  20.029 -20.403  0.00  0.00    +0.000 C 
ATOM     48  C   UNL     1       2.561  20.716  -9.548  0.00  0.00    +0.000 A 
ATOM     49  C   UNL     1       5.066  21.288 -18.482  0.00  0.00    +0.000 C 
ATOM     50  C   UNL     1       5.007  19.709 -12.005  0.00  0.00    +0.000 C 
ATOM     51  C   UNL     1      -0.737  20.703 -10.240  0.00  0.00    +0.000 C 
ATOM     52  C   UNL     1       5.070  20.941 -16.049  0.00  0.00    +0.000 C 
ATOM     53  C   UNL     1       5.609  22.589 -10.568  0.00  0.00    +0.000 C 
ATOM     54  C   UNL     1       3.742  22.456  -8.864  0.00  0.00    +0.000 A 
ATOM     55  C   UNL     1       5.941  20.522 -15.009  0.00  0.00    +0.000 C 
ATOM     56  C   UNL     1      -1.290  21.091 -12.521  0.00  0.00    +0.000 C 
ATOM     57  C   UNL     1      -3.246  20.536 -16.742  0.00  0.00    +0.000 C 
ATOM     58  C   UNL     1       1.108  19.579  -8.177  0.00  0.00    +0.000 C 
ATOM     59  C   UNL     1       6.275  19.277 -21.296  0.00  0.00    +0.000 C 
ATOM     60  C   UNL     1      -1.919  20.852 -13.879  0.00  0.00    +0.000 C 
ATOM     61  C   UNL     1       7.087  21.180 -13.416  0.00  0.00    +0.000 C 
ATOM     62  C   UNL     1       4.838  22.590 -17.694  0.00  0.00    +0.000 C 
ATOM     63  C   UNL     1      -2.213  22.029 -12.843  0.00  0.00    +0.000 C 
ATOM     64  H   UNL     1       3.737  19.188 -18.321  0.00  0.00    +0.000 HD
ATOM     65  H   UNL     1       3.020  19.911 -12.142  0.00  0.00    +0.000 HD
ATOM     66  H   UNL     1      -1.398  18.996 -14.427  0.00  0.00    +0.000 HD
ATOM     67  H   UNL     1       0.219  19.979 -11.826  0.00  0.00    +0.000 HD
ATOM     68  C   UNL     1       3.548  17.681 -21.772  0.00  0.00    +0.000 C 
ATOM     69  C   UNL     1       4.762  17.742 -22.512  0.00  0.00    +0.000 C 
ATOM     70  C   UNL     1       5.883  17.926 -21.569  0.00  0.00    +0.000 C 
ATOM     71  C   UNL     1      -0.855  14.348 -20.524  0.00  0.00    +0.000 C 
ATOM     72  C   UNL     1       0.272  13.686 -20.778  0.00  0.00    +0.000 C 
ATOM     73  C   UNL     1      -1.943  14.148 -19.670  0.00  0.00    +0.000 C 
ATOM     74  C   UNL     1      -5.209  16.781 -16.686  0.00  0.00    +0.000 C 
ATOM     75  C   UNL     1      -6.266  17.538 -16.201  0.00  0.00    +0.000 C 
ATOM     76  C   UNL     1      -7.467  16.878 -15.491  0.00  0.00    +0.000 C 
ATOM     77  C   UNL     1      -5.842  18.661 -15.517  0.00  0.00    +0.000 C 
ATOM     78  C   UNL     1       8.449  19.128 -12.656  0.00  0.00    +0.000 C 
ATOM     79  C   UNL     1       9.391  18.594 -11.883  0.00  0.00    +0.000 C 
ATOM     80  C   UNL     1       8.182  20.405 -13.152  0.00  0.00    +0.000 C 
ATOM     81  C   UNL     1      -1.362  20.270  -7.380  0.00  0.00    +0.000 C 
ATOM     82  C   UNL     1      -1.996  20.136  -6.035  0.00  0.00    +0.000 C 
ATOM     83  C   UNL     1      -2.066  20.797  -8.490  0.00  0.00    +0.000 C 
ENDROOT
BRANCH  69  84
ATOM     84  C   UNL     1       4.881  18.005 -23.897  0.00  0.00    +0.000 C 
ATOM     85  C   UNL     1       4.976  18.234 -25.072  0.00  0.00    +0.000 C 
BRANCH  85  86
ATOM     86  C   UNL     1       5.093  18.527 -26.571  0.00  0.00    +0.000 C 
ATOM     87  C   UNL     1       5.200  18.781 -27.875  0.00  0.00    +0.000 C 
ENDBRANCH  85  86
ENDBRANCH  69  84
BRANCH  13  88
ATOM     88  C   UNL     1       1.526  17.716 -18.774  0.00  0.00    +0.000 C 
BRANCH  88  89
ATOM     89  O   UNL     1       1.179  17.370 -17.542  0.00  0.00    +0.000 OA
ATOM     90  H   UNL     1       1.730  17.845 -16.895  0.00  0.00    +0.000 HD
ENDBRANCH  88  89
ENDBRANCH  13  88
TORSDOF 4
ENDMDL
MODEL 9
REMARK VINA RESULT:      -7.9     15.018     22.598
REMARK  Name = Cyclosporin_A.pdbqt.pdb
REMARK  4 active torsions:
REMARK  status: ('A' for Active; 'I' for Inactive)
REMARK    1  A    between atoms: N_13  and  C_36
REMARK    2  A    between atoms: C_36  and  O_70
REMARK    3  A    between atoms: C_72  and  C_73
REMARK    4  A    between atoms: C_75  and  C_76
REMARK                            x       y       z     vdW  Elec       q    Type
REMARK                         _______ _______ _______ _____ _____    ______ ____
ROOT
ATOM      1  O   UNL     1       1.197 -16.236 -24.006  0.00  0.00    +0.000 OA
ATOM      2  O   UNL     1       0.352 -19.659 -20.281  0.00  0.00    +0.000 OA
ATOM      3  O   UNL     1      -2.700 -17.266 -17.474  0.00  0.00    +0.000 OA
ATOM      4  O   UNL     1       1.189 -11.467 -22.880  0.00  0.00    +0.000 OA
ATOM      5  O   UNL     1      -3.636 -20.397 -21.353  0.00  0.00    +0.000 OA
ATOM      6  O   UNL     1     -11.457 -12.970 -24.634  0.00  0.00    +0.000 OA
ATOM      7  O   UNL     1      -1.312 -13.082 -27.595  0.00  0.00    +0.000 OA
ATOM      8  O   UNL     1      -7.823  -9.673 -24.190  0.00  0.00    +0.000 OA
ATOM      9  O   UNL     1     -11.037 -17.230 -22.363  0.00  0.00    +0.000 OA
ATOM     10  O   UNL     1      -4.498 -10.185 -26.546  0.00  0.00    +0.000 OA
ATOM     11  O   UNL     1      -7.330 -19.223 -23.304  0.00  0.00    +0.000 OA
ATOM     12  N   UNL     1       0.267 -17.924 -21.136  0.00  0.00    +0.000 NA
ATOM     13  N   UNL     1       0.195 -15.008 -22.196  0.00  0.00    +0.000 NA
ATOM     14  N   UNL     1      -1.555 -18.499 -18.526  0.00  0.00    +0.000 NA
ATOM     15  N   UNL     1      -4.571 -18.919 -19.444  0.00  0.00    +0.000 NA
ATOM     16  N   UNL     1      -0.733 -12.593 -23.875  0.00  0.00    +0.000 NA
ATOM     17  N   UNL     1     -10.503 -13.436 -22.533  0.00  0.00    +0.000 N 
ATOM     18  N   UNL     1      -8.109 -11.973 -23.860  0.00  0.00    +0.000 N 
ATOM     19  N   UNL     1      -5.825 -11.159 -25.458  0.00  0.00    +0.000 NA
ATOM     20  N   UNL     1      -2.840 -13.378 -25.937  0.00  0.00    +0.000 NA
ATOM     21  N   UNL     1      -5.982 -17.772 -21.807  0.00  0.00    +0.000 NA
ATOM     22  N   UNL     1      -8.937 -16.108 -22.769  0.00  0.00    +0.000 NA
ATOM     23  C   UNL     1       0.371 -17.566 -22.448  0.00  0.00    +0.000 C 
ATOM     24  C   UNL     1      -1.056 -17.744 -19.509  0.00  0.00    +0.000 C 
ATOM     25  C   UNL     1       0.876 -13.824 -22.402  0.00  0.00    +0.000 C 
ATOM     26  C   UNL     1       0.964 -18.363 -23.410  0.00  0.00    +0.000 C 
ATOM     27  C   UNL     1      -0.559 -16.642 -18.656  0.00  0.00    +0.000 C 
ATOM     28  C   UNL     1       0.517 -16.236 -22.784  0.00  0.00    +0.000 C 
ATOM     29  C   UNL     1      -0.503 -18.702 -20.290  0.00  0.00    +0.000 C 
ATOM     30  C   UNL     1      -3.501 -19.215 -18.759  0.00  0.00    +0.000 C 
ATOM     31  C   UNL     1      -2.818 -18.065 -18.491  0.00  0.00    +0.000 C 
ATOM     32  C   UNL     1       0.241 -12.550 -22.854  0.00  0.00    +0.000 C 
ATOM     33  C   UNL     1       1.460 -19.422 -22.589  0.00  0.00    +0.000 C 
ATOM     34  C   UNL     1       1.620 -17.528 -24.251  0.00  0.00    +0.000 C 
ATOM     35  C   UNL     1       0.895 -19.135 -21.355  0.00  0.00    +0.000 C 
ATOM     36  C   UNL     1      -1.325 -17.593 -17.456  0.00  0.00    +0.000 C 
ATOM     37  C   UNL     1      -0.466 -12.516 -25.265  0.00  0.00    +0.000 C 
ATOM     38  C   UNL     1      -9.356 -12.175 -24.393  0.00  0.00    +0.000 A 
ATOM     39  C   UNL     1      -4.082 -19.258 -20.632  0.00  0.00    +0.000 C 
ATOM     40  C   UNL     1     -10.887 -14.795 -22.400  0.00  0.00    +0.000 C 
ATOM     41  C   UNL     1      -6.044 -10.599 -24.244  0.00  0.00    +0.000 C 
ATOM     42  C   UNL     1      -5.314 -19.955 -18.682  0.00  0.00    +0.000 C 
ATOM     43  C   UNL     1      -9.875 -11.776 -25.663  0.00  0.00    +0.000 A 
ATOM     44  C   UNL     1     -12.574 -14.550 -21.786  0.00  0.00    +0.000 C 
ATOM     45  C   UNL     1      -5.032 -18.630 -21.595  0.00  0.00    +0.000 C 
ATOM     46  C   UNL     1      -6.524  -9.208 -24.558  0.00  0.00    +0.000 C 
ATOM     47  C   UNL     1       0.859 -12.078 -25.567  0.00  0.00    +0.000 C 
ATOM     48  C   UNL     1     -10.381 -12.890 -23.783  0.00  0.00    +0.000 A 
ATOM     49  C   UNL     1      -1.395 -12.925 -26.165  0.00  0.00    +0.000 C 
ATOM     50  C   UNL     1      -7.384 -10.895 -24.054  0.00  0.00    +0.000 C 
ATOM     51  C   UNL     1     -10.301 -16.029 -22.559  0.00  0.00    +0.000 C 
ATOM     52  C   UNL     1      -3.685 -12.227 -25.608  0.00  0.00    +0.000 C 
ATOM     53  C   UNL     1      -9.186 -11.044 -26.784  0.00  0.00    +0.000 C 
ATOM     54  C   UNL     1     -11.145 -12.284 -25.768  0.00  0.00    +0.000 A 
ATOM     55  C   UNL     1      -4.459 -11.047 -25.459  0.00  0.00    +0.000 C 
ATOM     56  C   UNL     1      -8.265 -17.202 -22.926  0.00  0.00    +0.000 C 
ATOM     57  C   UNL     1      -4.433 -19.762 -22.076  0.00  0.00    +0.000 C 
ATOM     58  C   UNL     1     -11.762 -13.475 -22.041  0.00  0.00    +0.000 C 
ATOM     59  C   UNL     1       1.906 -11.774 -25.071  0.00  0.00    +0.000 C 
ATOM     60  C   UNL     1      -7.021 -18.003 -22.597  0.00  0.00    +0.000 C 
ATOM     61  C   UNL     1      -5.913  -9.872 -26.348  0.00  0.00    +0.000 C 
ATOM     62  C   UNL     1      -2.434 -13.413 -27.192  0.00  0.00    +0.000 C 
ATOM     63  C   UNL     1      -8.288 -18.448 -23.459  0.00  0.00    +0.000 C 
ATOM     64  H   UNL     1      -1.410 -13.338 -23.709  0.00  0.00    +0.000 HD
ATOM     65  H   UNL     1      -7.645 -12.795 -23.481  0.00  0.00    +0.000 HD
ATOM     66  H   UNL     1      -6.063 -16.997 -21.153  0.00  0.00    +0.000 HD
ATOM     67  H   UNL     1      -8.465 -15.278 -22.424  0.00  0.00    +0.000 HD
ATOM     68  C   UNL     1       2.165 -13.779 -22.598  0.00  0.00    +0.000 C 
ATOM     69  C   UNL     1       3.088 -12.877 -23.198  0.00  0.00    +0.000 C 
ATOM     70  C   UNL     1       2.343 -11.708 -23.708  0.00  0.00    +0.000 C 
ATOM     71  C   UNL     1       0.771 -16.274 -17.710  0.00  0.00    +0.000 C 
ATOM     72  C   UNL     1       1.339 -15.078 -17.567  0.00  0.00    +0.000 C 
ATOM     73  C   UNL     1      -0.214 -16.986 -17.019  0.00  0.00    +0.000 C 
ATOM     74  C   UNL     1      -4.161 -20.179 -17.868  0.00  0.00    +0.000 C 
ATOM     75  C   UNL     1      -4.957 -21.292 -18.103  0.00  0.00    +0.000 C 
ATOM     76  C   UNL     1      -5.740 -21.975 -16.962  0.00  0.00    +0.000 C 
ATOM     77  C   UNL     1      -5.745 -21.150 -19.229  0.00  0.00    +0.000 C 
ATOM     78  C   UNL     1      -6.032  -7.729 -24.922  0.00  0.00    +0.000 C 
ATOM     79  C   UNL     1      -6.514  -6.505 -24.722  0.00  0.00    +0.000 C 
ATOM     80  C   UNL     1      -5.831  -8.543 -26.038  0.00  0.00    +0.000 C 
ATOM     81  C   UNL     1     -13.101 -15.768 -21.636  0.00  0.00    +0.000 C 
ATOM     82  C   UNL     1     -14.491 -15.977 -21.133  0.00  0.00    +0.000 C 
ATOM     83  C   UNL     1     -12.249 -16.853 -21.956  0.00  0.00    +0.000 C 
ENDROOT
BRANCH  69  84
ATOM     84  C   UNL     1       4.401 -13.188 -23.622  0.00  0.00    +0.000 C 
ATOM     85  C   UNL     1       5.519 -13.452 -23.975  0.00  0.00    +0.000 C 
BRANCH  85  86
ATOM     86  C   UNL     1       6.946 -13.785 -24.421  0.00  0.00    +0.000 C 
ATOM     87  C   UNL     1       8.189 -14.071 -24.805  0.00  0.00    +0.000 C 
ENDBRANCH  85  86
ENDBRANCH  69  84
BRANCH  13  88
ATOM     88  C   UNL     1      -1.103 -14.916 -21.547  0.00  0.00    +0.000 C 
BRANCH  88  89
ATOM     89  O   UNL     1      -2.292 -14.813 -20.970  0.00  0.00    +0.000 OA
ATOM     90  H   UNL     1      -2.320 -14.022 -20.403  0.00  0.00    +0.000 HD
ENDBRANCH  88  89
ENDBRANCH  13  88
TORSDOF 4
ENDMDL
