MODEL 1
REMARK VINA RESULT:      -6.1      0.000      0.000
REMARK  Name = CyclosporineA.pdb
REMARK  40 active torsions:
REMARK  status: ('A' for Active; 'I' for Inactive)
REMARK    1  A    between atoms: C1_1  and  C78_78
REMARK    2  A    between atoms: N7_7  and  C8_8
REMARK    3  A    between atoms: C9_9  and  C15_15
REMARK    4  A    between atoms: N11_11  and  C20_20
REMARK    5  A    between atoms: C12_12  and  C21_21
REMARK    6  A    between atoms: N14_14  and  C23_23
REMARK    7  A    between atoms: C15_15  and  C16_16
REMARK    8  A    between atoms: C16_16  and  C17_17
REMARK    9  A    between atoms: C16_16  and  C18_18
REMARK   10  A    between atoms: C21_21  and  C82_82
REMARK   11  A    between atoms: C24_24  and  C25_25
REMARK   12  A    between atoms: C25_25  and  C30_30
REMARK   13  A    between atoms: C25_25  and  C31_31
REMARK   14  A    between atoms: C26_26  and  O27_27
REMARK   15  A    between atoms: N28_28  and  C29_29
REMARK   16  A    between atoms: C32_32  and  C34_34
REMARK   17  A    between atoms: C34_34  and  C35_35
REMARK   18  A    between atoms: C34_34  and  O40_40
REMARK   19  A    between atoms: C35_35  and  C36_36
REMARK   20  A    between atoms: C35_35  and  C41_41
REMARK   21  A    between atoms: C36_36  and  C37_37
REMARK   22  A    between atoms: C38_38  and  C39_39
REMARK   23  A    between atoms: C44_44  and  C45_45
REMARK   24  A    between atoms: C45_45  and  C46_46
REMARK   25  A    between atoms: N49_49  and  C77_77
REMARK   26  A    between atoms: C53_53  and  C57_57
REMARK   27  A    between atoms: C57_57  and  C58_58
REMARK   28  A    between atoms: C58_58  and  C59_59
REMARK   29  A    between atoms: C58_58  and  C76_76
REMARK   30  A    between atoms: C61_61  and  C62_62
REMARK   31  A    between atoms: C62_62  and  C63_63
REMARK   32  A    between atoms: C62_62  and  C64_64
REMARK   33  A    between atoms: N66_66  and  C68_68
REMARK   34  A    between atoms: C67_67  and  C75_75
REMARK   35  A    between atoms: C73_73  and  C74_74
REMARK   36  A    between atoms: C75_75  and  C79_79
REMARK   37  A    between atoms: C79_79  and  C80_80
REMARK   38  A    between atoms: C79_79  and  C81_81
REMARK   39  A    between atoms: C82_82  and  C83_83
REMARK   40  A    between atoms: C82_82  and  C84_84
REMARK                            x       y       z     vdW  Elec       q    Type
REMARK                         _______ _______ _______ _____ _____    ______ ____
ROOT
ATOM      1  C1  UNK     0      -1.721   0.591 -20.218  0.00  0.00    +0.000 C 
ATOM      2  C2  UNK     0      -1.993  -0.761 -20.934  0.00  0.00    +0.000 C 
ATOM      3  N3  UNK     0      -0.352   0.954 -20.548  0.00  0.00    +0.000 N 
ATOM      4  C4  UNK     0       0.108   2.249 -20.561  0.00  0.00    +0.000 C 
ATOM      5  O5  UNK     0      -0.625   3.220 -20.383  0.00  0.00    +0.000 OA
ATOM      6  C6  UNK     0      -1.976  -1.893 -20.203  0.00  0.00    +0.000 C 
ATOM      7  N7  UNK     0      -2.216  -0.746 -22.348  0.00  0.00    +0.000 N 
ATOM      8  C8  UNK     0      -2.302   0.527 -23.089  0.00  0.00    +0.000 C 
ATOM      9  C9  UNK     0      -2.353  -2.006 -23.167  0.00  0.00    +0.000 C 
ATOM     10  C10 UNK     0      -0.946  -2.575 -23.569  0.00  0.00    +0.000 C 
ATOM     11  N11 UNK     0      -0.776  -3.992 -23.649  0.00  0.00    +0.000 N 
ATOM     12  C12 UNK     0       0.562  -4.658 -23.516  0.00  0.00    +0.000 C 
ATOM     13  C13 UNK     0       1.042  -5.242 -24.886  0.00  0.00    +0.000 C 
ATOM     14  N14 UNK     0       1.942  -6.341 -24.851  0.00  0.00    +0.000 N 
ATOM     15  C19 UNK     0       0.073  -1.725 -23.813  0.00  0.00    +0.000 C 
ATOM     16  C20 UNK     0      -1.916  -4.913 -23.766  0.00  0.00    +0.000 C 
ATOM     17  C22 UNK     0       0.581  -4.773 -26.062  0.00  0.00    +0.000 C 
ATOM     18  C23 UNK     0       1.286  -7.626 -25.240  0.00  0.00    +0.000 C 
ATOM     19  C24 UNK     0       3.350  -6.203 -25.445  0.00  0.00    +0.000 C 
ATOM     20  C26 UNK     0       4.206  -7.510 -25.086  0.00  0.00    +0.000 C 
ATOM     21  N28 UNK     0       5.624  -7.411 -25.440  0.00  0.00    +0.000 NA
ATOM     22  C29 UNK     0       5.835  -7.749 -26.852  0.00  0.00    +0.000 C 
ATOM     23  C32 UNK     0       6.572  -8.134 -24.531  0.00  0.00    +0.000 C 
ATOM     24  C33 UNK     0       7.964  -7.492 -24.779  0.00  0.00    +0.000 C 
ATOM     25  O42 UNK     0       8.926  -8.086 -25.253  0.00  0.00    +0.000 OA
ATOM     26  N43 UNK     0       7.972  -6.151 -24.439  0.00  0.00    +0.000 N 
ATOM     27  C44 UNK     0       9.140  -5.303 -24.564  0.00  0.00    +0.000 C 
ATOM     28  C47 UNK     0      10.095  -5.583 -23.378  0.00  0.00    +0.000 C 
ATOM     29  C48 UNK     0      11.332  -6.004 -23.716  0.00  0.00    +0.000 C 
ATOM     30  N49 UNK     0       9.706  -5.423 -22.022  0.00  0.00    +0.000 N 
ATOM     31  C50 UNK     0       8.343  -5.057 -21.543  0.00  0.00    +0.000 C 
ATOM     32  C51 UNK     0       8.356  -3.742 -20.742  0.00  0.00    +0.000 C 
ATOM     33  N52 UNK     0       9.377  -2.887 -21.098  0.00  0.00    +0.000 N 
ATOM     34  C53 UNK     0       9.409  -1.500 -20.658  0.00  0.00    +0.000 C 
ATOM     35  C54 UNK     0       8.399  -0.694 -21.517  0.00  0.00    +0.000 C 
ATOM     36  N55 UNK     0       8.003   0.499 -20.941  0.00  0.00    +0.000 N 
ATOM     37  O56 UNK     0       7.509  -3.461 -19.898  0.00  0.00    +0.000 OA
ATOM     38  O60 UNK     0       8.034  -1.064 -22.629  0.00  0.00    +0.000 OA
ATOM     39  C61 UNK     0       6.954   1.368 -21.492  0.00  0.00    +0.000 C 
ATOM     40  C65 UNK     0       5.578   0.747 -21.106  0.00  0.00    +0.000 C 
ATOM     41  N66 UNK     0       5.270   0.640 -19.736  0.00  0.00    +0.000 N 
ATOM     42  C67 UNK     0       3.986  -0.042 -19.399  0.00  0.00    +0.000 C 
ATOM     43  C68 UNK     0       5.781   1.601 -18.758  0.00  0.00    +0.000 C 
ATOM     44  O69 UNK     0       4.766   0.376 -21.960  0.00  0.00    +0.000 OA
ATOM     45  C70 UNK     0       2.866   1.024 -19.480  0.00  0.00    +0.000 C 
ATOM     46  N71 UNK     0       2.383   1.225 -20.761  0.00  0.00    +0.000 N 
ATOM     47  O72 UNK     0       2.518   1.707 -18.521  0.00  0.00    +0.000 OA
ATOM     48  C73 UNK     0       1.560   2.399 -21.060  0.00  0.00    +0.000 C 
ATOM     49  C74 UNK     0       1.526   2.637 -22.566  0.00  0.00    +0.000 C 
ATOM     50  C77 UNK     0      10.570  -5.895 -20.922  0.00  0.00    +0.000 C 
ATOM     51  C78 UNK     0      -1.926   0.633 -18.698  0.00  0.00    +0.000 C 
ATOM     52  H2  UNK     0       0.309   0.208 -20.729  0.00  0.00    +0.000 HD
ATOM     53  H58 UNK     0       7.063  -5.721 -24.330  0.00  0.00    +0.000 HD
ATOM     54  H69 UNK     0       9.858  -3.149 -21.955  0.00  0.00    +0.000 HD
ATOM     55  H71 UNK     0       8.150   0.564 -19.943  0.00  0.00    +0.000 HD
ATOM     56  H90 UNK     0       2.985   0.866 -21.505  0.00  0.00    +0.000 HD
ENDROOT
BRANCH  39  57
ATOM     57  C62 UNK     0       7.091   1.712 -23.000  0.00  0.00    +0.000 C 
ATOM     58  C63 UNK     0       5.945   2.628 -23.457  0.00  0.00    +0.000 C 
ATOM     59  C64 UNK     0       8.418   2.421 -23.305  0.00  0.00    +0.000 C 
ENDBRANCH  39  57
BRANCH  19  60
ATOM     60  C25 UNK     0       4.131  -4.908 -25.005  0.00  0.00    +0.000 C 
ATOM     61  C30 UNK     0       3.913  -3.688 -25.904  0.00  0.00    +0.000 C 
ATOM     62  C31 UNK     0       3.996  -4.520 -23.530  0.00  0.00    +0.000 C 
ENDBRANCH  19  60
BRANCH  20  63
ATOM     63  O27 UNK     0       4.034  -7.815 -23.696  0.00  0.00    +0.000 OA
ATOM     64  H34 UNK     0       3.408  -8.570 -23.692  0.00  0.00    +0.000 HD
ENDBRANCH  20  63
BRANCH  27  65
ATOM     65  C45 UNK     0       8.744  -3.826 -24.738  0.00  0.00    +0.000 C 
ATOM     66  C46 UNK     0       9.939  -2.900 -24.917  0.00  0.00    +0.000 C 
ENDBRANCH  27  65
BRANCH  23  67
ATOM     67  C34 UNK     0       6.618  -9.692 -24.612  0.00  0.00    +0.000 C 
BRANCH  67  68
ATOM     68  C35 UNK     0       7.443 -10.389 -23.485  0.00  0.00    +0.000 C 
ATOM     69  C41 UNK     0       8.658 -11.177 -23.982  0.00  0.00    +0.000 C 
BRANCH  68  70
ATOM     70  C36 UNK     0       6.505 -11.305 -22.653  0.00  0.00    +0.000 C 
BRANCH  70  71
ATOM     71  C37 UNK     0       6.732 -12.775 -22.889  0.00  0.00    +0.000 C 
ATOM     72  C38 UNK     0       5.877 -13.568 -23.551  0.00  0.00    +0.000 C 
ATOM     73  C39 UNK     0       6.094 -15.027 -23.779  0.00  0.00    +0.000 C 
ENDBRANCH  70  71
ENDBRANCH  68  70
ENDBRANCH  67  68
BRANCH  67  74
ATOM     74  O40 UNK     0       5.277 -10.223 -24.505  0.00  0.00    +0.000 OA
ATOM     75  H54 UNK     0       5.243 -10.673 -23.637  0.00  0.00    +0.000 HD
ENDBRANCH  67  74
ENDBRANCH  23  67
BRANCH  34  76
ATOM     76  C57 UNK     0      10.840  -0.959 -20.810  0.00  0.00    +0.000 C 
BRANCH  76  77
ATOM     77  C58 UNK     0      11.456  -0.282 -19.569  0.00  0.00    +0.000 C 
ATOM     78  C59 UNK     0      11.558   1.236 -19.718  0.00  0.00    +0.000 C 
ATOM     79  C76 UNK     0      10.615  -0.620 -18.332  0.00  0.00    +0.000 C 
ENDBRANCH  76  77
ENDBRANCH  34  76
BRANCH  12  80
ATOM     80  C21 UNK     0       0.562  -5.714 -22.373  0.00  0.00    +0.000 C 
BRANCH  80  81
ATOM     81  C82 UNK     0       1.228  -5.270 -21.055  0.00  0.00    +0.000 C 
ATOM     82  C83 UNK     0       2.377  -6.188 -20.643  0.00  0.00    +0.000 C 
ATOM     83  C84 UNK     0       0.181  -5.228 -19.938  0.00  0.00    +0.000 C 
ENDBRANCH  80  81
ENDBRANCH  12  80
BRANCH  42  84
ATOM     84  C75 UNK     0       4.044  -0.743 -18.025  0.00  0.00    +0.000 C 
BRANCH  84  85
ATOM     85  C79 UNK     0       3.708  -2.248 -18.058  0.00  0.00    +0.000 C 
ATOM     86  C80 UNK     0       4.399  -2.991 -19.200  0.00  0.00    +0.000 C 
ATOM     87  C81 UNK     0       2.192  -2.433 -18.175  0.00  0.00    +0.000 C 
ENDBRANCH  84  85
ENDBRANCH  42  84
BRANCH   9  88
ATOM     88  C15 UNK     0      -3.316  -1.885 -24.384  0.00  0.00    +0.000 C 
BRANCH  88  89
ATOM     89  C16 UNK     0      -4.792  -2.203 -24.046  0.00  0.00    +0.000 C 
ATOM     90  C17 UNK     0      -4.953  -3.000 -22.754  0.00  0.00    +0.000 C 
ATOM     91  C18 UNK     0      -5.592  -0.900 -23.949  0.00  0.00    +0.000 C 
ENDBRANCH  88  89
ENDBRANCH   9  88
TORSDOF 17
ENDMDL
MODEL 2
REMARK VINA RESULT:      -5.9      3.542      9.591
REMARK  Name = CyclosporineA.pdb
REMARK  40 active torsions:
REMARK  status: ('A' for Active; 'I' for Inactive)
REMARK    1  A    between atoms: C1_1  and  C78_78
REMARK    2  A    between atoms: N7_7  and  C8_8
REMARK    3  A    between atoms: C9_9  and  C15_15
REMARK    4  A    between atoms: N11_11  and  C20_20
REMARK    5  A    between atoms: C12_12  and  C21_21
REMARK    6  A    between atoms: N14_14  and  C23_23
REMARK    7  A    between atoms: C15_15  and  C16_16
REMARK    8  A    between atoms: C16_16  and  C17_17
REMARK    9  A    between atoms: C16_16  and  C18_18
REMARK   10  A    between atoms: C21_21  and  C82_82
REMARK   11  A    between atoms: C24_24  and  C25_25
REMARK   12  A    between atoms: C25_25  and  C30_30
REMARK   13  A    between atoms: C25_25  and  C31_31
REMARK   14  A    between atoms: C26_26  and  O27_27
REMARK   15  A    between atoms: N28_28  and  C29_29
REMARK   16  A    between atoms: C32_32  and  C34_34
REMARK   17  A    between atoms: C34_34  and  C35_35
REMARK   18  A    between atoms: C34_34  and  O40_40
REMARK   19  A    between atoms: C35_35  and  C36_36
REMARK   20  A    between atoms: C35_35  and  C41_41
REMARK   21  A    between atoms: C36_36  and  C37_37
REMARK   22  A    between atoms: C38_38  and  C39_39
REMARK   23  A    between atoms: C44_44  and  C45_45
REMARK   24  A    between atoms: C45_45  and  C46_46
REMARK   25  A    between atoms: N49_49  and  C77_77
REMARK   26  A    between atoms: C53_53  and  C57_57
REMARK   27  A    between atoms: C57_57  and  C58_58
REMARK   28  A    between atoms: C58_58  and  C59_59
REMARK   29  A    between atoms: C58_58  and  C76_76
REMARK   30  A    between atoms: C61_61  and  C62_62
REMARK   31  A    between atoms: C62_62  and  C63_63
REMARK   32  A    between atoms: C62_62  and  C64_64
REMARK   33  A    between atoms: N66_66  and  C68_68
REMARK   34  A    between atoms: C67_67  and  C75_75
REMARK   35  A    between atoms: C73_73  and  C74_74
REMARK   36  A    between atoms: C75_75  and  C79_79
REMARK   37  A    between atoms: C79_79  and  C80_80
REMARK   38  A    between atoms: C79_79  and  C81_81
REMARK   39  A    between atoms: C82_82  and  C83_83
REMARK   40  A    between atoms: C82_82  and  C84_84
REMARK                            x       y       z     vdW  Elec       q    Type
REMARK                         _______ _______ _______ _____ _____    ______ ____
ROOT
ATOM      1  C1  UNK     0       9.836  -1.587 -30.079  0.00  0.00    +0.000 C 
ATOM      2  C2  UNK     0       8.555  -2.466 -30.070  0.00  0.00    +0.000 C 
ATOM      3  N3  UNK     0      10.217  -1.414 -28.686  0.00  0.00    +0.000 N 
ATOM      4  C4  UNK     0      11.504  -1.165 -28.277  0.00  0.00    +0.000 C 
ATOM      5  O5  UNK     0      12.461  -1.157 -29.048  0.00  0.00    +0.000 OA
ATOM      6  C6  UNK     0       7.362  -1.869 -30.270  0.00  0.00    +0.000 C 
ATOM      7  N7  UNK     0       8.695  -3.867 -29.814  0.00  0.00    +0.000 N 
ATOM      8  C8  UNK     0      10.028  -4.483 -29.679  0.00  0.00    +0.000 C 
ATOM      9  C9  UNK     0       7.513  -4.789 -29.646  0.00  0.00    +0.000 C 
ATOM     10  C10 UNK     0       6.970  -4.751 -28.173  0.00  0.00    +0.000 C 
ATOM     11  N11 UNK     0       5.565  -4.890 -27.954  0.00  0.00    +0.000 N 
ATOM     12  C12 UNK     0       4.880  -4.380 -26.720  0.00  0.00    +0.000 C 
ATOM     13  C13 UNK     0       4.415  -5.558 -25.802  0.00  0.00    +0.000 C 
ATOM     14  N14 UNK     0       3.310  -5.322 -24.941  0.00  0.00    +0.000 N 
ATOM     15  C19 UNK     0       7.832  -4.571 -27.149  0.00  0.00    +0.000 C 
ATOM     16  C20 UNK     0       4.666  -5.455 -28.971  0.00  0.00    +0.000 C 
ATOM     17  C22 UNK     0       4.988  -6.777 -25.860  0.00  0.00    +0.000 C 
ATOM     18  C23 UNK     0       2.069  -6.013 -25.403  0.00  0.00    +0.000 C 
ATOM     19  C24 UNK     0       3.490  -5.403 -23.419  0.00  0.00    +0.000 C 
ATOM     20  C26 UNK     0       2.150  -4.893 -22.700  0.00  0.00    +0.000 C 
ATOM     21  N28 UNK     0       2.270  -4.749 -21.248  0.00  0.00    +0.000 NA
ATOM     22  C29 UNK     0       2.055  -6.035 -20.575  0.00  0.00    +0.000 C 
ATOM     23  C32 UNK     0       1.462  -3.643 -20.637  0.00  0.00    +0.000 C 
ATOM     24  C33 UNK     0       2.114  -3.361 -19.256  0.00  0.00    +0.000 C 
ATOM     25  O42 UNK     0       1.557  -3.540 -18.178  0.00  0.00    +0.000 OA
ATOM     26  N43 UNK     0       3.419  -2.925 -19.390  0.00  0.00    +0.000 N 
ATOM     27  C44 UNK     0       4.267  -2.584 -18.265  0.00  0.00    +0.000 C 
ATOM     28  C47 UNK     0       3.878  -1.178 -17.748  0.00  0.00    +0.000 C 
ATOM     29  C48 UNK     0       3.478  -1.122 -16.461  0.00  0.00    +0.000 C 
ATOM     30  N49 UNK     0       3.921  -0.018 -18.567  0.00  0.00    +0.000 N 
ATOM     31  C50 UNK     0       4.253   0.012 -20.019  0.00  0.00    +0.000 C 
ATOM     32  C51 UNK     0       5.493   0.882 -20.300  0.00  0.00    +0.000 C 
ATOM     33  N52 UNK     0       6.368   0.958 -19.238  0.00  0.00    +0.000 N 
ATOM     34  C53 UNK     0       7.711   1.500 -19.384  0.00  0.00    +0.000 C 
ATOM     35  C54 UNK     0       8.597   0.427 -20.071  0.00  0.00    +0.000 C 
ATOM     36  N55 UNK     0       9.737   0.939 -20.661  0.00  0.00    +0.000 N 
ATOM     37  O56 UNK     0       5.705   1.419 -21.384  0.00  0.00    +0.000 OA
ATOM     38  O60 UNK     0       8.328  -0.770 -20.041  0.00  0.00    +0.000 OA
ATOM     39  C61 UNK     0      10.659   0.148 -21.489  0.00  0.00    +0.000 C 
ATOM     40  C65 UNK     0      10.017   0.003 -22.901  0.00  0.00    +0.000 C 
ATOM     41  N66 UNK     0       9.792   1.181 -23.641  0.00  0.00    +0.000 N 
ATOM     42  C67 UNK     0       9.092   1.015 -24.950  0.00  0.00    +0.000 C 
ATOM     43  C68 UNK     0      10.660   2.351 -23.503  0.00  0.00    +0.000 C 
ATOM     44  O69 UNK     0       9.727  -1.099 -23.378  0.00  0.00    +0.000 OA
ATOM     45  C70 UNK     0      10.169   0.659 -26.003  0.00  0.00    +0.000 C 
ATOM     46  N71 UNK     0      10.485  -0.687 -26.041  0.00  0.00    +0.000 N 
ATOM     47  O72 UNK     0      10.769   1.503 -26.663  0.00  0.00    +0.000 OA
ATOM     48  C73 UNK     0      11.687  -1.141 -26.745  0.00  0.00    +0.000 C 
ATOM     49  C74 UNK     0      12.056  -2.548 -26.286  0.00  0.00    +0.000 C 
ATOM     50  C77 UNK     0       3.348   1.261 -18.103  0.00  0.00    +0.000 C 
ATOM     51  C78 UNK     0       9.747  -0.223 -30.775  0.00  0.00    +0.000 C 
ATOM     52  H2  UNK     0       9.485  -1.430 -27.986  0.00  0.00    +0.000 HD
ATOM     53  H58 UNK     0       3.845  -3.086 -20.293  0.00  0.00    +0.000 HD
ATOM     54  H69 UNK     0       6.179   0.289 -18.495  0.00  0.00    +0.000 HD
ATOM     55  H71 UNK     0       9.714   1.931 -20.853  0.00  0.00    +0.000 HD
ATOM     56  H90 UNK     0      10.189  -1.219 -25.219  0.00  0.00    +0.000 HD
ENDROOT
BRANCH  39  57
ATOM     57  C62 UNK     0      11.132  -1.194 -20.870  0.00  0.00    +0.000 C 
ATOM     58  C63 UNK     0      12.185  -1.867 -21.765  0.00  0.00    +0.000 C 
ATOM     59  C64 UNK     0      11.748  -0.995 -19.478  0.00  0.00    +0.000 C 
ENDBRANCH  39  57
BRANCH  19  60
ATOM     60  C25 UNK     0       4.735  -4.620 -22.856  0.00  0.00    +0.000 C 
ATOM     61  C30 UNK     0       6.050  -5.405 -22.874  0.00  0.00    +0.000 C 
ATOM     62  C31 UNK     0       4.943  -3.211 -23.415  0.00  0.00    +0.000 C 
ENDBRANCH  19  60
BRANCH  20  63
ATOM     63  O27 UNK     0       1.726  -3.670 -23.315  0.00  0.00    +0.000 OA
ATOM     64  H34 UNK     0       2.342  -3.555 -24.069  0.00  0.00    +0.000 HD
ENDBRANCH  20  63
BRANCH  27  65
ATOM     65  C45 UNK     0       5.756  -2.753 -18.613  0.00  0.00    +0.000 C 
ATOM     66  C46 UNK     0       5.998  -3.684 -19.794  0.00  0.00    +0.000 C 
ENDBRANCH  27  65
BRANCH  23  67
ATOM     67  C34 UNK     0      -0.082  -3.836 -20.533  0.00  0.00    +0.000 C 
BRANCH  67  68
ATOM     68  C35 UNK     0      -0.921  -2.524 -20.626  0.00  0.00    +0.000 C 
ATOM     69  C41 UNK     0      -0.118  -1.282 -21.022  0.00  0.00    +0.000 C 
BRANCH  68  70
ATOM     70  C36 UNK     0      -1.658  -2.287 -19.280  0.00  0.00    +0.000 C 
BRANCH  70  71
ATOM     71  C37 UNK     0      -2.438  -0.999 -19.236  0.00  0.00    +0.000 C 
ATOM     72  C38 UNK     0      -3.027  -0.518 -18.132  0.00  0.00    +0.000 C 
ATOM     73  C39 UNK     0      -3.808   0.753 -18.087  0.00  0.00    +0.000 C 
ENDBRANCH  70  71
ENDBRANCH  68  70
ENDBRANCH  67  68
BRANCH  67  74
ATOM     74  O40 UNK     0      -0.541  -4.676 -21.617  0.00  0.00    +0.000 OA
ATOM     75  H54 UNK     0      -0.234  -5.578 -21.395  0.00  0.00    +0.000 HD
ENDBRANCH  67  74
ENDBRANCH  23  67
BRANCH  34  76
ATOM     76  C57 UNK     0       8.253   1.876 -17.995  0.00  0.00    +0.000 C 
BRANCH  76  77
ATOM     77  C58 UNK     0       9.777   1.753 -17.795  0.00  0.00    +0.000 C 
ATOM     78  C59 UNK     0      10.441   3.100 -17.505  0.00  0.00    +0.000 C 
ATOM     79  C76 UNK     0      10.065   0.782 -16.644  0.00  0.00    +0.000 C 
ENDBRANCH  76  77
ENDBRANCH  34  76
BRANCH  12  80
ATOM     80  C21 UNK     0       3.727  -3.395 -27.074  0.00  0.00    +0.000 C 
BRANCH  80  81
ATOM     81  C82 UNK     0       4.007  -1.908 -26.778  0.00  0.00    +0.000 C 
ATOM     82  C83 UNK     0       2.878  -1.248 -25.989  0.00  0.00    +0.000 C 
ATOM     83  C84 UNK     0       4.223  -1.152 -28.093  0.00  0.00    +0.000 C 
ENDBRANCH  80  81
ENDBRANCH  12  80
BRANCH  42  84
ATOM     84  C75 UNK     0       8.274   2.265 -25.332  0.00  0.00    +0.000 C 
BRANCH  84  85
ATOM     85  C79 UNK     0       6.745   2.055 -25.336  0.00  0.00    +0.000 C 
ATOM     86  C80 UNK     0       6.000   3.065 -24.463  0.00  0.00    +0.000 C 
ATOM     87  C81 UNK     0       6.421   0.635 -24.861  0.00  0.00    +0.000 C 
ENDBRANCH  84  85
ENDBRANCH  42  84
BRANCH   9  88
ATOM     88  C15 UNK     0       7.746  -6.242 -30.155  0.00  0.00    +0.000 C 
BRANCH  88  89
ATOM     89  C16 UNK     0       7.367  -6.450 -31.641  0.00  0.00    +0.000 C 
ATOM     90  C17 UNK     0       6.515  -5.316 -32.207  0.00  0.00    +0.000 C 
ATOM     91  C18 UNK     0       8.637  -6.606 -32.482  0.00  0.00    +0.000 C 
ENDBRANCH  88  89
ENDBRANCH   9  88
TORSDOF 17
ENDMDL
MODEL 3
REMARK VINA RESULT:      -5.7      4.354      8.297
REMARK  Name = CyclosporineA.pdb
REMARK  40 active torsions:
REMARK  status: ('A' for Active; 'I' for Inactive)
REMARK    1  A    between atoms: C1_1  and  C78_78
REMARK    2  A    between atoms: N7_7  and  C8_8
REMARK    3  A    between atoms: C9_9  and  C15_15
REMARK    4  A    between atoms: N11_11  and  C20_20
REMARK    5  A    between atoms: C12_12  and  C21_21
REMARK    6  A    between atoms: N14_14  and  C23_23
REMARK    7  A    between atoms: C15_15  and  C16_16
REMARK    8  A    between atoms: C16_16  and  C17_17
REMARK    9  A    between atoms: C16_16  and  C18_18
REMARK   10  A    between atoms: C21_21  and  C82_82
REMARK   11  A    between atoms: C24_24  and  C25_25
REMARK   12  A    between atoms: C25_25  and  C30_30
REMARK   13  A    between atoms: C25_25  and  C31_31
REMARK   14  A    between atoms: C26_26  and  O27_27
REMARK   15  A    between atoms: N28_28  and  C29_29
REMARK   16  A    between atoms: C32_32  and  C34_34
REMARK   17  A    between atoms: C34_34  and  C35_35
REMARK   18  A    between atoms: C34_34  and  O40_40
REMARK   19  A    between atoms: C35_35  and  C36_36
REMARK   20  A    between atoms: C35_35  and  C41_41
REMARK   21  A    between atoms: C36_36  and  C37_37
REMARK   22  A    between atoms: C38_38  and  C39_39
REMARK   23  A    between atoms: C44_44  and  C45_45
REMARK   24  A    between atoms: C45_45  and  C46_46
REMARK   25  A    between atoms: N49_49  and  C77_77
REMARK   26  A    between atoms: C53_53  and  C57_57
REMARK   27  A    between atoms: C57_57  and  C58_58
REMARK   28  A    between atoms: C58_58  and  C59_59
REMARK   29  A    between atoms: C58_58  and  C76_76
REMARK   30  A    between atoms: C61_61  and  C62_62
REMARK   31  A    between atoms: C62_62  and  C63_63
REMARK   32  A    between atoms: C62_62  and  C64_64
REMARK   33  A    between atoms: N66_66  and  C68_68
REMARK   34  A    between atoms: C67_67  and  C75_75
REMARK   35  A    between atoms: C73_73  and  C74_74
REMARK   36  A    between atoms: C75_75  and  C79_79
REMARK   37  A    between atoms: C79_79  and  C80_80
REMARK   38  A    between atoms: C79_79  and  C81_81
REMARK   39  A    between atoms: C82_82  and  C83_83
REMARK   40  A    between atoms: C82_82  and  C84_84
REMARK                            x       y       z     vdW  Elec       q    Type
REMARK                         _______ _______ _______ _____ _____    ______ ____
ROOT
ATOM      1  C1  UNK     0      -6.188   1.658 -22.418  0.00  0.00    +0.000 C 
ATOM      2  C2  UNK     0      -5.475   0.736 -21.390  0.00  0.00    +0.000 C 
ATOM      3  N3  UNK     0      -5.286   1.770 -23.553  0.00  0.00    +0.000 N 
ATOM      4  C4  UNK     0      -5.706   2.043 -24.832  0.00  0.00    +0.000 C 
ATOM      5  O5  UNK     0      -6.893   2.126 -25.142  0.00  0.00    +0.000 OA
ATOM      6  C6  UNK     0      -4.890   1.300 -20.315  0.00  0.00    +0.000 C 
ATOM      7  N7  UNK     0      -5.443  -0.671 -21.650  0.00  0.00    +0.000 N 
ATOM      8  C8  UNK     0      -6.166  -1.246 -22.800  0.00  0.00    +0.000 C 
ATOM      9  C9  UNK     0      -4.665  -1.642 -20.797  0.00  0.00    +0.000 C 
ATOM     10  C10 UNK     0      -3.159  -1.702 -21.238  0.00  0.00    +0.000 C 
ATOM     11  N11 UNK     0      -2.157  -1.902 -20.238  0.00  0.00    +0.000 N 
ATOM     12  C12 UNK     0      -0.729  -1.483 -20.423  0.00  0.00    +0.000 C 
ATOM     13  C13 UNK     0       0.208  -2.724 -20.591  0.00  0.00    +0.000 C 
ATOM     14  N14 UNK     0       1.570  -2.573 -20.217  0.00  0.00    +0.000 N 
ATOM     15  C19 UNK     0      -2.838  -1.546 -22.539  0.00  0.00    +0.000 C 
ATOM     16  C20 UNK     0      -2.476  -2.443 -18.909  0.00  0.00    +0.000 C 
ATOM     17  C22 UNK     0      -0.257  -3.917 -21.013  0.00  0.00    +0.000 C 
ATOM     18  C23 UNK     0       1.893  -3.282 -18.942  0.00  0.00    +0.000 C 
ATOM     19  C24 UNK     0       2.679  -2.729 -21.267  0.00  0.00    +0.000 C 
ATOM     20  C26 UNK     0       4.083  -2.306 -20.619  0.00  0.00    +0.000 C 
ATOM     21  N28 UNK     0       5.186  -2.236 -21.580  0.00  0.00    +0.000 NA
ATOM     22  C29 UNK     0       5.771  -3.563 -21.803  0.00  0.00    +0.000 C 
ATOM     23  C32 UNK     0       6.226  -1.193 -21.298  0.00  0.00    +0.000 C 
ATOM     24  C33 UNK     0       6.966  -0.963 -22.645  0.00  0.00    +0.000 C 
ATOM     25  O42 UNK     0       8.149  -1.218 -22.837  0.00  0.00    +0.000 OA
ATOM     26  N43 UNK     0       6.110  -0.475 -23.616  0.00  0.00    +0.000 N 
ATOM     27  C44 UNK     0       6.531  -0.165 -24.967  0.00  0.00    +0.000 C 
ATOM     28  C47 UNK     0       7.266   1.198 -24.967  0.00  0.00    +0.000 C 
ATOM     29  C48 UNK     0       8.540   1.170 -25.412  0.00  0.00    +0.000 C 
ATOM     30  N49 UNK     0       6.658   2.400 -24.518  0.00  0.00    +0.000 N 
ATOM     31  C50 UNK     0       5.298   2.520 -23.921  0.00  0.00    +0.000 C 
ATOM     32  C51 UNK     0       4.392   3.446 -24.754  0.00  0.00    +0.000 C 
ATOM     33  N52 UNK     0       4.729   3.496 -26.090  0.00  0.00    +0.000 N 
ATOM     34  C53 UNK     0       3.849   4.092 -27.084  0.00  0.00    +0.000 C 
ATOM     35  C54 UNK     0       2.703   3.090 -27.383  0.00  0.00    +0.000 C 
ATOM     36  N55 UNK     0       1.586   3.673 -27.950  0.00  0.00    +0.000 N 
ATOM     37  O56 UNK     0       3.431   4.048 -24.281  0.00  0.00    +0.000 OA
ATOM     38  O60 UNK     0       2.810   1.884 -27.181  0.00  0.00    +0.000 OA
ATOM     39  C61 UNK     0       0.323   2.960 -28.196  0.00  0.00    +0.000 C 
ATOM     40  C65 UNK     0      -0.436   2.868 -26.839  0.00  0.00    +0.000 C 
ATOM     41  N66 UNK     0      -0.822   4.075 -26.222  0.00  0.00    +0.000 N 
ATOM     42  C67 UNK     0      -1.466   3.954 -24.881  0.00  0.00    +0.000 C 
ATOM     43  C68 UNK     0      -1.151   5.266 -27.006  0.00  0.00    +0.000 C 
ATOM     44  O69 UNK     0      -0.718   1.783 -26.319  0.00  0.00    +0.000 OA
ATOM     45  C70 UNK     0      -2.973   3.694 -25.119  0.00  0.00    +0.000 C 
ATOM     46  N71 UNK     0      -3.277   2.363 -25.345  0.00  0.00    +0.000 N 
ATOM     47  O72 UNK     0      -3.805   4.593 -25.211  0.00  0.00    +0.000 OA
ATOM     48  C73 UNK     0      -4.585   1.991 -25.891  0.00  0.00    +0.000 C 
ATOM     49  C74 UNK     0      -4.526   0.575 -26.456  0.00  0.00    +0.000 C 
ATOM     50  C77 UNK     0       7.452   3.632 -24.338  0.00  0.00    +0.000 C 
ATOM     51  C78 UNK     0      -6.606   3.054 -21.937  0.00  0.00    +0.000 C 
ATOM     52  H2  UNK     0      -4.291   1.691 -23.382  0.00  0.00    +0.000 HD
ATOM     53  H58 UNK     0       5.123  -0.572 -23.420  0.00  0.00    +0.000 HD
ATOM     54  H69 UNK     0       5.394   2.782 -26.377  0.00  0.00    +0.000 HD
ATOM     55  H71 UNK     0       1.509   4.672 -27.821  0.00  0.00    +0.000 HD
ATOM     56  H90 UNK     0      -2.476   1.779 -25.594  0.00  0.00    +0.000 HD
ENDROOT
BRANCH  39  57
ATOM     57  C62 UNK     0       0.453   1.604 -28.940  0.00  0.00    +0.000 C 
ATOM     58  C63 UNK     0      -0.933   1.039 -29.292  0.00  0.00    +0.000 C 
ATOM     59  C64 UNK     0       1.255   1.741 -30.242  0.00  0.00    +0.000 C 
ENDBRANCH  39  57
BRANCH  19  60
ATOM     60  C25 UNK     0       2.441  -1.935 -22.605  0.00  0.00    +0.000 C 
ATOM     61  C30 UNK     0       1.684  -2.710 -23.687  0.00  0.00    +0.000 C 
ATOM     62  C31 UNK     0       1.862  -0.527 -22.448  0.00  0.00    +0.000 C 
ENDBRANCH  19  60
BRANCH  20  63
ATOM     63  O27 UNK     0       3.920  -1.068 -19.917  0.00  0.00    +0.000 OA
ATOM     64  H34 UNK     0       3.954  -0.387 -20.621  0.00  0.00    +0.000 HD
ENDBRANCH  20  63
BRANCH  27  65
ATOM     65  C45 UNK     0       5.356  -0.262 -25.956  0.00  0.00    +0.000 C 
ATOM     66  C46 UNK     0       5.736   0.113 -27.382  0.00  0.00    +0.000 C 
ENDBRANCH  27  65
BRANCH  23  67
ATOM     67  C34 UNK     0       7.215  -1.446 -20.118  0.00  0.00    +0.000 C 
BRANCH  67  68
ATOM     68  C35 UNK     0       7.575  -0.184 -19.274  0.00  0.00    +0.000 C 
ATOM     69  C41 UNK     0       6.727   1.053 -19.586  0.00  0.00    +0.000 C 
BRANCH  68  70
ATOM     70  C36 UNK     0       9.085   0.135 -19.444  0.00  0.00    +0.000 C 
BRANCH  70  71
ATOM     71  C37 UNK     0       9.847   0.159 -18.145  0.00  0.00    +0.000 C 
ATOM     72  C38 UNK     0       9.685   1.096 -17.199  0.00  0.00    +0.000 C 
ATOM     73  C39 UNK     0      10.446   1.127 -15.914  0.00  0.00    +0.000 C 
ENDBRANCH  70  71
ENDBRANCH  68  70
ENDBRANCH  67  68
BRANCH  67  74
ATOM     74  O40 UNK     0       6.632  -2.389 -19.190  0.00  0.00    +0.000 OA
ATOM     75  H54 UNK     0       6.478  -1.883 -18.367  0.00  0.00    +0.000 HD
ENDBRANCH  67  74
ENDBRANCH  23  67
BRANCH  34  76
ATOM     76  C57 UNK     0       4.665   4.412 -28.347  0.00  0.00    +0.000 C 
BRANCH  76  77
ATOM     77  C58 UNK     0       6.120   4.871 -28.129  0.00  0.00    +0.000 C 
ATOM     78  C59 UNK     0       7.136   3.930 -28.779  0.00  0.00    +0.000 C 
ATOM     79  C76 UNK     0       6.301   6.286 -28.690  0.00  0.00    +0.000 C 
ENDBRANCH  76  77
ENDBRANCH  34  76
BRANCH  12  80
ATOM     80  C21 UNK     0      -0.265  -0.522 -19.289  0.00  0.00    +0.000 C 
BRANCH  80  81
ATOM     81  C82 UNK     0      -0.355   0.983 -19.613  0.00  0.00    +0.000 C 
ATOM     82  C83 UNK     0      -1.124   1.258 -20.904  0.00  0.00    +0.000 C 
ATOM     83  C84 UNK     0       1.056   1.571 -19.722  0.00  0.00    +0.000 C 
ENDBRANCH  80  81
ENDBRANCH  12  80
BRANCH  42  84
ATOM     84  C75 UNK     0      -1.206   5.194 -24.000  0.00  0.00    +0.000 C 
BRANCH  84  85
ATOM     85  C79 UNK     0      -0.506   4.893 -22.658  0.00  0.00    +0.000 C 
ATOM     86  C80 UNK     0       0.424   3.682 -22.727  0.00  0.00    +0.000 C 
ATOM     87  C81 UNK     0      -1.559   4.663 -21.569  0.00  0.00    +0.000 C 
ENDBRANCH  84  85
ENDBRANCH  42  84
BRANCH   9  88
ATOM     88  C15 UNK     0      -5.305  -3.056 -20.677  0.00  0.00    +0.000 C 
BRANCH  88  89
ATOM     89  C16 UNK     0      -5.868  -3.368 -19.269  0.00  0.00    +0.000 C 
ATOM     90  C17 UNK     0      -6.209  -2.114 -18.468  0.00  0.00    +0.000 C 
ATOM     91  C18 UNK     0      -7.112  -4.252 -19.394  0.00  0.00    +0.000 C 
ENDBRANCH  88  89
ENDBRANCH   9  88
TORSDOF 17
ENDMDL
MODEL 4
REMARK VINA RESULT:      -5.5      5.396      9.110
REMARK  Name = CyclosporineA.pdb
REMARK  40 active torsions:
REMARK  status: ('A' for Active; 'I' for Inactive)
REMARK    1  A    between atoms: C1_1  and  C78_78
REMARK    2  A    between atoms: N7_7  and  C8_8
REMARK    3  A    between atoms: C9_9  and  C15_15
REMARK    4  A    between atoms: N11_11  and  C20_20
REMARK    5  A    between atoms: C12_12  and  C21_21
REMARK    6  A    between atoms: N14_14  and  C23_23
REMARK    7  A    between atoms: C15_15  and  C16_16
REMARK    8  A    between atoms: C16_16  and  C17_17
REMARK    9  A    between atoms: C16_16  and  C18_18
REMARK   10  A    between atoms: C21_21  and  C82_82
REMARK   11  A    between atoms: C24_24  and  C25_25
REMARK   12  A    between atoms: C25_25  and  C30_30
REMARK   13  A    between atoms: C25_25  and  C31_31
REMARK   14  A    between atoms: C26_26  and  O27_27
REMARK   15  A    between atoms: N28_28  and  C29_29
REMARK   16  A    between atoms: C32_32  and  C34_34
REMARK   17  A    between atoms: C34_34  and  C35_35
REMARK   18  A    between atoms: C34_34  and  O40_40
REMARK   19  A    between atoms: C35_35  and  C36_36
REMARK   20  A    between atoms: C35_35  and  C41_41
REMARK   21  A    between atoms: C36_36  and  C37_37
REMARK   22  A    between atoms: C38_38  and  C39_39
REMARK   23  A    between atoms: C44_44  and  C45_45
REMARK   24  A    between atoms: C45_45  and  C46_46
REMARK   25  A    between atoms: N49_49  and  C77_77
REMARK   26  A    between atoms: C53_53  and  C57_57
REMARK   27  A    between atoms: C57_57  and  C58_58
REMARK   28  A    between atoms: C58_58  and  C59_59
REMARK   29  A    between atoms: C58_58  and  C76_76
REMARK   30  A    between atoms: C61_61  and  C62_62
REMARK   31  A    between atoms: C62_62  and  C63_63
REMARK   32  A    between atoms: C62_62  and  C64_64
REMARK   33  A    between atoms: N66_66  and  C68_68
REMARK   34  A    between atoms: C67_67  and  C75_75
REMARK   35  A    between atoms: C73_73  and  C74_74
REMARK   36  A    between atoms: C75_75  and  C79_79
REMARK   37  A    between atoms: C79_79  and  C80_80
REMARK   38  A    between atoms: C79_79  and  C81_81
REMARK   39  A    between atoms: C82_82  and  C83_83
REMARK   40  A    between atoms: C82_82  and  C84_84
REMARK                            x       y       z     vdW  Elec       q    Type
REMARK                         _______ _______ _______ _____ _____    ______ ____
ROOT
ATOM      1  C1  UNK     0      -5.331   1.716 -23.794  0.00  0.00    +0.000 C 
ATOM      2  C2  UNK     0      -4.717   1.346 -22.415  0.00  0.00    +0.000 C 
ATOM      3  N3  UNK     0      -4.267   1.541 -24.769  0.00  0.00    +0.000 N 
ATOM      4  C4  UNK     0      -4.492   1.265 -26.097  0.00  0.00    +0.000 C 
ATOM      5  O5  UNK     0      -5.613   1.053 -26.555  0.00  0.00    +0.000 OA
ATOM      6  C6  UNK     0      -4.373   2.342 -21.574  0.00  0.00    +0.000 C 
ATOM      7  N7  UNK     0      -4.513  -0.038 -22.114  0.00  0.00    +0.000 N 
ATOM      8  C8  UNK     0      -4.978  -1.091 -23.036  0.00  0.00    +0.000 C 
ATOM      9  C9  UNK     0      -3.801  -0.507 -20.869  0.00  0.00    +0.000 C 
ATOM     10  C10 UNK     0      -2.244  -0.499 -21.070  0.00  0.00    +0.000 C 
ATOM     11  N11 UNK     0      -1.409  -0.172 -19.957  0.00  0.00    +0.000 N 
ATOM     12  C12 UNK     0      -0.014   0.357 -20.116  0.00  0.00    +0.000 C 
ATOM     13  C13 UNK     0       1.048  -0.707 -19.685  0.00  0.00    +0.000 C 
ATOM     14  N14 UNK     0       2.309  -0.231 -19.237  0.00  0.00    +0.000 N 
ATOM     15  C19 UNK     0      -1.727  -0.781 -22.284  0.00  0.00    +0.000 C 
ATOM     16  C20 UNK     0      -1.893  -0.235 -18.570  0.00  0.00    +0.000 C 
ATOM     17  C22 UNK     0       0.772  -2.027 -19.674  0.00  0.00    +0.000 C 
ATOM     18  C23 UNK     0       2.479  -0.373 -17.759  0.00  0.00    +0.000 C 
ATOM     19  C24 UNK     0       3.587  -0.592 -20.007  0.00  0.00    +0.000 C 
ATOM     20  C26 UNK     0       4.819   0.240 -19.406  0.00  0.00    +0.000 C 
ATOM     21  N28 UNK     0       6.055   0.119 -20.182  0.00  0.00    +0.000 NA
ATOM     22  C29 UNK     0       6.789  -1.096 -19.811  0.00  0.00    +0.000 C 
ATOM     23  C32 UNK     0       6.933   1.334 -20.196  0.00  0.00    +0.000 C 
ATOM     24  C33 UNK     0       7.862   1.167 -21.430  0.00  0.00    +0.000 C 
ATOM     25  O42 UNK     0       9.079   1.037 -21.368  0.00  0.00    +0.000 OA
ATOM     26  N43 UNK     0       7.139   1.137 -22.609  0.00  0.00    +0.000 N 
ATOM     27  C44 UNK     0       7.747   0.994 -23.915  0.00  0.00    +0.000 C 
ATOM     28  C47 UNK     0       8.344   2.357 -24.346  0.00  0.00    +0.000 C 
ATOM     29  C48 UNK     0       9.671   2.358 -24.592  0.00  0.00    +0.000 C 
ATOM     30  N49 UNK     0       7.562   3.536 -24.466  0.00  0.00    +0.000 N 
ATOM     31  C50 UNK     0       6.116   3.661 -24.127  0.00  0.00    +0.000 C 
ATOM     32  C51 UNK     0       5.280   4.078 -25.351  0.00  0.00    +0.000 C 
ATOM     33  N52 UNK     0       5.828   3.688 -26.555  0.00  0.00    +0.000 N 
ATOM     34  C53 UNK     0       5.075   3.746 -27.799  0.00  0.00    +0.000 C 
ATOM     35  C54 UNK     0       4.092   2.546 -27.828  0.00  0.00    +0.000 C 
ATOM     36  N55 UNK     0       3.036   2.711 -28.704  0.00  0.00    +0.000 N 
ATOM     37  O56 UNK     0       4.203   4.661 -25.262  0.00  0.00    +0.000 OA
ATOM     38  O60 UNK     0       4.275   1.525 -27.171  0.00  0.00    +0.000 OA
ATOM     39  C61 UNK     0       1.903   1.779 -28.808  0.00  0.00    +0.000 C 
ATOM     40  C65 UNK     0       0.940   2.075 -27.621  0.00  0.00    +0.000 C 
ATOM     41  N66 UNK     0       0.347   3.352 -27.561  0.00  0.00    +0.000 N 
ATOM     42  C67 UNK     0      -0.497   3.633 -26.362  0.00  0.00    +0.000 C 
ATOM     43  C68 UNK     0       0.045   4.114 -28.773  0.00  0.00    +0.000 C 
ATOM     44  O69 UNK     0       0.677   1.224 -26.764  0.00  0.00    +0.000 OA
ATOM     45  C70 UNK     0      -1.913   3.084 -26.661  0.00  0.00    +0.000 C 
ATOM     46  N71 UNK     0      -2.051   1.733 -26.399  0.00  0.00    +0.000 N 
ATOM     47  O72 UNK     0      -2.797   3.755 -27.187  0.00  0.00    +0.000 OA
ATOM     48  C73 UNK     0      -3.210   0.999 -26.914  0.00  0.00    +0.000 C 
ATOM     49  C74 UNK     0      -2.928  -0.500 -26.885  0.00  0.00    +0.000 C 
ATOM     50  C77 UNK     0       8.198   4.852 -24.675  0.00  0.00    +0.000 C 
ATOM     51  C78 UNK     0      -5.950   3.113 -23.935  0.00  0.00    +0.000 C 
ATOM     52  H2  UNK     0      -3.311   1.677 -24.464  0.00  0.00    +0.000 HD
ATOM     53  H58 UNK     0       6.145   0.973 -22.510  0.00  0.00    +0.000 HD
ATOM     54  H69 UNK     0       6.595   3.026 -26.466  0.00  0.00    +0.000 HD
ATOM     55  H71 UNK     0       2.846   3.666 -28.975  0.00  0.00    +0.000 HD
ATOM     56  H90 UNK     0      -1.169   1.223 -26.308  0.00  0.00    +0.000 HD
ENDROOT
BRANCH  39  57
ATOM     57  C62 UNK     0       2.279   0.281 -28.959  0.00  0.00    +0.000 C 
ATOM     58  C63 UNK     0       1.030  -0.569 -29.243  0.00  0.00    +0.000 C 
ATOM     59  C64 UNK     0       3.279   0.055 -30.102  0.00  0.00    +0.000 C 
ENDBRANCH  39  57
BRANCH  19  60
ATOM     60  C25 UNK     0       3.502  -0.382 -21.565  0.00  0.00    +0.000 C 
ATOM     61  C30 UNK     0       2.953  -1.578 -22.346  0.00  0.00    +0.000 C 
ATOM     62  C31 UNK     0       2.832   0.915 -22.026  0.00  0.00    +0.000 C 
ENDBRANCH  19  60
BRANCH  20  63
ATOM     63  O27 UNK     0       4.428   1.610 -19.253  0.00  0.00    +0.000 OA
ATOM     64  H34 UNK     0       5.268   2.079 -19.063  0.00  0.00    +0.000 HD
ENDBRANCH  20  63
BRANCH  27  65
ATOM     65  C45 UNK     0       6.768   0.372 -24.926  0.00  0.00    +0.000 C 
ATOM     66  C46 UNK     0       5.995  -0.814 -24.365  0.00  0.00    +0.000 C 
ENDBRANCH  27  65
BRANCH  23  67
ATOM     67  C34 UNK     0       7.731   1.676 -18.900  0.00  0.00    +0.000 C 
BRANCH  67  68
ATOM     68  C35 UNK     0       9.257   1.355 -18.958  0.00  0.00    +0.000 C 
ATOM     69  C41 UNK     0       9.693   0.177 -18.082  0.00  0.00    +0.000 C 
BRANCH  68  70
ATOM     70  C36 UNK     0      10.065   2.630 -18.595  0.00  0.00    +0.000 C 
BRANCH  70  71
ATOM     71  C37 UNK     0      11.546   2.493 -18.831  0.00  0.00    +0.000 C 
ATOM     72  C38 UNK     0      12.096   2.283 -20.036  0.00  0.00    +0.000 C 
ATOM     73  C39 UNK     0      13.563   2.138 -20.273  0.00  0.00    +0.000 C 
ENDBRANCH  70  71
ENDBRANCH  68  70
ENDBRANCH  67  68
BRANCH  67  74
ATOM     74  O40 UNK     0       7.636   3.093 -18.630  0.00  0.00    +0.000 OA
ATOM     75  H54 UNK     0       8.543   3.374 -18.390  0.00  0.00    +0.000 HD
ENDBRANCH  67  74
ENDBRANCH  23  67
BRANCH  34  76
ATOM     76  C57 UNK     0       6.056   3.703 -28.981  0.00  0.00    +0.000 C 
BRANCH  76  77
ATOM     77  C58 UNK     0       6.981   2.472 -29.064  0.00  0.00    +0.000 C 
ATOM     78  C59 UNK     0       6.743   1.643 -30.327  0.00  0.00    +0.000 C 
ATOM     79  C76 UNK     0       8.444   2.926 -29.017  0.00  0.00    +0.000 C 
ENDBRANCH  76  77
ENDBRANCH  34  76
BRANCH  12  80
ATOM     80  C21 UNK     0       0.164   1.722 -19.387  0.00  0.00    +0.000 C 
BRANCH  80  81
ATOM     81  C82 UNK     0       0.201   2.964 -20.299  0.00  0.00    +0.000 C 
ATOM     82  C83 UNK     0       1.108   4.064 -19.751  0.00  0.00    +0.000 C 
ATOM     83  C84 UNK     0      -1.218   3.513 -20.479  0.00  0.00    +0.000 C 
ENDBRANCH  80  81
ENDBRANCH  12  80
BRANCH  42  84
ATOM     84  C75 UNK     0      -0.503   5.132 -25.995  0.00  0.00    +0.000 C 
BRANCH  84  85
ATOM     85  C79 UNK     0      -0.084   5.438 -24.543  0.00  0.00    +0.000 C 
ATOM     86  C80 UNK     0       0.919   6.587 -24.438  0.00  0.00    +0.000 C 
ATOM     87  C81 UNK     0       0.514   4.181 -23.904  0.00  0.00    +0.000 C 
ENDBRANCH  84  85
ENDBRANCH  42  84
BRANCH   9  88
ATOM     88  C15 UNK     0      -4.320  -1.859 -20.297  0.00  0.00    +0.000 C 
BRANCH  88  89
ATOM     89  C16 UNK     0      -5.524  -1.708 -19.336  0.00  0.00    +0.000 C 
ATOM     90  C17 UNK     0      -6.633  -2.723 -19.601  0.00  0.00    +0.000 C 
ATOM     91  C18 UNK     0      -5.047  -1.835 -17.886  0.00  0.00    +0.000 C 
ENDBRANCH  88  89
ENDBRANCH   9  88
TORSDOF 17
ENDMDL
MODEL 5
REMARK VINA RESULT:      -5.5      3.870      9.794
REMARK  Name = CyclosporineA.pdb
REMARK  40 active torsions:
REMARK  status: ('A' for Active; 'I' for Inactive)
REMARK    1  A    between atoms: C1_1  and  C78_78
REMARK    2  A    between atoms: N7_7  and  C8_8
REMARK    3  A    between atoms: C9_9  and  C15_15
REMARK    4  A    between atoms: N11_11  and  C20_20
REMARK    5  A    between atoms: C12_12  and  C21_21
REMARK    6  A    between atoms: N14_14  and  C23_23
REMARK    7  A    between atoms: C15_15  and  C16_16
REMARK    8  A    between atoms: C16_16  and  C17_17
REMARK    9  A    between atoms: C16_16  and  C18_18
REMARK   10  A    between atoms: C21_21  and  C82_82
REMARK   11  A    between atoms: C24_24  and  C25_25
REMARK   12  A    between atoms: C25_25  and  C30_30
REMARK   13  A    between atoms: C25_25  and  C31_31
REMARK   14  A    between atoms: C26_26  and  O27_27
REMARK   15  A    between atoms: N28_28  and  C29_29
REMARK   16  A    between atoms: C32_32  and  C34_34
REMARK   17  A    between atoms: C34_34  and  C35_35
REMARK   18  A    between atoms: C34_34  and  O40_40
REMARK   19  A    between atoms: C35_35  and  C36_36
REMARK   20  A    between atoms: C35_35  and  C41_41
REMARK   21  A    between atoms: C36_36  and  C37_37
REMARK   22  A    between atoms: C38_38  and  C39_39
REMARK   23  A    between atoms: C44_44  and  C45_45
REMARK   24  A    between atoms: C45_45  and  C46_46
REMARK   25  A    between atoms: N49_49  and  C77_77
REMARK   26  A    between atoms: C53_53  and  C57_57
REMARK   27  A    between atoms: C57_57  and  C58_58
REMARK   28  A    between atoms: C58_58  and  C59_59
REMARK   29  A    between atoms: C58_58  and  C76_76
REMARK   30  A    between atoms: C61_61  and  C62_62
REMARK   31  A    between atoms: C62_62  and  C63_63
REMARK   32  A    between atoms: C62_62  and  C64_64
REMARK   33  A    between atoms: N66_66  and  C68_68
REMARK   34  A    between atoms: C67_67  and  C75_75
REMARK   35  A    between atoms: C73_73  and  C74_74
REMARK   36  A    between atoms: C75_75  and  C79_79
REMARK   37  A    between atoms: C79_79  and  C80_80
REMARK   38  A    between atoms: C79_79  and  C81_81
REMARK   39  A    between atoms: C82_82  and  C83_83
REMARK   40  A    between atoms: C82_82  and  C84_84
REMARK                            x       y       z     vdW  Elec       q    Type
REMARK                         _______ _______ _______ _____ _____    ______ ____
ROOT
ATOM      1  C1  UNK     0       9.193  -0.608 -30.620  0.00  0.00    +0.000 C 
ATOM      2  C2  UNK     0       7.709  -1.065 -30.662  0.00  0.00    +0.000 C 
ATOM      3  N3  UNK     0       9.647  -0.840 -29.258  0.00  0.00    +0.000 N 
ATOM      4  C4  UNK     0      10.962  -1.060 -28.924  0.00  0.00    +0.000 C 
ATOM      5  O5  UNK     0      11.856  -1.168 -29.761  0.00  0.00    +0.000 OA
ATOM      6  C6  UNK     0       6.743  -0.123 -30.641  0.00  0.00    +0.000 C 
ATOM      7  N7  UNK     0       7.432  -2.468 -30.687  0.00  0.00    +0.000 N 
ATOM      8  C8  UNK     0       8.523  -3.455 -30.788  0.00  0.00    +0.000 C 
ATOM      9  C9  UNK     0       6.033  -3.027 -30.591  0.00  0.00    +0.000 C 
ATOM     10  C10 UNK     0       5.570  -3.139 -29.095  0.00  0.00    +0.000 C 
ATOM     11  N11 UNK     0       4.193  -2.911 -28.783  0.00  0.00    +0.000 N 
ATOM     12  C12 UNK     0       3.728  -2.490 -27.421  0.00  0.00    +0.000 C 
ATOM     13  C13 UNK     0       2.959  -3.648 -26.703  0.00  0.00    +0.000 C 
ATOM     14  N14 UNK     0       2.000  -3.287 -25.718  0.00  0.00    +0.000 N 
ATOM     15  C19 UNK     0       6.474  -3.427 -28.136  0.00  0.00    +0.000 C 
ATOM     16  C20 UNK     0       3.139  -2.973 -29.805  0.00  0.00    +0.000 C 
ATOM     17  C22 UNK     0       3.141  -4.941 -27.039  0.00  0.00    +0.000 C 
ATOM     18  C23 UNK     0       0.597  -3.484 -26.191  0.00  0.00    +0.000 C 
ATOM     19  C24 UNK     0       2.191  -3.727 -24.260  0.00  0.00    +0.000 C 
ATOM     20  C26 UNK     0       1.086  -3.014 -23.344  0.00  0.00    +0.000 C 
ATOM     21  N28 UNK     0       1.284  -3.212 -21.907  0.00  0.00    +0.000 NA
ATOM     22  C29 UNK     0       0.715  -4.491 -21.471  0.00  0.00    +0.000 C 
ATOM     23  C32 UNK     0       0.862  -2.070 -21.030  0.00  0.00    +0.000 C 
ATOM     24  C33 UNK     0       1.607  -2.277 -19.683  0.00  0.00    +0.000 C 
ATOM     25  O42 UNK     0       1.053  -2.505 -18.614  0.00  0.00    +0.000 OA
ATOM     26  N43 UNK     0       2.979  -2.215 -19.848  0.00  0.00    +0.000 N 
ATOM     27  C44 UNK     0       3.921  -2.370 -18.759  0.00  0.00    +0.000 C 
ATOM     28  C47 UNK     0       3.984  -1.048 -17.955  0.00  0.00    +0.000 C 
ATOM     29  C48 UNK     0       3.657  -1.146 -16.649  0.00  0.00    +0.000 C 
ATOM     30  N49 UNK     0       4.348   0.193 -18.542  0.00  0.00    +0.000 N 
ATOM     31  C50 UNK     0       4.632   0.424 -19.986  0.00  0.00    +0.000 C 
ATOM     32  C51 UNK     0       6.066   0.940 -20.207  0.00  0.00    +0.000 C 
ATOM     33  N52 UNK     0       6.955   0.542 -19.231  0.00  0.00    +0.000 N 
ATOM     34  C53 UNK     0       8.394   0.695 -19.390  0.00  0.00    +0.000 C 
ATOM     35  C54 UNK     0       8.899  -0.421 -20.342  0.00  0.00    +0.000 C 
ATOM     36  N55 UNK     0      10.122  -0.148 -20.923  0.00  0.00    +0.000 N 
ATOM     37  O56 UNK     0       6.398   1.605 -21.185  0.00  0.00    +0.000 OA
ATOM     38  O60 UNK     0       8.286  -1.471 -20.513  0.00  0.00    +0.000 OA
ATOM     39  C61 UNK     0      10.742  -0.983 -21.963  0.00  0.00    +0.000 C 
ATOM     40  C65 UNK     0      10.045  -0.644 -23.314  0.00  0.00    +0.000 C 
ATOM     41  N66 UNK     0      10.162   0.674 -23.798  0.00  0.00    +0.000 N 
ATOM     42  C67 UNK     0       9.407   0.988 -25.047  0.00  0.00    +0.000 C 
ATOM     43  C68 UNK     0      11.343   1.492 -23.519  0.00  0.00    +0.000 C 
ATOM     44  O69 UNK     0       9.427  -1.495 -23.962  0.00  0.00    +0.000 OA
ATOM     45  C70 UNK     0      10.298   0.562 -26.239  0.00  0.00    +0.000 C 
ATOM     46  N71 UNK     0      10.197  -0.780 -26.557  0.00  0.00    +0.000 N 
ATOM     47  O72 UNK     0      11.103   1.316 -26.780  0.00  0.00    +0.000 OA
ATOM     48  C73 UNK     0      11.188  -1.404 -27.436  0.00  0.00    +0.000 C 
ATOM     49  C74 UNK     0      11.133  -2.921 -27.284  0.00  0.00    +0.000 C 
ATOM     50  C77 UNK     0       4.197   1.459 -17.797  0.00  0.00    +0.000 C 
ATOM     51  C78 UNK     0       9.495   0.838 -31.036  0.00  0.00    +0.000 C 
ATOM     52  H2  UNK     0       8.965  -0.789 -28.511  0.00  0.00    +0.000 HD
ATOM     53  H58 UNK     0       3.311  -2.302 -20.799  0.00  0.00    +0.000 HD
ATOM     54  H69 UNK     0       6.596  -0.181 -18.613  0.00  0.00    +0.000 HD
ATOM     55  H71 UNK     0      10.391   0.826 -20.923  0.00  0.00    +0.000 HD
ATOM     56  H90 UNK     0       9.779  -1.361 -25.827  0.00  0.00    +0.000 HD
ENDROOT
BRANCH  39  57
ATOM     57  C62 UNK     0      10.811  -2.502 -21.650  0.00  0.00    +0.000 C 
ATOM     58  C63 UNK     0      11.626  -3.243 -22.722  0.00  0.00    +0.000 C 
ATOM     59  C64 UNK     0      11.459  -2.775 -20.285  0.00  0.00    +0.000 C 
ENDBRANCH  39  57
BRANCH  19  60
ATOM     60  C25 UNK     0       3.629  -3.467 -23.673  0.00  0.00    +0.000 C 
ATOM     61  C30 UNK     0       4.644  -4.582 -23.940  0.00  0.00    +0.000 C 
ATOM     62  C31 UNK     0       4.238  -2.099 -23.987  0.00  0.00    +0.000 C 
ENDBRANCH  19  60
BRANCH  20  63
ATOM     63  O27 UNK     0       1.028  -1.621 -23.678  0.00  0.00    +0.000 OA
ATOM     64  H34 UNK     0       0.417  -1.584 -24.444  0.00  0.00    +0.000 HD
ENDBRANCH  20  63
BRANCH  27  65
ATOM     65  C45 UNK     0       5.281  -2.883 -19.262  0.00  0.00    +0.000 C 
ATOM     66  C46 UNK     0       5.165  -3.861 -20.423  0.00  0.00    +0.000 C 
ENDBRANCH  27  65
BRANCH  23  67
ATOM     67  C34 UNK     0      -0.667  -1.830 -20.828  0.00  0.00    +0.000 C 
BRANCH  67  68
ATOM     68  C35 UNK     0      -1.033  -0.559 -20.001  0.00  0.00    +0.000 C 
ATOM     69  C41 UNK     0      -1.874  -0.833 -18.751  0.00  0.00    +0.000 C 
BRANCH  68  70
ATOM     70  C36 UNK     0      -1.749   0.466 -20.923  0.00  0.00    +0.000 C 
BRANCH  70  71
ATOM     71  C37 UNK     0      -1.120   1.834 -20.907  0.00  0.00    +0.000 C 
ATOM     72  C38 UNK     0      -1.190   2.678 -19.867  0.00  0.00    +0.000 C 
ATOM     73  C39 UNK     0      -0.576   4.039 -19.851  0.00  0.00    +0.000 C 
ENDBRANCH  70  71
ENDBRANCH  68  70
ENDBRANCH  67  68
BRANCH  67  74
ATOM     74  O40 UNK     0      -1.306  -1.662 -22.114  0.00  0.00    +0.000 OA
ATOM     75  H54 UNK     0      -0.629  -1.908 -22.776  0.00  0.00    +0.000 HD
ENDBRANCH  67  74
ENDBRANCH  23  67
BRANCH  34  76
ATOM     76  C57 UNK     0       9.063   0.606 -18.009  0.00  0.00    +0.000 C 
BRANCH  76  77
ATOM     77  C58 UNK     0       9.696   1.903 -17.466  0.00  0.00    +0.000 C 
ATOM     78  C59 UNK     0      10.498   1.673 -16.184  0.00  0.00    +0.000 C 
ATOM     79  C76 UNK     0      10.606   2.515 -18.537  0.00  0.00    +0.000 C 
ENDBRANCH  76  77
ENDBRANCH  34  76
BRANCH  12  80
ATOM     80  C21 UNK     0       2.912  -1.166 -27.481  0.00  0.00    +0.000 C 
BRANCH  80  81
ATOM     81  C82 UNK     0       3.713   0.123 -27.210  0.00  0.00    +0.000 C 
ATOM     82  C83 UNK     0       3.175   0.905 -26.013  0.00  0.00    +0.000 C 
ATOM     83  C84 UNK     0       3.691   1.014 -28.456  0.00  0.00    +0.000 C 
ENDBRANCH  80  81
ENDBRANCH  12  80
BRANCH  42  84
ATOM     84  C75 UNK     0       8.988   2.471 -25.115  0.00  0.00    +0.000 C 
BRANCH  84  85
ATOM     85  C79 UNK     0       7.762   2.831 -24.251  0.00  0.00    +0.000 C 
ATOM     86  C80 UNK     0       6.478   2.147 -24.720  0.00  0.00    +0.000 C 
ATOM     87  C81 UNK     0       7.559   4.350 -24.254  0.00  0.00    +0.000 C 
ENDBRANCH  84  85
ENDBRANCH  42  84
BRANCH   9  88
ATOM     88  C15 UNK     0       5.809  -4.349 -31.383  0.00  0.00    +0.000 C 
BRANCH  88  89
ATOM     89  C16 UNK     0       5.288  -4.132 -32.824  0.00  0.00    +0.000 C 
ATOM     90  C17 UNK     0       4.882  -2.686 -33.103  0.00  0.00    +0.000 C 
ATOM     91  C18 UNK     0       6.356  -4.569 -33.831  0.00  0.00    +0.000 C 
ENDBRANCH  88  89
ENDBRANCH   9  88
TORSDOF 17
ENDMDL
MODEL 6
REMARK VINA RESULT:      -5.3      4.547     11.964
REMARK  Name = CyclosporineA.pdb
REMARK  40 active torsions:
REMARK  status: ('A' for Active; 'I' for Inactive)
REMARK    1  A    between atoms: C1_1  and  C78_78
REMARK    2  A    between atoms: N7_7  and  C8_8
REMARK    3  A    between atoms: C9_9  and  C15_15
REMARK    4  A    between atoms: N11_11  and  C20_20
REMARK    5  A    between atoms: C12_12  and  C21_21
REMARK    6  A    between atoms: N14_14  and  C23_23
REMARK    7  A    between atoms: C15_15  and  C16_16
REMARK    8  A    between atoms: C16_16  and  C17_17
REMARK    9  A    between atoms: C16_16  and  C18_18
REMARK   10  A    between atoms: C21_21  and  C82_82
REMARK   11  A    between atoms: C24_24  and  C25_25
REMARK   12  A    between atoms: C25_25  and  C30_30
REMARK   13  A    between atoms: C25_25  and  C31_31
REMARK   14  A    between atoms: C26_26  and  O27_27
REMARK   15  A    between atoms: N28_28  and  C29_29
REMARK   16  A    between atoms: C32_32  and  C34_34
REMARK   17  A    between atoms: C34_34  and  C35_35
REMARK   18  A    between atoms: C34_34  and  O40_40
REMARK   19  A    between atoms: C35_35  and  C36_36
REMARK   20  A    between atoms: C35_35  and  C41_41
REMARK   21  A    between atoms: C36_36  and  C37_37
REMARK   22  A    between atoms: C38_38  and  C39_39
REMARK   23  A    between atoms: C44_44  and  C45_45
REMARK   24  A    between atoms: C45_45  and  C46_46
REMARK   25  A    between atoms: N49_49  and  C77_77
REMARK   26  A    between atoms: C53_53  and  C57_57
REMARK   27  A    between atoms: C57_57  and  C58_58
REMARK   28  A    between atoms: C58_58  and  C59_59
REMARK   29  A    between atoms: C58_58  and  C76_76
REMARK   30  A    between atoms: C61_61  and  C62_62
REMARK   31  A    between atoms: C62_62  and  C63_63
REMARK   32  A    between atoms: C62_62  and  C64_64
REMARK   33  A    between atoms: N66_66  and  C68_68
REMARK   34  A    between atoms: C67_67  and  C75_75
REMARK   35  A    between atoms: C73_73  and  C74_74
REMARK   36  A    between atoms: C75_75  and  C79_79
REMARK   37  A    between atoms: C79_79  and  C80_80
REMARK   38  A    between atoms: C79_79  and  C81_81
REMARK   39  A    between atoms: C82_82  and  C83_83
REMARK   40  A    between atoms: C82_82  and  C84_84
REMARK                            x       y       z     vdW  Elec       q    Type
REMARK                         _______ _______ _______ _____ _____    ______ ____
ROOT
ATOM      1  C1  UNK     0       8.619   0.050 -25.072  0.00  0.00    +0.000 C 
ATOM      2  C2  UNK     0       8.019  -0.875 -23.977  0.00  0.00    +0.000 C 
ATOM      3  N3  UNK     0       7.722   1.191 -25.170  0.00  0.00    +0.000 N 
ATOM      4  C4  UNK     0       8.118   2.431 -25.609  0.00  0.00    +0.000 C 
ATOM      5  O5  UNK     0       9.287   2.706 -25.870  0.00  0.00    +0.000 OA
ATOM      6  C6  UNK     0       7.354  -1.983 -24.362  0.00  0.00    +0.000 C 
ATOM      7  N7  UNK     0       8.171  -0.491 -22.607  0.00  0.00    +0.000 N 
ATOM      8  C8  UNK     0       8.975   0.689 -22.235  0.00  0.00    +0.000 C 
ATOM      9  C9  UNK     0       7.515  -1.237 -21.471  0.00  0.00    +0.000 C 
ATOM     10  C10 UNK     0       6.034  -0.759 -21.261  0.00  0.00    +0.000 C 
ATOM     11  N11 UNK     0       5.056  -1.715 -20.845  0.00  0.00    +0.000 N 
ATOM     12  C12 UNK     0       3.588  -1.535 -21.095  0.00  0.00    +0.000 C 
ATOM     13  C13 UNK     0       2.820  -1.237 -19.765  0.00  0.00    +0.000 C 
ATOM     14  N14 UNK     0       1.445  -1.592 -19.707  0.00  0.00    +0.000 N 
ATOM     15  C19 UNK     0       5.710   0.531 -21.492  0.00  0.00    +0.000 C 
ATOM     16  C20 UNK     0       5.426  -2.997 -20.231  0.00  0.00    +0.000 C 
ATOM     17  C22 UNK     0       3.439  -0.721 -18.684  0.00  0.00    +0.000 C 
ATOM     18  C23 UNK     0       1.203  -2.792 -18.850  0.00  0.00    +0.000 C 
ATOM     19  C24 UNK     0       0.377  -0.508 -19.507  0.00  0.00    +0.000 C 
ATOM     20  C26 UNK     0      -1.077  -1.159 -19.688  0.00  0.00    +0.000 C 
ATOM     21  N28 UNK     0      -2.169  -0.184 -19.704  0.00  0.00    +0.000 NA
ATOM     22  C29 UNK     0      -2.576   0.169 -18.340  0.00  0.00    +0.000 C 
ATOM     23  C32 UNK     0      -3.338  -0.533 -20.577  0.00  0.00    +0.000 C 
ATOM     24  C33 UNK     0      -4.085   0.804 -20.832  0.00  0.00    +0.000 C 
ATOM     25  O42 UNK     0      -5.224   1.045 -20.447  0.00  0.00    +0.000 OA
ATOM     26  N43 UNK     0      -3.290   1.708 -21.511  0.00  0.00    +0.000 N 
ATOM     27  C44 UNK     0      -3.731   3.035 -21.887  0.00  0.00    +0.000 C 
ATOM     28  C47 UNK     0      -4.636   2.931 -23.139  0.00  0.00    +0.000 C 
ATOM     29  C48 UNK     0      -5.891   3.406 -22.991  0.00  0.00    +0.000 C 
ATOM     30  N49 UNK     0      -4.192   2.365 -24.363  0.00  0.00    +0.000 N 
ATOM     31  C50 UNK     0      -2.866   1.729 -24.600  0.00  0.00    +0.000 C 
ATOM     32  C51 UNK     0      -2.078   2.455 -25.706  0.00  0.00    +0.000 C 
ATOM     33  N52 UNK     0      -2.403   3.789 -25.834  0.00  0.00    +0.000 N 
ATOM     34  C53 UNK     0      -1.596   4.706 -26.625  0.00  0.00    +0.000 C 
ATOM     35  C54 UNK     0      -0.328   5.067 -25.807  0.00  0.00    +0.000 C 
ATOM     36  N55 UNK     0       0.711   5.555 -26.576  0.00  0.00    +0.000 N 
ATOM     37  O56 UNK     0      -1.207   1.910 -26.380  0.00  0.00    +0.000 OA
ATOM     38  O60 UNK     0      -0.281   4.976 -24.584  0.00  0.00    +0.000 OA
ATOM     39  C61 UNK     0       2.058   5.835 -26.055  0.00  0.00    +0.000 C 
ATOM     40  C65 UNK     0       2.808   4.475 -25.938  0.00  0.00    +0.000 C 
ATOM     41  N66 UNK     0       3.028   3.745 -27.122  0.00  0.00    +0.000 N 
ATOM     42  C67 UNK     0       3.668   2.405 -26.964  0.00  0.00    +0.000 C 
ATOM     43  C68 UNK     0       3.210   4.413 -28.412  0.00  0.00    +0.000 C 
ATOM     44  O69 UNK     0       3.221   4.047 -24.855  0.00  0.00    +0.000 OA
ATOM     45  C70 UNK     0       5.198   2.632 -26.919  0.00  0.00    +0.000 C 
ATOM     46  N71 UNK     0       5.673   2.968 -25.664  0.00  0.00    +0.000 N 
ATOM     47  O72 UNK     0       5.908   2.625 -27.921  0.00  0.00    +0.000 OA
ATOM     48  C73 UNK     0       7.024   3.515 -25.512  0.00  0.00    +0.000 C 
ATOM     49  C74 UNK     0       7.154   4.205 -24.158  0.00  0.00    +0.000 C 
ATOM     50  C77 UNK     0      -5.140   2.094 -25.463  0.00  0.00    +0.000 C 
ATOM     51  C78 UNK     0       8.848  -0.562 -26.460  0.00  0.00    +0.000 C 
ATOM     52  H2  UNK     0       6.744   1.050 -24.951  0.00  0.00    +0.000 HD
ATOM     53  H58 UNK     0      -2.300   1.499 -21.523  0.00  0.00    +0.000 HD
ATOM     54  H69 UNK     0      -2.968   4.153 -25.070  0.00  0.00    +0.000 HD
ATOM     55  H71 UNK     0       0.658   5.336 -27.561  0.00  0.00    +0.000 HD
ATOM     56  H90 UNK     0       4.957   3.286 -25.007  0.00  0.00    +0.000 HD
ENDROOT
BRANCH  39  57
ATOM     57  C62 UNK     0       2.111   6.699 -24.766  0.00  0.00    +0.000 C 
ATOM     58  C63 UNK     0       3.527   7.253 -24.539  0.00  0.00    +0.000 C 
ATOM     59  C64 UNK     0       1.141   7.887 -24.835  0.00  0.00    +0.000 C 
ENDBRANCH  39  57
BRANCH  19  60
ATOM     60  C25 UNK     0       0.526   0.749 -20.444  0.00  0.00    +0.000 C 
ATOM     61  C30 UNK     0       1.466   1.836 -19.916  0.00  0.00    +0.000 C 
ATOM     62  C31 UNK     0       0.821   0.450 -21.916  0.00  0.00    +0.000 C 
ENDBRANCH  19  60
BRANCH  20  63
ATOM     63  O27 UNK     0      -1.082  -1.972 -20.868  0.00  0.00    +0.000 OA
ATOM     64  H34 UNK     0      -2.032  -2.155 -21.028  0.00  0.00    +0.000 HD
ENDBRANCH  20  63
BRANCH  27  65
ATOM     65  C45 UNK     0      -2.544   4.003 -22.030  0.00  0.00    +0.000 C 
ATOM     66  C46 UNK     0      -1.489   3.828 -20.945  0.00  0.00    +0.000 C 
ENDBRANCH  27  65
BRANCH  23  67
ATOM     67  C34 UNK     0      -4.298  -1.664 -20.094  0.00  0.00    +0.000 C 
BRANCH  67  68
ATOM     68  C35 UNK     0      -5.002  -2.465 -21.233  0.00  0.00    +0.000 C 
ATOM     69  C41 UNK     0      -4.349  -2.320 -22.610  0.00  0.00    +0.000 C 
BRANCH  68  70
ATOM     70  C36 UNK     0      -6.500  -2.060 -21.297  0.00  0.00    +0.000 C 
BRANCH  70  71
ATOM     71  C37 UNK     0      -7.120  -1.826 -19.945  0.00  0.00    +0.000 C 
ATOM     72  C38 UNK     0      -8.195  -2.487 -19.489  0.00  0.00    +0.000 C 
ATOM     73  C39 UNK     0      -8.818  -2.251 -18.153  0.00  0.00    +0.000 C 
ENDBRANCH  70  71
ENDBRANCH  68  70
ENDBRANCH  67  68
BRANCH  67  74
ATOM     74  O40 UNK     0      -3.555  -2.638 -19.327  0.00  0.00    +0.000 OA
ATOM     75  H54 UNK     0      -3.289  -2.176 -18.506  0.00  0.00    +0.000 HD
ENDBRANCH  67  74
ENDBRANCH  23  67
BRANCH  34  76
ATOM     76  C57 UNK     0      -2.433   5.954 -26.952  0.00  0.00    +0.000 C 
BRANCH  76  77
ATOM     77  C58 UNK     0      -2.657   6.260 -28.446  0.00  0.00    +0.000 C 
ATOM     78  C59 UNK     0      -2.493   5.023 -29.330  0.00  0.00    +0.000 C 
ATOM     79  C76 UNK     0      -4.059   6.848 -28.643  0.00  0.00    +0.000 C 
ENDBRANCH  76  77
ENDBRANCH  34  76
BRANCH  12  80
ATOM     80  C21 UNK     0       2.992  -2.739 -21.882  0.00  0.00    +0.000 C 
BRANCH  80  81
ATOM     81  C82 UNK     0       2.623  -2.456 -23.352  0.00  0.00    +0.000 C 
ATOM     82  C83 UNK     0       1.267  -3.044 -23.738  0.00  0.00    +0.000 C 
ATOM     83  C84 UNK     0       3.707  -3.024 -24.273  0.00  0.00    +0.000 C 
ENDBRANCH  80  81
ENDBRANCH  12  80
BRANCH  42  84
ATOM     84  C75 UNK     0       3.242   1.424 -28.075  0.00  0.00    +0.000 C 
BRANCH  84  85
ATOM     85  C79 UNK     0       2.787   0.040 -27.569  0.00  0.00    +0.000 C 
ATOM     86  C80 UNK     0       2.105   0.096 -26.202  0.00  0.00    +0.000 C 
ATOM     87  C81 UNK     0       3.992  -0.903 -27.496  0.00  0.00    +0.000 C 
ENDBRANCH  84  85
ENDBRANCH  42  84
BRANCH   9  88
ATOM     88  C15 UNK     0       8.330  -1.246 -20.145  0.00  0.00    +0.000 C 
BRANCH  88  89
ATOM     89  C16 UNK     0       9.325  -2.426 -20.033  0.00  0.00    +0.000 C 
ATOM     90  C17 UNK     0       9.048  -3.541 -21.038  0.00  0.00    +0.000 C 
ATOM     91  C18 UNK     0      10.757  -1.915 -20.213  0.00  0.00    +0.000 C 
ENDBRANCH  88  89
ENDBRANCH   9  88
TORSDOF 17
ENDMDL
MODEL 7
REMARK VINA RESULT:      -5.2      3.341     11.603
REMARK  Name = CyclosporineA.pdb
REMARK  40 active torsions:
REMARK  status: ('A' for Active; 'I' for Inactive)
REMARK    1  A    between atoms: C1_1  and  C78_78
REMARK    2  A    between atoms: N7_7  and  C8_8
REMARK    3  A    between atoms: C9_9  and  C15_15
REMARK    4  A    between atoms: N11_11  and  C20_20
REMARK    5  A    between atoms: C12_12  and  C21_21
REMARK    6  A    between atoms: N14_14  and  C23_23
REMARK    7  A    between atoms: C15_15  and  C16_16
REMARK    8  A    between atoms: C16_16  and  C17_17
REMARK    9  A    between atoms: C16_16  and  C18_18
REMARK   10  A    between atoms: C21_21  and  C82_82
REMARK   11  A    between atoms: C24_24  and  C25_25
REMARK   12  A    between atoms: C25_25  and  C30_30
REMARK   13  A    between atoms: C25_25  and  C31_31
REMARK   14  A    between atoms: C26_26  and  O27_27
REMARK   15  A    between atoms: N28_28  and  C29_29
REMARK   16  A    between atoms: C32_32  and  C34_34
REMARK   17  A    between atoms: C34_34  and  C35_35
REMARK   18  A    between atoms: C34_34  and  O40_40
REMARK   19  A    between atoms: C35_35  and  C36_36
REMARK   20  A    between atoms: C35_35  and  C41_41
REMARK   21  A    between atoms: C36_36  and  C37_37
REMARK   22  A    between atoms: C38_38  and  C39_39
REMARK   23  A    between atoms: C44_44  and  C45_45
REMARK   24  A    between atoms: C45_45  and  C46_46
REMARK   25  A    between atoms: N49_49  and  C77_77
REMARK   26  A    between atoms: C53_53  and  C57_57
REMARK   27  A    between atoms: C57_57  and  C58_58
REMARK   28  A    between atoms: C58_58  and  C59_59
REMARK   29  A    between atoms: C58_58  and  C76_76
REMARK   30  A    between atoms: C61_61  and  C62_62
REMARK   31  A    between atoms: C62_62  and  C63_63
REMARK   32  A    between atoms: C62_62  and  C64_64
REMARK   33  A    between atoms: N66_66  and  C68_68
REMARK   34  A    between atoms: C67_67  and  C75_75
REMARK   35  A    between atoms: C73_73  and  C74_74
REMARK   36  A    between atoms: C75_75  and  C79_79
REMARK   37  A    between atoms: C79_79  and  C80_80
REMARK   38  A    between atoms: C79_79  and  C81_81
REMARK   39  A    between atoms: C82_82  and  C83_83
REMARK   40  A    between atoms: C82_82  and  C84_84
REMARK                            x       y       z     vdW  Elec       q    Type
REMARK                         _______ _______ _______ _____ _____    ______ ____
ROOT
ATOM      1  C1  UNK     0       9.838  -6.853 -29.486  0.00  0.00    +0.000 C 
ATOM      2  C2  UNK     0      10.908  -5.901 -28.882  0.00  0.00    +0.000 C 
ATOM      3  N3  UNK     0       8.552  -6.360 -29.018  0.00  0.00    +0.000 N 
ATOM      4  C4  UNK     0       7.371  -6.567 -29.690  0.00  0.00    +0.000 C 
ATOM      5  O5  UNK     0       7.314  -7.109 -30.791  0.00  0.00    +0.000 OA
ATOM      6  C6  UNK     0      11.622  -6.326 -27.819  0.00  0.00    +0.000 C 
ATOM      7  N7  UNK     0      11.065  -4.603 -29.462  0.00  0.00    +0.000 N 
ATOM      8  C8  UNK     0      10.316  -4.217 -30.672  0.00  0.00    +0.000 C 
ATOM      9  C9  UNK     0      11.973  -3.550 -28.875  0.00  0.00    +0.000 C 
ATOM     10  C10 UNK     0      11.254  -2.759 -27.725  0.00  0.00    +0.000 C 
ATOM     11  N11 UNK     0      12.027  -2.313 -26.609  0.00  0.00    +0.000 N 
ATOM     12  C12 UNK     0      11.425  -2.023 -25.267  0.00  0.00    +0.000 C 
ATOM     13  C13 UNK     0      11.423  -0.487 -24.967  0.00  0.00    +0.000 C 
ATOM     14  N14 UNK     0      11.434  -0.085 -23.604  0.00  0.00    +0.000 N 
ATOM     15  C19 UNK     0       9.925  -2.533 -27.801  0.00  0.00    +0.000 C 
ATOM     16  C20 UNK     0      13.492  -2.204 -26.666  0.00  0.00    +0.000 C 
ATOM     17  C22 UNK     0      11.475   0.432 -25.951  0.00  0.00    +0.000 C 
ATOM     18  C23 UNK     0      12.758   0.464 -23.183  0.00  0.00    +0.000 C 
ATOM     19  C24 UNK     0      10.260   0.719 -23.030  0.00  0.00    +0.000 C 
ATOM     20  C26 UNK     0      10.438   0.854 -21.442  0.00  0.00    +0.000 C 
ATOM     21  N28 UNK     0       9.283   1.442 -20.760  0.00  0.00    +0.000 NA
ATOM     22  C29 UNK     0       9.332   2.906 -20.816  0.00  0.00    +0.000 C 
ATOM     23  C32 UNK     0       9.020   0.931 -19.374  0.00  0.00    +0.000 C 
ATOM     24  C33 UNK     0       7.538   1.284 -19.072  0.00  0.00    +0.000 C 
ATOM     25  O42 UNK     0       7.176   2.062 -18.197  0.00  0.00    +0.000 OA
ATOM     26  N43 UNK     0       6.676   0.643 -19.944  0.00  0.00    +0.000 N 
ATOM     27  C44 UNK     0       5.236   0.786 -19.891  0.00  0.00    +0.000 C 
ATOM     28  C47 UNK     0       4.683  -0.092 -18.741  0.00  0.00    +0.000 C 
ATOM     29  C48 UNK     0       4.000   0.569 -17.783  0.00  0.00    +0.000 C 
ATOM     30  N49 UNK     0       4.885  -1.496 -18.680  0.00  0.00    +0.000 N 
ATOM     31  C50 UNK     0       5.702  -2.302 -19.631  0.00  0.00    +0.000 C 
ATOM     32  C51 UNK     0       4.854  -3.375 -20.339  0.00  0.00    +0.000 C 
ATOM     33  N52 UNK     0       3.521  -3.042 -20.452  0.00  0.00    +0.000 N 
ATOM     34  C53 UNK     0       2.612  -3.785 -21.312  0.00  0.00    +0.000 C 
ATOM     35  C54 UNK     0       2.870  -3.354 -22.780  0.00  0.00    +0.000 C 
ATOM     36  N55 UNK     0       2.415  -4.263 -23.716  0.00  0.00    +0.000 N 
ATOM     37  O56 UNK     0       5.329  -4.409 -20.802  0.00  0.00    +0.000 OA
ATOM     38  O60 UNK     0       3.384  -2.279 -23.073  0.00  0.00    +0.000 OA
ATOM     39  C61 UNK     0       2.665  -4.147 -25.161  0.00  0.00    +0.000 C 
ATOM     40  C65 UNK     0       4.121  -4.633 -25.426  0.00  0.00    +0.000 C 
ATOM     41  N66 UNK     0       4.431  -5.972 -25.116  0.00  0.00    +0.000 N 
ATOM     42  C67 UNK     0       5.856  -6.378 -25.296  0.00  0.00    +0.000 C 
ATOM     43  C68 UNK     0       3.427  -7.033 -25.207  0.00  0.00    +0.000 C 
ATOM     44  O69 UNK     0       4.980  -3.889 -25.911  0.00  0.00    +0.000 OA
ATOM     45  C70 UNK     0       6.035  -6.771 -26.782  0.00  0.00    +0.000 C 
ATOM     46  N71 UNK     0       6.274  -5.693 -27.616  0.00  0.00    +0.000 N 
ATOM     47  O72 UNK     0       5.870  -7.914 -27.200  0.00  0.00    +0.000 OA
ATOM     48  C73 UNK     0       6.155  -5.847 -29.068  0.00  0.00    +0.000 C 
ATOM     49  C74 UNK     0       6.025  -4.476 -29.724  0.00  0.00    +0.000 C 
ATOM     50  C77 UNK     0       4.526  -2.263 -17.471  0.00  0.00    +0.000 C 
ATOM     51  C78 UNK     0       9.974  -8.349 -29.176  0.00  0.00    +0.000 C 
ATOM     52  H2  UNK     0       8.519  -5.882 -28.126  0.00  0.00    +0.000 HD
ATOM     53  H58 UNK     0       7.101   0.261 -20.778  0.00  0.00    +0.000 HD
ATOM     54  H69 UNK     0       3.315  -2.071 -20.229  0.00  0.00    +0.000 HD
ATOM     55  H71 UNK     0       2.263  -5.200 -23.370  0.00  0.00    +0.000 HD
ATOM     56  H90 UNK     0       6.038  -4.783 -27.215  0.00  0.00    +0.000 HD
ENDROOT
BRANCH  39  57
ATOM     57  C62 UNK     0       2.334  -2.768 -25.790  0.00  0.00    +0.000 C 
ATOM     58  C63 UNK     0       2.477  -2.818 -27.320  0.00  0.00    +0.000 C 
ATOM     59  C64 UNK     0       0.904  -2.317 -25.460  0.00  0.00    +0.000 C 
ENDBRANCH  39  57
BRANCH  19  60
ATOM     60  C25 UNK     0       8.834   0.143 -23.366  0.00  0.00    +0.000 C 
ATOM     61  C30 UNK     0       8.211   0.681 -24.657  0.00  0.00    +0.000 C 
ATOM     62  C31 UNK     0       8.700  -1.380 -23.298  0.00  0.00    +0.000 C 
ENDBRANCH  19  60
BRANCH  20  63
ATOM     63  O27 UNK     0      10.771  -0.430 -20.898  0.00  0.00    +0.000 OA
ATOM     64  H34 UNK     0       9.993  -0.667 -20.351  0.00  0.00    +0.000 HD
ENDBRANCH  20  63
BRANCH  27  65
ATOM     65  C45 UNK     0       4.595   0.524 -21.265  0.00  0.00    +0.000 C 
ATOM     66  C46 UNK     0       3.084   0.712 -21.272  0.00  0.00    +0.000 C 
ENDBRANCH  27  65
BRANCH  23  67
ATOM     67  C34 UNK     0       9.980   1.388 -18.232  0.00  0.00    +0.000 C 
BRANCH  67  68
ATOM     68  C35 UNK     0      10.206   0.339 -17.099  0.00  0.00    +0.000 C 
ATOM     69  C41 UNK     0      10.252   0.928 -15.686  0.00  0.00    +0.000 C 
BRANCH  68  70
ATOM     70  C36 UNK     0      11.500  -0.466 -17.394  0.00  0.00    +0.000 C 
BRANCH  70  71
ATOM     71  C37 UNK     0      11.275  -1.951 -17.510  0.00  0.00    +0.000 C 
ATOM     72  C38 UNK     0      11.617  -2.678 -18.585  0.00  0.00    +0.000 C 
ATOM     73  C39 UNK     0      11.387  -4.148 -18.707  0.00  0.00    +0.000 C 
ENDBRANCH  70  71
ENDBRANCH  68  70
ENDBRANCH  67  68
BRANCH  67  74
ATOM     74  O40 UNK     0      11.289   1.665 -18.779  0.00  0.00    +0.000 OA
ATOM     75  H54 UNK     0      11.434   2.622 -18.634  0.00  0.00    +0.000 HD
ENDBRANCH  67  74
ENDBRANCH  23  67
BRANCH  34  76
ATOM     76  C57 UNK     0       1.165  -3.493 -20.883  0.00  0.00    +0.000 C 
BRANCH  76  77
ATOM     77  C58 UNK     0       0.364  -4.678 -20.309  0.00  0.00    +0.000 C 
ATOM     78  C59 UNK     0       0.287  -5.859 -21.279  0.00  0.00    +0.000 C 
ATOM     79  C76 UNK     0       1.000  -5.137 -18.992  0.00  0.00    +0.000 C 
ENDBRANCH  76  77
ENDBRANCH  34  76
BRANCH  12  80
ATOM     80  C21 UNK     0      12.104  -2.860 -24.143  0.00  0.00    +0.000 C 
BRANCH  80  81
ATOM     81  C82 UNK     0      11.440  -4.216 -23.829  0.00  0.00    +0.000 C 
ATOM     82  C83 UNK     0      10.247  -4.507 -24.737  0.00  0.00    +0.000 C 
ATOM     83  C84 UNK     0      10.988  -4.240 -22.366  0.00  0.00    +0.000 C 
ENDBRANCH  80  81
ENDBRANCH  12  80
BRANCH  42  84
ATOM     84  C75 UNK     0       6.263  -7.508 -24.327  0.00  0.00    +0.000 C 
BRANCH  84  85
ATOM     85  C79 UNK     0       7.455  -7.166 -23.408  0.00  0.00    +0.000 C 
ATOM     86  C80 UNK     0       7.539  -5.679 -23.065  0.00  0.00    +0.000 C 
ATOM     87  C81 UNK     0       8.761  -7.609 -24.074  0.00  0.00    +0.000 C 
ENDBRANCH  84  85
ENDBRANCH  42  84
BRANCH   9  88
ATOM     88  C15 UNK     0      12.632  -2.606 -29.923  0.00  0.00    +0.000 C 
BRANCH  88  89
ATOM     89  C16 UNK     0      12.140  -1.141 -29.840  0.00  0.00    +0.000 C 
ATOM     90  C17 UNK     0      13.276  -0.135 -29.672  0.00  0.00    +0.000 C 
ATOM     91  C18 UNK     0      11.328  -0.796 -31.092  0.00  0.00    +0.000 C 
ENDBRANCH  88  89
ENDBRANCH   9  88
TORSDOF 17
ENDMDL
MODEL 8
REMARK VINA RESULT:      -5.2     19.218     23.282
REMARK  Name = CyclosporineA.pdb
REMARK  40 active torsions:
REMARK  status: ('A' for Active; 'I' for Inactive)
REMARK    1  A    between atoms: C1_1  and  C78_78
REMARK    2  A    between atoms: N7_7  and  C8_8
REMARK    3  A    between atoms: C9_9  and  C15_15
REMARK    4  A    between atoms: N11_11  and  C20_20
REMARK    5  A    between atoms: C12_12  and  C21_21
REMARK    6  A    between atoms: N14_14  and  C23_23
REMARK    7  A    between atoms: C15_15  and  C16_16
REMARK    8  A    between atoms: C16_16  and  C17_17
REMARK    9  A    between atoms: C16_16  and  C18_18
REMARK   10  A    between atoms: C21_21  and  C82_82
REMARK   11  A    between atoms: C24_24  and  C25_25
REMARK   12  A    between atoms: C25_25  and  C30_30
REMARK   13  A    between atoms: C25_25  and  C31_31
REMARK   14  A    between atoms: C26_26  and  O27_27
REMARK   15  A    between atoms: N28_28  and  C29_29
REMARK   16  A    between atoms: C32_32  and  C34_34
REMARK   17  A    between atoms: C34_34  and  C35_35
REMARK   18  A    between atoms: C34_34  and  O40_40
REMARK   19  A    between atoms: C35_35  and  C36_36
REMARK   20  A    between atoms: C35_35  and  C41_41
REMARK   21  A    between atoms: C36_36  and  C37_37
REMARK   22  A    between atoms: C38_38  and  C39_39
REMARK   23  A    between atoms: C44_44  and  C45_45
REMARK   24  A    between atoms: C45_45  and  C46_46
REMARK   25  A    between atoms: N49_49  and  C77_77
REMARK   26  A    between atoms: C53_53  and  C57_57
REMARK   27  A    between atoms: C57_57  and  C58_58
REMARK   28  A    between atoms: C58_58  and  C59_59
REMARK   29  A    between atoms: C58_58  and  C76_76
REMARK   30  A    between atoms: C61_61  and  C62_62
REMARK   31  A    between atoms: C62_62  and  C63_63
REMARK   32  A    between atoms: C62_62  and  C64_64
REMARK   33  A    between atoms: N66_66  and  C68_68
REMARK   34  A    between atoms: C67_67  and  C75_75
REMARK   35  A    between atoms: C73_73  and  C74_74
REMARK   36  A    between atoms: C75_75  and  C79_79
REMARK   37  A    between atoms: C79_79  and  C80_80
REMARK   38  A    between atoms: C79_79  and  C81_81
REMARK   39  A    between atoms: C82_82  and  C83_83
REMARK   40  A    between atoms: C82_82  and  C84_84
REMARK                            x       y       z     vdW  Elec       q    Type
REMARK                         _______ _______ _______ _____ _____    ______ ____
ROOT
ATOM      1  C1  UNK     0      13.362  15.492 -15.848  0.00  0.00    +0.000 C 
ATOM      2  C2  UNK     0      14.318  14.327 -16.229  0.00  0.00    +0.000 C 
ATOM      3  N3  UNK     0      13.548  15.717 -14.424  0.00  0.00    +0.000 N 
ATOM      4  C4  UNK     0      13.310  16.922 -13.808  0.00  0.00    +0.000 C 
ATOM      5  O5  UNK     0      13.005  17.940 -14.427  0.00  0.00    +0.000 OA
ATOM      6  C6  UNK     0      13.795  13.097 -16.408  0.00  0.00    +0.000 C 
ATOM      7  N7  UNK     0      15.717  14.607 -16.339  0.00  0.00    +0.000 N 
ATOM      8  C8  UNK     0      16.227  15.985 -16.210  0.00  0.00    +0.000 C 
ATOM      9  C9  UNK     0      16.750  13.531 -16.567  0.00  0.00    +0.000 C 
ATOM     10  C10 UNK     0      17.168  12.852 -15.214  0.00  0.00    +0.000 C 
ATOM     11  N11 UNK     0      17.485  11.458 -15.214  0.00  0.00    +0.000 N 
ATOM     12  C12 UNK     0      17.398  10.605 -13.983  0.00  0.00    +0.000 C 
ATOM     13  C13 UNK     0      18.820  10.198 -13.474  0.00  0.00    +0.000 C 
ATOM     14  N14 UNK     0      18.929   8.997 -12.723  0.00  0.00    +0.000 N 
ATOM     15  C19 UNK     0      17.203  13.586 -14.083  0.00  0.00    +0.000 C 
ATOM     16  C20 UNK     0      17.823  10.732 -16.447  0.00  0.00    +0.000 C 
ATOM     17  C22 UNK     0      19.920  10.914 -13.783  0.00  0.00    +0.000 C 
ATOM     18  C23 UNK     0      19.571   7.895 -13.500  0.00  0.00    +0.000 C 
ATOM     19  C24 UNK     0      19.412   9.042 -11.267  0.00  0.00    +0.000 C 
ATOM     20  C26 UNK     0      19.240   7.589 -10.609  0.00  0.00    +0.000 C 
ATOM     21  N28 UNK     0      19.494   7.555  -9.167  0.00  0.00    +0.000 NA
ATOM     22  C29 UNK     0      20.929   7.430  -8.890  0.00  0.00    +0.000 C 
ATOM     23  C32 UNK     0      18.675   6.569  -8.388  0.00  0.00    +0.000 C 
ATOM     24  C33 UNK     0      18.730   7.050  -6.912  0.00  0.00    +0.000 C 
ATOM     25  O42 UNK     0      19.248   6.419  -5.997  0.00  0.00    +0.000 OA
ATOM     26  N43 UNK     0      18.162   8.302  -6.765  0.00  0.00    +0.000 N 
ATOM     27  C44 UNK     0      18.072   8.994  -5.496  0.00  0.00    +0.000 C 
ATOM     28  C47 UNK     0      16.903   8.395  -4.676  0.00  0.00    +0.000 C 
ATOM     29  C48 UNK     0      17.241   7.873  -3.478  0.00  0.00    +0.000 C 
ATOM     30  N49 UNK     0      15.563   8.379  -5.146  0.00  0.00    +0.000 N 
ATOM     31  C50 UNK     0      15.103   8.840  -6.486  0.00  0.00    +0.000 C 
ATOM     32  C51 UNK     0      14.085   9.989  -6.372  0.00  0.00    +0.000 C 
ATOM     33  N52 UNK     0      14.229  10.746  -5.229  0.00  0.00    +0.000 N 
ATOM     34  C53 UNK     0      13.552  12.024  -5.061  0.00  0.00    +0.000 C 
ATOM     35  C54 UNK     0      14.311  13.090  -5.894  0.00  0.00    +0.000 C 
ATOM     36  N55 UNK     0      13.558  14.212  -6.183  0.00  0.00    +0.000 N 
ATOM     37  O56 UNK     0      13.252  10.238  -7.240  0.00  0.00    +0.000 OA
ATOM     38  O60 UNK     0      15.489  12.963  -6.216  0.00  0.00    +0.000 OA
ATOM     39  C61 UNK     0      14.006  15.295  -7.072  0.00  0.00    +0.000 C 
ATOM     40  C65 UNK     0      13.810  14.809  -8.539  0.00  0.00    +0.000 C 
ATOM     41  N66 UNK     0      12.498  14.518  -8.962  0.00  0.00    +0.000 N 
ATOM     42  C67 UNK     0      12.356  13.969 -10.343  0.00  0.00    +0.000 C 
ATOM     43  C68 UNK     0      11.340  15.226  -8.413  0.00  0.00    +0.000 C 
ATOM     44  O69 UNK     0      14.758  14.698  -9.323  0.00  0.00    +0.000 OA
ATOM     45  C70 UNK     0      12.311  15.174 -11.313  0.00  0.00    +0.000 C 
ATOM     46  N71 UNK     0      13.561  15.648 -11.668  0.00  0.00    +0.000 N 
ATOM     47  O72 UNK     0      11.268  15.730 -11.647  0.00  0.00    +0.000 OA
ATOM     48  C73 UNK     0      13.695  16.956 -12.314  0.00  0.00    +0.000 C 
ATOM     49  C74 UNK     0      15.136  17.443 -12.203  0.00  0.00    +0.000 C 
ATOM     50  C77 UNK     0      14.517   7.618  -4.433  0.00  0.00    +0.000 C 
ATOM     51  C78 UNK     0      11.872  15.308 -16.163  0.00  0.00    +0.000 C 
ATOM     52  H2  UNK     0      13.821  14.930 -13.847  0.00  0.00    +0.000 HD
ATOM     53  H58 UNK     0      18.028   8.826  -7.620  0.00  0.00    +0.000 HD
ATOM     54  H69 UNK     0      15.091  10.568  -4.719  0.00  0.00    +0.000 HD
ATOM     55  H71 UNK     0      12.558  14.091  -6.106  0.00  0.00    +0.000 HD
ATOM     56  H90 UNK     0      14.323  15.341 -11.059  0.00  0.00    +0.000 HD
ENDROOT
BRANCH  39  57
ATOM     57  C62 UNK     0      15.420  15.862  -6.777  0.00  0.00    +0.000 C 
ATOM     58  C63 UNK     0      15.707  17.093  -7.653  0.00  0.00    +0.000 C 
ATOM     59  C64 UNK     0      15.574  16.277  -5.307  0.00  0.00    +0.000 C 
ENDBRANCH  39  57
BRANCH  19  60
ATOM     60  C25 UNK     0      18.710  10.128 -10.368  0.00  0.00    +0.000 C 
ATOM     61  C30 UNK     0      19.354  11.516 -10.416  0.00  0.00    +0.000 C 
ATOM     62  C31 UNK     0      17.190  10.235 -10.521  0.00  0.00    +0.000 C 
ENDBRANCH  19  60
BRANCH  20  63
ATOM     63  O27 UNK     0      17.937   7.084 -10.924  0.00  0.00    +0.000 OA
ATOM     64  H34 UNK     0      18.112   6.326 -11.520  0.00  0.00    +0.000 HD
ENDBRANCH  20  63
BRANCH  27  65
ATOM     65  C45 UNK     0      18.007  10.519  -5.691  0.00  0.00    +0.000 C 
ATOM     66  C46 UNK     0      19.003  11.038  -6.719  0.00  0.00    +0.000 C 
ENDBRANCH  27  65
BRANCH  23  67
ATOM     67  C34 UNK     0      19.024   5.055  -8.528  0.00  0.00    +0.000 C 
BRANCH  67  68
ATOM     68  C35 UNK     0      17.846   4.074  -8.237  0.00  0.00    +0.000 C 
ATOM     69  C41 UNK     0      16.596   4.737  -7.650  0.00  0.00    +0.000 C 
BRANCH  68  70
ATOM     70  C36 UNK     0      18.343   2.935  -7.307  0.00  0.00    +0.000 C 
BRANCH  70  71
ATOM     71  C37 UNK     0      18.358   1.580  -7.966  0.00  0.00    +0.000 C 
ATOM     72  C38 UNK     0      18.690   1.376  -9.249  0.00  0.00    +0.000 C 
ATOM     73  C39 UNK     0      18.696   0.037  -9.909  0.00  0.00    +0.000 C 
ENDBRANCH  70  71
ENDBRANCH  68  70
ENDBRANCH  67  68
BRANCH  67  74
ATOM     74  O40 UNK     0      19.443   4.777  -9.884  0.00  0.00    +0.000 OA
ATOM     75  H54 UNK     0      19.250   3.828 -10.027  0.00  0.00    +0.000 HD
ENDBRANCH  67  74
ENDBRANCH  23  67
BRANCH  34  76
ATOM     76  C57 UNK     0      13.529  12.385  -3.566  0.00  0.00    +0.000 C 
BRANCH  76  77
ATOM     77  C58 UNK     0      12.222  12.999  -3.027  0.00  0.00    +0.000 C 
ATOM     78  C59 UNK     0      11.032  12.754  -3.955  0.00  0.00    +0.000 C 
ATOM     79  C76 UNK     0      11.919  12.420  -1.640  0.00  0.00    +0.000 C 
ENDBRANCH  76  77
ENDBRANCH  34  76
BRANCH  12  80
ATOM     80  C21 UNK     0      16.458   9.383 -14.201  0.00  0.00    +0.000 C 
BRANCH  80  81
ATOM     81  C82 UNK     0      15.008   9.561 -13.709  0.00  0.00    +0.000 C 
ATOM     82  C83 UNK     0      13.986   9.397 -14.832  0.00  0.00    +0.000 C 
ATOM     83  C84 UNK     0      14.848  10.944 -13.069  0.00  0.00    +0.000 C 
ENDBRANCH  80  81
ENDBRANCH  12  80
BRANCH  42  84
ATOM     84  C75 UNK     0      11.125  13.048 -10.477  0.00  0.00    +0.000 C 
BRANCH  84  85
ATOM     85  C79 UNK     0      11.413  11.684 -11.137  0.00  0.00    +0.000 C 
ATOM     86  C80 UNK     0      10.868  11.580 -12.561  0.00  0.00    +0.000 C 
ATOM     87  C81 UNK     0      10.816  10.563 -10.281  0.00  0.00    +0.000 C 
ENDBRANCH  84  85
ENDBRANCH  42  84
BRANCH   9  88
ATOM     88  C15 UNK     0      17.978  13.981 -17.411  0.00  0.00    +0.000 C 
BRANCH  88  89
ATOM     89  C16 UNK     0      17.801  13.767 -18.934  0.00  0.00    +0.000 C 
ATOM     90  C17 UNK     0      19.019  13.127 -19.595  0.00  0.00    +0.000 C 
ATOM     91  C18 UNK     0      16.563  12.904 -19.194  0.00  0.00    +0.000 C 
ENDBRANCH  88  89
ENDBRANCH   9  88
TORSDOF 17
ENDMDL
MODEL 9
REMARK VINA RESULT:      -5.2      4.621      7.750
REMARK  Name = CyclosporineA.pdb
REMARK  40 active torsions:
REMARK  status: ('A' for Active; 'I' for Inactive)
REMARK    1  A    between atoms: C1_1  and  C78_78
REMARK    2  A    between atoms: N7_7  and  C8_8
REMARK    3  A    between atoms: C9_9  and  C15_15
REMARK    4  A    between atoms: N11_11  and  C20_20
REMARK    5  A    between atoms: C12_12  and  C21_21
REMARK    6  A    between atoms: N14_14  and  C23_23
REMARK    7  A    between atoms: C15_15  and  C16_16
REMARK    8  A    between atoms: C16_16  and  C17_17
REMARK    9  A    between atoms: C16_16  and  C18_18
REMARK   10  A    between atoms: C21_21  and  C82_82
REMARK   11  A    between atoms: C24_24  and  C25_25
REMARK   12  A    between atoms: C25_25  and  C30_30
REMARK   13  A    between atoms: C25_25  and  C31_31
REMARK   14  A    between atoms: C26_26  and  O27_27
REMARK   15  A    between atoms: N28_28  and  C29_29
REMARK   16  A    between atoms: C32_32  and  C34_34
REMARK   17  A    between atoms: C34_34  and  C35_35
REMARK   18  A    between atoms: C34_34  and  O40_40
REMARK   19  A    between atoms: C35_35  and  C36_36
REMARK   20  A    between atoms: C35_35  and  C41_41
REMARK   21  A    between atoms: C36_36  and  C37_37
REMARK   22  A    between atoms: C38_38  and  C39_39
REMARK   23  A    between atoms: C44_44  and  C45_45
REMARK   24  A    between atoms: C45_45  and  C46_46
REMARK   25  A    between atoms: N49_49  and  C77_77
REMARK   26  A    between atoms: C53_53  and  C57_57
REMARK   27  A    between atoms: C57_57  and  C58_58
REMARK   28  A    between atoms: C58_58  and  C59_59
REMARK   29  A    between atoms: C58_58  and  C76_76
REMARK   30  A    between atoms: C61_61  and  C62_62
REMARK   31  A    between atoms: C62_62  and  C63_63
REMARK   32  A    between atoms: C62_62  and  C64_64
REMARK   33  A    between atoms: N66_66  and  C68_68
REMARK   34  A    between atoms: C67_67  and  C75_75
REMARK   35  A    between atoms: C73_73  and  C74_74
REMARK   36  A    between atoms: C75_75  and  C79_79
REMARK   37  A    between atoms: C79_79  and  C80_80
REMARK   38  A    between atoms: C79_79  and  C81_81
REMARK   39  A    between atoms: C82_82  and  C83_83
REMARK   40  A    between atoms: C82_82  and  C84_84
REMARK                            x       y       z     vdW  Elec       q    Type
REMARK                         _______ _______ _______ _____ _____    ______ ____
ROOT
ATOM      1  C1  UNK     0      -9.136   1.531 -22.882  0.00  0.00    +0.000 C 
ATOM      2  C2  UNK     0      -9.373   0.146 -23.546  0.00  0.00    +0.000 C 
ATOM      3  N3  UNK     0      -7.698   1.745 -22.901  0.00  0.00    +0.000 N 
ATOM      4  C4  UNK     0      -7.117   2.991 -22.895  0.00  0.00    +0.000 C 
ATOM      5  O5  UNK     0      -7.766   4.032 -22.965  0.00  0.00    +0.000 OA
ATOM      6  C6  UNK     0      -9.642  -0.912 -22.753  0.00  0.00    +0.000 C 
ATOM      7  N7  UNK     0      -9.262   0.049 -24.969  0.00  0.00    +0.000 N 
ATOM      8  C8  UNK     0      -9.043   1.250 -25.796  0.00  0.00    +0.000 C 
ATOM      9  C9  UNK     0      -9.336  -1.266 -25.707  0.00  0.00    +0.000 C 
ATOM     10  C10 UNK     0      -7.940  -1.985 -25.722  0.00  0.00    +0.000 C 
ATOM     11  N11 UNK     0      -7.902  -3.413 -25.659  0.00  0.00    +0.000 N 
ATOM     12  C12 UNK     0      -6.707  -4.173 -25.166  0.00  0.00    +0.000 C 
ATOM     13  C13 UNK     0      -5.987  -4.919 -26.337  0.00  0.00    +0.000 C 
ATOM     14  N14 UNK     0      -5.238  -6.082 -26.012  0.00  0.00    +0.000 N 
ATOM     15  C19 UNK     0      -6.810  -1.249 -25.775  0.00  0.00    +0.000 C 
ATOM     16  C20 UNK     0      -9.073  -4.242 -25.979  0.00  0.00    +0.000 C 
ATOM     17  C22 UNK     0      -6.114  -4.524 -27.619  0.00  0.00    +0.000 C 
ATOM     18  C23 UNK     0      -5.915  -7.338 -26.455  0.00  0.00    +0.000 C 
ATOM     19  C24 UNK     0      -3.724  -6.117 -26.262  0.00  0.00    +0.000 C 
ATOM     20  C26 UNK     0      -3.113  -7.452 -25.618  0.00  0.00    +0.000 C 
ATOM     21  N28 UNK     0      -1.649  -7.505 -25.632  0.00  0.00    +0.000 NA
ATOM     22  C29 UNK     0      -1.154  -7.988 -26.925  0.00  0.00    +0.000 C 
ATOM     23  C32 UNK     0      -1.016  -8.218 -24.474  0.00  0.00    +0.000 C 
ATOM     24  C33 UNK     0       0.455  -7.720 -24.428  0.00  0.00    +0.000 C 
ATOM     25  O42 UNK     0       1.434  -8.433 -24.617  0.00  0.00    +0.000 OA
ATOM     26  N43 UNK     0       0.522  -6.359 -24.191  0.00  0.00    +0.000 N 
ATOM     27  C44 UNK     0       1.768  -5.627 -24.094  0.00  0.00    +0.000 C 
ATOM     28  C47 UNK     0       2.391  -5.874 -22.698  0.00  0.00    +0.000 C 
ATOM     29  C48 UNK     0       3.622  -6.427 -22.701  0.00  0.00    +0.000 C 
ATOM     30  N49 UNK     0       1.718  -5.557 -21.488  0.00  0.00    +0.000 N 
ATOM     31  C50 UNK     0       0.327  -5.037 -21.375  0.00  0.00    +0.000 C 
ATOM     32  C51 UNK     0       0.291  -3.659 -20.687  0.00  0.00    +0.000 C 
ATOM     33  N52 UNK     0       1.448  -2.929 -20.849  0.00  0.00    +0.000 N 
ATOM     34  C53 UNK     0       1.520  -1.514 -20.512  0.00  0.00    +0.000 C 
ATOM     35  C54 UNK     0       0.824  -0.710 -21.641  0.00  0.00    +0.000 C 
ATOM     36  N55 UNK     0       0.431   0.560 -21.261  0.00  0.00    +0.000 N 
ATOM     37  O56 UNK     0      -0.694  -3.231 -20.091  0.00  0.00    +0.000 OA
ATOM     38  O60 UNK     0       0.689  -1.149 -22.780  0.00  0.00    +0.000 OA
ATOM     39  C61 UNK     0      -0.368   1.459 -22.106  0.00  0.00    +0.000 C 
ATOM     40  C65 UNK     0      -1.852   0.993 -22.016  0.00  0.00    +0.000 C 
ATOM     41  N66 UNK     0      -2.477   1.040 -20.754  0.00  0.00    +0.000 N 
ATOM     42  C67 UNK     0      -3.867   0.501 -20.686  0.00  0.00    +0.000 C 
ATOM     43  C68 UNK     0      -2.108   2.041 -19.753  0.00  0.00    +0.000 C 
ATOM     44  O69 UNK     0      -2.480   0.614 -23.010  0.00  0.00    +0.000 OA
ATOM     45  C70 UNK     0      -4.822   1.645 -21.106  0.00  0.00    +0.000 C 
ATOM     46  N71 UNK     0      -4.974   1.766 -22.475  0.00  0.00    +0.000 N 
ATOM     47  O72 UNK     0      -5.310   2.441 -20.308  0.00  0.00    +0.000 OA
ATOM     48  C73 UNK     0      -5.580   2.973 -23.043  0.00  0.00    +0.000 C 
ATOM     49  C74 UNK     0      -5.243   3.072 -24.527  0.00  0.00    +0.000 C 
ATOM     50  C77 UNK     0       2.253  -5.997 -20.184  0.00  0.00    +0.000 C 
ATOM     51  C78 UNK     0      -9.680   1.730 -21.461  0.00  0.00    +0.000 C 
ATOM     52  H2  UNK     0      -7.093   0.934 -22.867  0.00  0.00    +0.000 HD
ATOM     53  H58 UNK     0      -0.338  -5.846 -24.332  0.00  0.00    +0.000 HD
ATOM     54  H69 UNK     0       2.085  -3.308 -21.546  0.00  0.00    +0.000 HD
ATOM     55  H71 UNK     0       0.350   0.705 -20.264  0.00  0.00    +0.000 HD
ATOM     56  H90 UNK     0      -4.257   1.291 -23.028  0.00  0.00    +0.000 HD
ENDROOT
BRANCH  39  57
ATOM     57  C62 UNK     0       0.148   1.649 -23.558  0.00  0.00    +0.000 C 
ATOM     58  C63 UNK     0      -0.665   2.731 -24.288  0.00  0.00    +0.000 C 
ATOM     59  C64 UNK     0       1.626   2.062 -23.589  0.00  0.00    +0.000 C 
ENDBRANCH  39  57
BRANCH  19  60
ATOM     60  C25 UNK     0      -2.937  -4.857 -25.740  0.00  0.00    +0.000 C 
ATOM     61  C30 UNK     0      -2.954  -3.652 -26.684  0.00  0.00    +0.000 C 
ATOM     62  C31 UNK     0      -3.253  -4.422 -24.307  0.00  0.00    +0.000 C 
ENDBRANCH  19  60
BRANCH  20  63
ATOM     63  O27 UNK     0      -3.631  -7.612 -24.292  0.00  0.00    +0.000 OA
ATOM     64  H34 UNK     0      -3.888  -6.704 -24.025  0.00  0.00    +0.000 HD
ENDBRANCH  20  63
BRANCH  27  65
ATOM     65  C45 UNK     0       1.578  -4.144 -24.460  0.00  0.00    +0.000 C 
ATOM     66  C46 UNK     0       0.677  -3.933 -25.670  0.00  0.00    +0.000 C 
ENDBRANCH  27  65
BRANCH  23  67
ATOM     67  C34 UNK     0      -1.113  -9.775 -24.433  0.00  0.00    +0.000 C 
BRANCH  67  68
ATOM     68  C35 UNK     0      -0.868 -10.416 -23.031  0.00  0.00    +0.000 C 
ATOM     69  C41 UNK     0       0.499 -11.086 -22.869  0.00  0.00    +0.000 C 
BRANCH  68  70
ATOM     70  C36 UNK     0      -2.007 -11.423 -22.720  0.00  0.00    +0.000 C 
BRANCH  70  71
ATOM     71  C37 UNK     0      -1.523 -12.832 -22.495  0.00  0.00    +0.000 C 
ATOM     72  C38 UNK     0      -1.968 -13.628 -21.511  0.00  0.00    +0.000 C 
ATOM     73  C39 UNK     0      -1.484 -15.021 -21.279  0.00  0.00    +0.000 C 
ENDBRANCH  70  71
ENDBRANCH  68  70
ENDBRANCH  67  68
BRANCH  67  74
ATOM     74  O40 UNK     0      -2.440 -10.189 -24.829  0.00  0.00    +0.000 OA
ATOM     75  H54 UNK     0      -2.773  -9.476 -25.411  0.00  0.00    +0.000 HD
ENDBRANCH  67  74
ENDBRANCH  23  67
BRANCH  34  76
ATOM     76  C57 UNK     0       2.996  -1.111 -20.357  0.00  0.00    +0.000 C 
BRANCH  76  77
ATOM     77  C58 UNK     0       3.443  -0.663 -18.952  0.00  0.00    +0.000 C 
ATOM     78  C59 UNK     0       2.310  -0.015 -18.154  0.00  0.00    +0.000 C 
ATOM     79  C76 UNK     0       3.989  -1.869 -18.179  0.00  0.00    +0.000 C 
ENDBRANCH  76  77
ENDBRANCH  34  76
BRANCH  12  80
ATOM     80  C21 UNK     0      -7.079  -5.116 -23.984  0.00  0.00    +0.000 C 
BRANCH  80  81
ATOM     81  C82 UNK     0      -6.946  -4.503 -22.575  0.00  0.00    +0.000 C 
ATOM     82  C83 UNK     0      -8.302  -4.242 -21.921  0.00  0.00    +0.000 C 
ATOM     83  C84 UNK     0      -6.156  -3.193 -22.656  0.00  0.00    +0.000 C 
ENDBRANCH  80  81
ENDBRANCH  12  80
BRANCH  42  84
ATOM     84  C75 UNK     0      -4.199  -0.072 -19.292  0.00  0.00    +0.000 C 
BRANCH  84  85
ATOM     85  C79 UNK     0      -4.502  -1.585 -19.276  0.00  0.00    +0.000 C 
ATOM     86  C80 UNK     0      -5.988  -1.896 -19.102  0.00  0.00    +0.000 C 
ATOM     87  C81 UNK     0      -3.707  -2.256 -18.152  0.00  0.00    +0.000 C 
ENDBRANCH  84  85
ENDBRANCH  42  84
BRANCH   9  88
ATOM     88  C15 UNK     0      -9.974  -1.178 -27.124  0.00  0.00    +0.000 C 
BRANCH  88  89
ATOM     89  C16 UNK     0     -11.455  -1.625 -27.169  0.00  0.00    +0.000 C 
ATOM     90  C17 UNK     0     -12.027  -1.945 -25.790  0.00  0.00    +0.000 C 
ATOM     91  C18 UNK     0     -12.303  -0.539 -27.837  0.00  0.00    +0.000 C 
ENDBRANCH  88  89
ENDBRANCH   9  88
TORSDOF 17
ENDMDL
