MODEL 1
REMARK VINA RESULT:      -6.1      0.000      0.000
REMARK  Name = Danazol.pdbqt.pdb
REMARK  2 active torsions:
REMARK  status: ('A' for Active; 'I' for Inactive)
REMARK    1  A    between atoms: C_9  and  O_23
REMARK    2  A    between atoms: C_9  and  C_25
REMARK                            x       y       z     vdW  Elec       q    Type
REMARK                         _______ _______ _______ _____ _____    ______ ____
ROOT
ATOM      1  O   UNL     1     -12.577   6.082  -2.316  0.00  0.00    +0.000 OA
ATOM      2  N   UNL     1     -13.866   5.654  -1.935  0.00  0.00    +0.000 NA
ATOM      3  C   UNL     1     -12.452   7.082  -9.861  0.00  0.00    +0.000 C 
ATOM      4  C   UNL     1     -13.870   7.045 -10.639  0.00  0.00    +0.000 C 
ATOM      5  C   UNL     1     -12.328   7.464  -8.441  0.00  0.00    +0.000 C 
ATOM      6  C   UNL     1     -13.463   7.718  -7.487  0.00  0.00    +0.000 C 
ATOM      7  C   UNL     1     -13.279   8.249  -6.045  0.00  0.00    +0.000 C 
ATOM      8  C   UNL     1     -14.885   7.184  -9.583  0.00  0.00    +0.000 C 
ATOM      9  C   UNL     1     -13.844   5.614 -11.423  0.00  0.00    +0.000 C 
ATOM     10  C   UNL     1     -14.719   7.513  -8.120  0.00  0.00    +0.000 C 
ATOM     11  C   UNL     1     -11.568   6.138 -10.457  0.00  0.00    +0.000 C 
ATOM     12  C   UNL     1     -11.069   7.508  -7.801  0.00  0.00    +0.000 C 
ATOM     13  C   UNL     1     -12.399   5.305 -11.388  0.00  0.00    +0.000 C 
ATOM     14  C   UNL     1     -11.768   8.011  -5.401  0.00  0.00    +0.000 C 
ATOM     15  C   UNL     1     -13.873   8.301 -11.584  0.00  0.00    +0.000 C 
ATOM     16  C   UNL     1     -10.754   7.761  -6.357  0.00  0.00    +0.000 C 
ATOM     17  C   UNL     1     -14.192   7.508  -5.103  0.00  0.00    +0.000 C 
ATOM     18  C   UNL     1     -13.551   9.780  -6.020  0.00  0.00    +0.000 C 
ATOM     19  C   UNL     1     -11.712   7.370  -4.254  0.00  0.00    +0.000 C 
ATOM     20  C   UNL     1     -14.015   6.803  -3.877  0.00  0.00    +0.000 A 
ATOM     21  C   UNL     1     -12.712   6.759  -3.463  0.00  0.00    +0.000 A 
ATOM     22  C   UNL     1     -14.707   6.109  -2.889  0.00  0.00    +0.000 A 
ENDROOT
BRANCH   9  23
ATOM     23  O   UNL     1     -14.280   5.666 -12.790  0.00  0.00    +0.000 OA
ATOM     24  H   UNL     1     -13.487   5.660 -13.353  0.00  0.00    +0.000 HD
ENDBRANCH   9  23
BRANCH   9  25
ATOM     25  C   UNL     1     -14.629   4.587 -10.695  0.00  0.00    +0.000 C 
ATOM     26  C   UNL     1     -15.239   3.748 -10.101  0.00  0.00    +0.000 C 
ENDBRANCH   9  25
TORSDOF 2
ENDMDL
MODEL 2
REMARK VINA RESULT:      -5.9     14.597     17.043
REMARK  Name = Danazol.pdbqt.pdb
REMARK  2 active torsions:
REMARK  status: ('A' for Active; 'I' for Inactive)
REMARK    1  A    between atoms: C_9  and  O_23
REMARK    2  A    between atoms: C_9  and  C_25
REMARK                            x       y       z     vdW  Elec       q    Type
REMARK                         _______ _______ _______ _____ _____    ______ ____
ROOT
ATOM      1  O   UNL     1      -4.340  14.253 -15.404  0.00  0.00    +0.000 OA
ATOM      2  N   UNL     1      -3.039  14.118 -15.934  0.00  0.00    +0.000 NA
ATOM      3  C   UNL     1      -4.270  19.697 -10.085  0.00  0.00    +0.000 C 
ATOM      4  C   UNL     1      -2.940  20.612  -9.976  0.00  0.00    +0.000 C 
ATOM      5  C   UNL     1      -4.681  19.029 -11.335  0.00  0.00    +0.000 C 
ATOM      6  C   UNL     1      -3.886  18.963 -12.611  0.00  0.00    +0.000 C 
ATOM      7  C   UNL     1      -4.421  18.367 -13.934  0.00  0.00    +0.000 C 
ATOM      8  C   UNL     1      -2.206  20.363 -11.226  0.00  0.00    +0.000 C 
ATOM      9  C   UNL     1      -2.222  20.090  -8.607  0.00  0.00    +0.000 C 
ATOM     10  C   UNL     1      -2.632  19.617 -12.466  0.00  0.00    +0.000 C 
ATOM     11  C   UNL     1      -4.550  19.128  -8.810  0.00  0.00    +0.000 C 
ATOM     12  C   UNL     1      -5.862  18.256 -11.398  0.00  0.00    +0.000 C 
ATOM     13  C   UNL     1      -3.349  19.393  -7.952  0.00  0.00    +0.000 C 
ATOM     14  C   UNL     1      -5.691  17.312 -13.761  0.00  0.00    +0.000 C 
ATOM     15  C   UNL     1      -3.447  22.099  -9.914  0.00  0.00    +0.000 C 
ATOM     16  C   UNL     1      -6.383  17.420 -12.530  0.00  0.00    +0.000 C 
ATOM     17  C   UNL     1      -3.352  17.536 -14.594  0.00  0.00    +0.000 C 
ATOM     18  C   UNL     1      -4.905  19.519 -14.860  0.00  0.00    +0.000 C 
ATOM     19  C   UNL     1      -5.538  16.116 -14.285  0.00  0.00    +0.000 C 
ATOM     20  C   UNL     1      -3.281  16.206 -15.101  0.00  0.00    +0.000 A 
ATOM     21  C   UNL     1      -4.440  15.500 -14.929  0.00  0.00    +0.000 A 
ATOM     22  C   UNL     1      -2.432  15.309 -15.742  0.00  0.00    +0.000 A 
ENDROOT
BRANCH   9  23
ATOM     23  O   UNL     1      -1.746  21.131  -7.740  0.00  0.00    +0.000 OA
ATOM     24  H   UNL     1      -2.457  21.789  -7.652  0.00  0.00    +0.000 HD
ENDBRANCH   9  23
BRANCH   9  25
ATOM     25  C   UNL     1      -1.112  19.152  -8.906  0.00  0.00    +0.000 C 
ATOM     26  C   UNL     1      -0.236  18.378  -9.154  0.00  0.00    +0.000 C 
ENDBRANCH   9  25
TORSDOF 2
ENDMDL
MODEL 3
REMARK VINA RESULT:      -5.8     26.128     29.180
REMARK  Name = Danazol.pdbqt.pdb
REMARK  2 active torsions:
REMARK  status: ('A' for Active; 'I' for Inactive)
REMARK    1  A    between atoms: C_9  and  O_23
REMARK    2  A    between atoms: C_9  and  C_25
REMARK                            x       y       z     vdW  Elec       q    Type
REMARK                         _______ _______ _______ _____ _____    ______ ____
ROOT
ATOM      1  O   UNL     1      10.332   1.680 -26.404  0.00  0.00    +0.000 OA
ATOM      2  N   UNL     1       8.964   1.423 -26.631  0.00  0.00    +0.000 NA
ATOM      3  C   UNL     1      11.838   0.608 -19.020  0.00  0.00    +0.000 C 
ATOM      4  C   UNL     1      10.689  -0.093 -18.122  0.00  0.00    +0.000 C 
ATOM      5  C   UNL     1      11.961   0.389 -20.474  0.00  0.00    +0.000 C 
ATOM      6  C   UNL     1      10.991  -0.362 -21.345  0.00  0.00    +0.000 C 
ATOM      7  C   UNL     1      11.237  -0.679 -22.839  0.00  0.00    +0.000 C 
ATOM      8  C   UNL     1       9.755  -0.681 -19.094  0.00  0.00    +0.000 C 
ATOM      9  C   UNL     1      10.104   1.133 -17.216  0.00  0.00    +0.000 C 
ATOM     10  C   UNL     1       9.883  -0.832 -20.589  0.00  0.00    +0.000 C 
ATOM     11  C   UNL     1      12.209   1.845 -18.420  0.00  0.00    +0.000 C 
ATOM     12  C   UNL     1      12.993   1.001 -21.222  0.00  0.00    +0.000 C 
ATOM     13  C   UNL     1      11.195   2.120 -17.349  0.00  0.00    +0.000 C 
ATOM     14  C   UNL     1      12.347   0.302 -23.588  0.00  0.00    +0.000 C 
ATOM     15  C   UNL     1      11.416  -1.216 -17.297  0.00  0.00    +0.000 C 
ATOM     16  C   UNL     1      13.215   0.989 -22.705  0.00  0.00    +0.000 C 
ATOM     17  C   UNL     1       9.973  -0.458 -23.628  0.00  0.00    +0.000 C 
ATOM     18  C   UNL     1      11.750  -2.141 -22.979  0.00  0.00    +0.000 C 
ATOM     19  C   UNL     1      11.943   0.926 -24.673  0.00  0.00    +0.000 C 
ATOM     20  C   UNL     1       9.632   0.284 -24.796  0.00  0.00    +0.000 A 
ATOM     21  C   UNL     1      10.685   0.986 -25.316  0.00  0.00    +0.000 A 
ATOM     22  C   UNL     1       8.575   0.577 -25.653  0.00  0.00    +0.000 A 
ENDROOT
BRANCH   9  23
ATOM     23  O   UNL     1       9.917   0.822 -15.827  0.00  0.00    +0.000 OA
ATOM     24  H   UNL     1       9.985   1.654 -15.327  0.00  0.00    +0.000 HD
ENDBRANCH   9  23
BRANCH   9  25
ATOM     25  C   UNL     1       8.835   1.658 -17.778  0.00  0.00    +0.000 C 
ATOM     26  C   UNL     1       7.804   2.087 -18.204  0.00  0.00    +0.000 C 
ENDBRANCH   9  25
TORSDOF 2
ENDMDL
MODEL 4
REMARK VINA RESULT:      -5.7     25.976     28.671
REMARK  Name = Danazol.pdbqt.pdb
REMARK  2 active torsions:
REMARK  status: ('A' for Active; 'I' for Inactive)
REMARK    1  A    between atoms: C_9  and  O_23
REMARK    2  A    between atoms: C_9  and  C_25
REMARK                            x       y       z     vdW  Elec       q    Type
REMARK                         _______ _______ _______ _____ _____    ______ ____
ROOT
ATOM      1  O   UNL     1      13.084  -6.030 -17.753  0.00  0.00    +0.000 OA
ATOM      2  N   UNL     1      14.270  -5.661 -17.085  0.00  0.00    +0.000 NA
ATOM      3  C   UNL     1       9.263   0.280 -19.631  0.00  0.00    +0.000 C 
ATOM      4  C   UNL     1      10.032   1.692 -19.460  0.00  0.00    +0.000 C 
ATOM      5  C   UNL     1       9.971  -0.994 -19.860  0.00  0.00    +0.000 C 
ATOM      6  C   UNL     1      11.461  -1.203 -19.818  0.00  0.00    +0.000 C 
ATOM      7  C   UNL     1      12.160  -2.529 -20.200  0.00  0.00    +0.000 C 
ATOM      8  C   UNL     1      11.451   1.335 -19.313  0.00  0.00    +0.000 C 
ATOM      9  C   UNL     1       9.323   2.364 -18.153  0.00  0.00    +0.000 C 
ATOM     10  C   UNL     1      12.137   0.004 -19.492  0.00  0.00    +0.000 C 
ATOM     11  C   UNL     1       8.033   0.328 -18.915  0.00  0.00    +0.000 C 
ATOM     12  C   UNL     1       9.264  -2.206 -20.028  0.00  0.00    +0.000 C 
ATOM     13  C   UNL     1       8.078   1.571 -18.076  0.00  0.00    +0.000 C 
ATOM     14  C   UNL     1      11.190  -3.875 -20.131  0.00  0.00    +0.000 C 
ATOM     15  C   UNL     1       9.791   2.477 -20.801  0.00  0.00    +0.000 C 
ATOM     16  C   UNL     1       9.801  -3.601 -20.159  0.00  0.00    +0.000 C 
ATOM     17  C   UNL     1      13.262  -2.832 -19.219  0.00  0.00    +0.000 C 
ATOM     18  C   UNL     1      12.700  -2.428 -21.655  0.00  0.00    +0.000 C 
ATOM     19  C   UNL     1      11.612  -4.867 -19.379  0.00  0.00    +0.000 C 
ATOM     20  C   UNL     1      13.613  -3.954 -18.413  0.00  0.00    +0.000 A 
ATOM     21  C   UNL     1      12.735  -4.997 -18.529  0.00  0.00    +0.000 A 
ATOM     22  C   UNL     1      14.565  -4.413 -17.508  0.00  0.00    +0.000 A 
ENDROOT
BRANCH   9  23
ATOM     23  O   UNL     1       8.987   3.753 -18.294  0.00  0.00    +0.000 OA
ATOM     24  H   UNL     1       9.687   4.172 -18.825  0.00  0.00    +0.000 HD
ENDBRANCH   9  23
BRANCH   9  25
ATOM     25  C   UNL     1      10.152   2.179 -16.936  0.00  0.00    +0.000 C 
ATOM     26  C   UNL     1      10.802   2.013 -15.947  0.00  0.00    +0.000 C 
ENDBRANCH   9  25
TORSDOF 2
ENDMDL
MODEL 5
REMARK VINA RESULT:      -5.6     25.792     27.452
REMARK  Name = Danazol.pdbqt.pdb
REMARK  2 active torsions:
REMARK  status: ('A' for Active; 'I' for Inactive)
REMARK    1  A    between atoms: C_9  and  O_23
REMARK    2  A    between atoms: C_9  and  C_25
REMARK                            x       y       z     vdW  Elec       q    Type
REMARK                         _______ _______ _______ _____ _____    ______ ____
ROOT
ATOM      1  O   UNL     1      10.828  12.165 -10.794  0.00  0.00    +0.000 OA
ATOM      2  N   UNL     1      11.127  13.512 -10.499  0.00  0.00    +0.000 NA
ATOM      3  C   UNL     1      12.099  10.933 -18.197  0.00  0.00    +0.000 C 
ATOM      4  C   UNL     1      12.872  12.091 -19.020  0.00  0.00    +0.000 C 
ATOM      5  C   UNL     1      12.263  10.740 -16.744  0.00  0.00    +0.000 C 
ATOM      6  C   UNL     1      13.019  11.643 -15.806  0.00  0.00    +0.000 C 
ATOM      7  C   UNL     1      13.275  11.323 -14.315  0.00  0.00    +0.000 C 
ATOM      8  C   UNL     1      13.460  12.960 -17.990  0.00  0.00    +0.000 C 
ATOM      9  C   UNL     1      11.701  12.760 -19.940  0.00  0.00    +0.000 C 
ATOM     10  C   UNL     1      13.555  12.763 -16.498  0.00  0.00    +0.000 C 
ATOM     11  C   UNL     1      10.871  10.634 -18.853  0.00  0.00    +0.000 C 
ATOM     12  C   UNL     1      11.589   9.702 -16.061  0.00  0.00    +0.000 C 
ATOM     13  C   UNL     1      10.670  11.702 -19.887  0.00  0.00    +0.000 C 
ATOM     14  C   UNL     1      12.229  10.221 -13.647  0.00  0.00    +0.000 C 
ATOM     15  C   UNL     1      13.996  11.357 -19.839  0.00  0.00    +0.000 C 
ATOM     16  C   UNL     1      11.541   9.417 -14.589  0.00  0.00    +0.000 C 
ATOM     17  C   UNL     1      13.073  12.560 -13.480  0.00  0.00    +0.000 C 
ATOM     18  C   UNL     1      14.711  10.749 -14.149  0.00  0.00    +0.000 C 
ATOM     19  C   UNL     1      11.583  10.601 -12.567  0.00  0.00    +0.000 C 
ATOM     20  C   UNL     1      12.304  12.879 -12.323  0.00  0.00    +0.000 A 
ATOM     21  C   UNL     1      11.547  11.833 -11.872  0.00  0.00    +0.000 A 
ATOM     22  C   UNL     1      12.020  13.909 -11.431  0.00  0.00    +0.000 A 
ENDROOT
BRANCH   9  23
ATOM     23  O   UNL     1      12.067  12.993 -21.309  0.00  0.00    +0.000 OA
ATOM     24  H   UNL     1      12.082  12.131 -21.760  0.00  0.00    +0.000 HD
ENDBRANCH   9  23
BRANCH   9  25
ATOM     25  C   UNL     1      11.203  14.023 -19.341  0.00  0.00    +0.000 C 
ATOM     26  C   UNL     1      10.811  15.054 -18.882  0.00  0.00    +0.000 C 
ENDBRANCH   9  25
TORSDOF 2
ENDMDL
MODEL 6
REMARK VINA RESULT:      -5.5     16.450     19.579
REMARK  Name = Danazol.pdbqt.pdb
REMARK  2 active torsions:
REMARK  status: ('A' for Active; 'I' for Inactive)
REMARK    1  A    between atoms: C_9  and  O_23
REMARK    2  A    between atoms: C_9  and  C_25
REMARK                            x       y       z     vdW  Elec       q    Type
REMARK                         _______ _______ _______ _____ _____    ______ ____
ROOT
ATOM      1  O   UNL     1       0.735   3.643 -24.888  0.00  0.00    +0.000 OA
ATOM      2  N   UNL     1       2.076   3.231 -24.729  0.00  0.00    +0.000 NA
ATOM      3  C   UNL     1      -3.531   0.205 -19.604  0.00  0.00    +0.000 C 
ATOM      4  C   UNL     1      -2.757  -0.579 -18.419  0.00  0.00    +0.000 C 
ATOM      5  C   UNL     1      -2.933   1.338 -20.336  0.00  0.00    +0.000 C 
ATOM      6  C   UNL     1      -1.515   1.826 -20.216  0.00  0.00    +0.000 C 
ATOM      7  C   UNL     1      -0.978   3.103 -20.904  0.00  0.00    +0.000 C 
ATOM      8  C   UNL     1      -1.369  -0.098 -18.491  0.00  0.00    +0.000 C 
ATOM      9  C   UNL     1      -2.989  -2.154 -18.781  0.00  0.00    +0.000 C 
ATOM     10  C   UNL     1      -0.775   1.026 -19.302  0.00  0.00    +0.000 C 
ATOM     11  C   UNL     1      -4.448  -0.685 -20.231  0.00  0.00    +0.000 C 
ATOM     12  C   UNL     1      -3.649   2.014 -21.351  0.00  0.00    +0.000 C 
ATOM     13  C   UNL     1      -4.130  -2.058 -19.715  0.00  0.00    +0.000 C 
ATOM     14  C   UNL     1      -1.860   3.614 -22.214  0.00  0.00    +0.000 C 
ATOM     15  C   UNL     1      -3.440  -0.116 -17.081  0.00  0.00    +0.000 C 
ATOM     16  C   UNL     1      -3.179   3.101 -22.271  0.00  0.00    +0.000 C 
ATOM     17  C   UNL     1       0.392   2.843 -21.474  0.00  0.00    +0.000 C 
ATOM     18  C   UNL     1      -0.960   4.273 -19.880  0.00  0.00    +0.000 C 
ATOM     19  C   UNL     1      -1.204   3.765 -23.344  0.00  0.00    +0.000 C 
ATOM     20  C   UNL     1       1.000   3.015 -22.752  0.00  0.00    +0.000 A 
ATOM     21  C   UNL     1       0.140   3.503 -23.697  0.00  0.00    +0.000 A 
ATOM     22  C   UNL     1       2.203   2.867 -23.435  0.00  0.00    +0.000 A 
ENDROOT
BRANCH   9  23
ATOM     23  O   UNL     1      -3.360  -2.981 -17.668  0.00  0.00    +0.000 OA
ATOM     24  H   UNL     1      -4.278  -3.271 -17.810  0.00  0.00    +0.000 HD
ENDBRANCH   9  23
BRANCH   9  25
ATOM     25  C   UNL     1      -1.797  -2.733 -19.449  0.00  0.00    +0.000 C 
ATOM     26  C   UNL     1      -0.850  -3.198 -20.011  0.00  0.00    +0.000 C 
ENDBRANCH   9  25
TORSDOF 2
ENDMDL
MODEL 7
REMARK VINA RESULT:      -5.4      9.527     11.711
REMARK  Name = Danazol.pdbqt.pdb
REMARK  2 active torsions:
REMARK  status: ('A' for Active; 'I' for Inactive)
REMARK    1  A    between atoms: C_9  and  O_23
REMARK    2  A    between atoms: C_9  and  C_25
REMARK                            x       y       z     vdW  Elec       q    Type
REMARK                         _______ _______ _______ _____ _____    ______ ____
ROOT
ATOM      1  O   UNL     1     -11.864   5.595   1.425  0.00  0.00    +0.000 OA
ATOM      2  N   UNL     1     -10.844   5.927   2.341  0.00  0.00    +0.000 NA
ATOM      3  C   UNL     1     -11.123  -1.724  -0.533  0.00  0.00    +0.000 C 
ATOM      4  C   UNL     1     -10.085  -2.620   0.324  0.00  0.00    +0.000 C 
ATOM      5  C   UNL     1     -11.792  -0.529   0.018  0.00  0.00    +0.000 C 
ATOM      6  C   UNL     1     -11.513   0.112   1.350  0.00  0.00    +0.000 C 
ATOM      7  C   UNL     1     -12.337   1.281   1.938  0.00  0.00    +0.000 C 
ATOM      8  C   UNL     1      -9.810  -1.829   1.533  0.00  0.00    +0.000 C 
ATOM      9  C   UNL     1      -8.827  -2.834  -0.694  0.00  0.00    +0.000 C 
ATOM     10  C   UNL     1     -10.471  -0.570   2.037  0.00  0.00    +0.000 C 
ATOM     11  C   UNL     1     -10.794  -1.821  -1.914  0.00  0.00    +0.000 C 
ATOM     12  C   UNL     1     -12.712   0.217  -0.754  0.00  0.00    +0.000 C 
ATOM     13  C   UNL     1      -9.458  -2.498  -1.987  0.00  0.00    +0.000 C 
ATOM     14  C   UNL     1     -13.190   2.165   0.821  0.00  0.00    +0.000 C 
ATOM     15  C   UNL     1     -10.856  -3.941   0.686  0.00  0.00    +0.000 C 
ATOM     16  C   UNL     1     -13.401   1.505  -0.414  0.00  0.00    +0.000 C 
ATOM     17  C   UNL     1     -11.418   2.294   2.570  0.00  0.00    +0.000 C 
ATOM     18  C   UNL     1     -13.366   0.724   2.963  0.00  0.00    +0.000 C 
ATOM     19  C   UNL     1     -12.969   3.461   0.804  0.00  0.00    +0.000 C 
ATOM     20  C   UNL     1     -11.235   3.702   2.448  0.00  0.00    +0.000 A 
ATOM     21  C   UNL     1     -12.066   4.276   1.525  0.00  0.00    +0.000 A 
ATOM     22  C   UNL     1     -10.493   4.770   2.943  0.00  0.00    +0.000 A 
ENDROOT
BRANCH   9  23
ATOM     23  O   UNL     1      -8.319  -4.176  -0.752  0.00  0.00    +0.000 OA
ATOM     24  H   UNL     1      -8.855  -4.720  -0.150  0.00  0.00    +0.000 HD
ENDBRANCH   9  23
BRANCH   9  25
ATOM     25  C   UNL     1      -7.716  -1.901  -0.380  0.00  0.00    +0.000 C 
ATOM     26  C   UNL     1      -6.835  -1.130  -0.142  0.00  0.00    +0.000 C 
ENDBRANCH   9  25
TORSDOF 2
ENDMDL
MODEL 8
REMARK VINA RESULT:      -5.3     26.451     28.190
REMARK  Name = Danazol.pdbqt.pdb
REMARK  2 active torsions:
REMARK  status: ('A' for Active; 'I' for Inactive)
REMARK    1  A    between atoms: C_9  and  O_23
REMARK    2  A    between atoms: C_9  and  C_25
REMARK                            x       y       z     vdW  Elec       q    Type
REMARK                         _______ _______ _______ _____ _____    ______ ____
ROOT
ATOM      1  O   UNL     1      15.124  10.712 -11.775  0.00  0.00    +0.000 OA
ATOM      2  N   UNL     1      16.336  10.099 -12.156  0.00  0.00    +0.000 NA
ATOM      3  C   UNL     1      11.179  12.463 -18.044  0.00  0.00    +0.000 C 
ATOM      4  C   UNL     1      11.707  11.856 -19.447  0.00  0.00    +0.000 C 
ATOM      5  C   UNL     1      11.440  11.816 -16.744  0.00  0.00    +0.000 C 
ATOM      6  C   UNL     1      12.331  10.627 -16.506  0.00  0.00    +0.000 C 
ATOM      7  C   UNL     1      12.464   9.903 -15.145  0.00  0.00    +0.000 C 
ATOM      8  C   UNL     1      12.650  10.793 -19.069  0.00  0.00    +0.000 C 
ATOM      9  C   UNL     1      12.352  13.148 -20.209  0.00  0.00    +0.000 C 
ATOM     10  C   UNL     1      12.942  10.196 -17.715  0.00  0.00    +0.000 C 
ATOM     11  C   UNL     1      11.064  13.877 -18.160  0.00  0.00    +0.000 C 
ATOM     12  C   UNL     1      10.942  12.363 -15.539  0.00  0.00    +0.000 C 
ATOM     13  C   UNL     1      11.734  14.254 -19.449  0.00  0.00    +0.000 C 
ATOM     14  C   UNL     1      12.016  10.807 -13.827  0.00  0.00    +0.000 C 
ATOM     15  C   UNL     1      10.441  11.253 -20.157  0.00  0.00    +0.000 C 
ATOM     16  C   UNL     1      11.191  11.919 -14.129  0.00  0.00    +0.000 C 
ATOM     17  C   UNL     1      13.908   9.570 -14.877  0.00  0.00    +0.000 C 
ATOM     18  C   UNL     1      11.574   8.628 -15.150  0.00  0.00    +0.000 C 
ATOM     19  C   UNL     1      12.910  10.938 -12.872  0.00  0.00    +0.000 C 
ATOM     20  C   UNL     1      14.810   9.797 -13.797  0.00  0.00    +0.000 A 
ATOM     21  C   UNL     1      14.252  10.506 -12.768  0.00  0.00    +0.000 A 
ATOM     22  C   UNL     1      16.112   9.554 -13.371  0.00  0.00    +0.000 A 
ENDROOT
BRANCH   9  23
ATOM     23  O   UNL     1      11.995  13.273 -21.594  0.00  0.00    +0.000 OA
ATOM     24  H   UNL     1      12.775  13.029 -22.123  0.00  0.00    +0.000 HD
ENDBRANCH   9  23
BRANCH   9  25
ATOM     25  C   UNL     1      13.830  13.167 -20.078  0.00  0.00    +0.000 C 
ATOM     26  C   UNL     1      15.021  13.203 -19.991  0.00  0.00    +0.000 C 
ENDBRANCH   9  25
TORSDOF 2
ENDMDL
MODEL 9
REMARK VINA RESULT:      -5.2      2.828      4.204
REMARK  Name = Danazol.pdbqt.pdb
REMARK  2 active torsions:
REMARK  status: ('A' for Active; 'I' for Inactive)
REMARK    1  A    between atoms: C_9  and  O_23
REMARK    2  A    between atoms: C_9  and  C_25
REMARK                            x       y       z     vdW  Elec       q    Type
REMARK                         _______ _______ _______ _____ _____    ______ ____
ROOT
ATOM      1  O   UNL     1     -11.340   9.135  -5.756  0.00  0.00    +0.000 OA
ATOM      2  N   UNL     1     -12.225  10.165  -5.373  0.00  0.00    +0.000 NA
ATOM      3  C   UNL     1     -15.082   4.209 -10.192  0.00  0.00    +0.000 C 
ATOM      4  C   UNL     1     -16.548   4.647 -10.716  0.00  0.00    +0.000 C 
ATOM      5  C   UNL     1     -14.036   5.186  -9.834  0.00  0.00    +0.000 C 
ATOM      6  C   UNL     1     -14.204   6.679  -9.752  0.00  0.00    +0.000 C 
ATOM      7  C   UNL     1     -13.041   7.668  -9.505  0.00  0.00    +0.000 C 
ATOM      8  C   UNL     1     -16.621   6.096 -10.470  0.00  0.00    +0.000 C 
ATOM      9  C   UNL     1     -17.566   3.720  -9.840  0.00  0.00    +0.000 C 
ATOM     10  C   UNL     1     -15.543   7.059 -10.040  0.00  0.00    +0.000 C 
ATOM     11  C   UNL     1     -15.178   2.949  -9.537  0.00  0.00    +0.000 C 
ATOM     12  C   UNL     1     -12.758   4.765  -9.401  0.00  0.00    +0.000 C 
ATOM     13  C   UNL     1     -16.642   2.669  -9.364  0.00  0.00    +0.000 C 
ATOM     14  C   UNL     1     -11.698   7.003  -8.792  0.00  0.00    +0.000 C 
ATOM     15  C   UNL     1     -16.561   4.342 -12.259  0.00  0.00    +0.000 C 
ATOM     16  C   UNL     1     -11.614   5.593  -8.895  0.00  0.00    +0.000 C 
ATOM     17  C   UNL     1     -13.471   8.737  -8.534  0.00  0.00    +0.000 C 
ATOM     18  C   UNL     1     -12.585   8.278 -10.861  0.00  0.00    +0.000 C 
ATOM     19  C   UNL     1     -11.278   7.571  -7.682  0.00  0.00    +0.000 C 
ATOM     20  C   UNL     1     -12.947   9.258  -7.315  0.00  0.00    +0.000 A 
ATOM     21  C   UNL     1     -11.801   8.632  -6.907  0.00  0.00    +0.000 A 
ATOM     22  C   UNL     1     -13.174  10.218  -6.333  0.00  0.00    +0.000 A 
ENDROOT
BRANCH   9  23
ATOM     23  O   UNL     1     -18.626   3.108 -10.593  0.00  0.00    +0.000 OA
ATOM     24  H   UNL     1     -18.718   3.603 -11.426  0.00  0.00    +0.000 HD
ENDBRANCH   9  23
BRANCH   9  25
ATOM     25  C   UNL     1     -18.144   4.480  -8.705  0.00  0.00    +0.000 C 
ATOM     26  C   UNL     1     -18.589   5.084  -7.774  0.00  0.00    +0.000 C 
ENDBRANCH   9  25
TORSDOF 2
ENDMDL
