MODEL 1
REMARK VINA RESULT:      -5.1      0.000      0.000
REMARK  Name = Decitabine.pdbqt.pdb
REMARK  4 active torsions:
REMARK  status: ('A' for Active; 'I' for Inactive)
REMARK    1  A    between atoms: N_2  and  C1*_8
REMARK    2  A    between atoms: C4*_10  and  C5*_13
REMARK    3  A    between atoms: C3*_11  and  O3*_16
REMARK    4  A    between atoms: C5*_13  and  O5*_14
REMARK                            x       y       z     vdW  Elec       q    Type
REMARK                         _______ _______ _______ _____ _____    ______ ____
ROOT
ATOM      1  O   UNL     1      13.685   5.065  -8.331  0.00  0.00    +0.000 OA
ATOM      2  N   UNL     1      14.745   5.468  -6.313  0.00  0.00    +0.000 N 
ATOM      3  N   UNL     1      14.104   3.302  -6.936  0.00  0.00    +0.000 NA
ATOM      4  N   UNL     1      15.174   3.699  -4.847  0.00  0.00    +0.000 NA
ATOM      5  C   UNL     1      14.148   4.655  -7.271  0.00  0.00    +0.000 A 
ATOM      6  C   UNL     1      15.160   4.796  -5.243  0.00  0.00    +0.000 A 
ATOM      7  C   UNL     1      14.601   2.878  -5.803  0.00  0.00    +0.000 A 
ATOM      8  N   UNL     1      14.539   1.550  -5.527  0.00  0.00    +0.000 N 
ATOM      9  H   UNL     1      14.538   1.328  -4.541  0.00  0.00    +0.000 HD
ATOM     10  H   UNL     1      13.841   1.059  -6.074  0.00  0.00    +0.000 HD
ENDROOT
BRANCH   2  11
ATOM     11  C1* UNL     1      14.916   6.815  -6.391  0.00  0.00    +0.000 A 
ATOM     12  O4* UNL     1      13.875   7.712  -6.130  0.00  0.00    +0.000 OA
ATOM     13  C4* UNL     1      14.398   9.001  -6.295  0.00  0.00    +0.000 A 
ATOM     14  C3* UNL     1      15.786   8.903  -6.671  0.00  0.00    +0.000 A 
ATOM     15  C2* UNL     1      16.087   7.531  -6.710  0.00  0.00    +0.000 A 
BRANCH  14  16
ATOM     16  O3* UNL     1      16.679   9.876  -6.323  0.00  0.00    +0.000 OA
ATOM     17  H3* UNL     1      17.448   9.873  -6.919  0.00  0.00    +0.000 HD
ENDBRANCH  14  16
BRANCH  13  18
ATOM     18  C5* UNL     1      13.679  10.161  -5.948  0.00  0.00    +0.000 C 
BRANCH  18  19
ATOM     19  O5* UNL     1      13.004  11.259  -5.623  0.00  0.00    +0.000 OA
ATOM     20  H5* UNL     1      12.454  11.095  -4.837  0.00  0.00    +0.000 HD
ENDBRANCH  18  19
ENDBRANCH  13  18
ENDBRANCH   2  11
TORSDOF 4
ENDMDL
MODEL 2
REMARK VINA RESULT:      -5.0      8.004      9.005
REMARK  Name = Decitabine.pdbqt.pdb
REMARK  4 active torsions:
REMARK  status: ('A' for Active; 'I' for Inactive)
REMARK    1  A    between atoms: N_2  and  C1*_8
REMARK    2  A    between atoms: C4*_10  and  C5*_13
REMARK    3  A    between atoms: C3*_11  and  O3*_16
REMARK    4  A    between atoms: C5*_13  and  O5*_14
REMARK                            x       y       z     vdW  Elec       q    Type
REMARK                         _______ _______ _______ _____ _____    ______ ____
ROOT
ATOM      1  O   UNL     1      11.430  11.478 -10.340  0.00  0.00    +0.000 OA
ATOM      2  N   UNL     1      10.426   9.828 -11.617  0.00  0.00    +0.000 N 
ATOM      3  N   UNL     1      10.379   9.749  -9.274  0.00  0.00    +0.000 NA
ATOM      4  N   UNL     1       9.360   8.031 -10.570  0.00  0.00    +0.000 NA
ATOM      5  C   UNL     1      10.792  10.433 -10.419  0.00  0.00    +0.000 A 
ATOM      6  C   UNL     1       9.749   8.696 -11.445  0.00  0.00    +0.000 A 
ATOM      7  C   UNL     1       9.700   8.636  -9.371  0.00  0.00    +0.000 A 
ATOM      8  N   UNL     1       9.316   8.012  -8.229  0.00  0.00    +0.000 N 
ATOM      9  H   UNL     1       9.182   7.014  -8.322  0.00  0.00    +0.000 HD
ATOM     10  H   UNL     1       9.854   8.295  -7.418  0.00  0.00    +0.000 HD
ENDROOT
BRANCH   2  11
ATOM     11  C1* UNL     1      10.700  10.286 -12.867  0.00  0.00    +0.000 A 
ATOM     12  O4* UNL     1      10.077  11.421 -13.396  0.00  0.00    +0.000 OA
ATOM     13  C4* UNL     1      10.596  11.606 -14.684  0.00  0.00    +0.000 A 
ATOM     14  C3* UNL     1      11.552  10.565 -14.963  0.00  0.00    +0.000 A 
ATOM     15  C2* UNL     1      11.609   9.764 -13.809  0.00  0.00    +0.000 A 
BRANCH  14  16
ATOM     16  O3* UNL     1      12.611  10.787 -15.797  0.00  0.00    +0.000 OA
ATOM     17  H3* UNL     1      12.333  10.761 -16.729  0.00  0.00    +0.000 HD
ENDBRANCH  14  16
BRANCH  13  18
ATOM     18  C5* UNL     1      10.323  12.753 -15.454  0.00  0.00    +0.000 C 
BRANCH  18  19
ATOM     19  O5* UNL     1      10.065  13.840 -16.177  0.00  0.00    +0.000 OA
ATOM     20  H5* UNL     1      10.760  13.972 -16.845  0.00  0.00    +0.000 HD
ENDBRANCH  18  19
ENDBRANCH  13  18
ENDBRANCH   2  11
TORSDOF 4
ENDMDL
MODEL 3
REMARK VINA RESULT:      -5.0     12.662     14.707
REMARK  Name = Decitabine.pdbqt.pdb
REMARK  4 active torsions:
REMARK  status: ('A' for Active; 'I' for Inactive)
REMARK    1  A    between atoms: N_2  and  C1*_8
REMARK    2  A    between atoms: C4*_10  and  C5*_13
REMARK    3  A    between atoms: C3*_11  and  O3*_16
REMARK    4  A    between atoms: C5*_13  and  O5*_14
REMARK                            x       y       z     vdW  Elec       q    Type
REMARK                         _______ _______ _______ _____ _____    ______ ____
ROOT
ATOM      1  O   UNL     1      11.948  -0.318 -18.320  0.00  0.00    +0.000 OA
ATOM      2  N   UNL     1      11.379   1.925 -18.388  0.00  0.00    +0.000 N 
ATOM      3  N   UNL     1      11.335   0.720 -16.377  0.00  0.00    +0.000 NA
ATOM      4  N   UNL     1      10.726   3.021 -16.429  0.00  0.00    +0.000 NA
ATOM      5  C   UNL     1      11.584   0.705 -17.750  0.00  0.00    +0.000 A 
ATOM      6  C   UNL     1      10.974   2.885 -17.561  0.00  0.00    +0.000 A 
ATOM      7  C   UNL     1      10.948   1.818 -15.781  0.00  0.00    +0.000 A 
ATOM      8  N   UNL     1      10.725   1.782 -14.442  0.00  0.00    +0.000 N 
ATOM      9  H   UNL     1      10.065   2.472 -14.110  0.00  0.00    +0.000 HD
ATOM     10  H   UNL     1      10.577   0.845 -14.086  0.00  0.00    +0.000 HD
ENDROOT
BRANCH   2  11
ATOM     11  C1* UNL     1      11.550   2.180 -19.712  0.00  0.00    +0.000 A 
ATOM     12  O4* UNL     1      12.808   2.135 -20.321  0.00  0.00    +0.000 OA
ATOM     13  C4* UNL     1      12.616   2.439 -21.675  0.00  0.00    +0.000 A 
ATOM     14  C3* UNL     1      11.216   2.683 -21.910  0.00  0.00    +0.000 A 
ATOM     15  C2* UNL     1      10.571   2.502 -20.673  0.00  0.00    +0.000 A 
BRANCH  14  16
ATOM     16  O3* UNL     1      10.646   2.407 -23.120  0.00  0.00    +0.000 OA
ATOM     17  H3* UNL     1      10.758   1.469 -23.353  0.00  0.00    +0.000 HD
ENDBRANCH  14  16
BRANCH  13  18
ATOM     18  C5* UNL     1      13.642   2.320 -22.632  0.00  0.00    +0.000 C 
BRANCH  18  19
ATOM     19  O5* UNL     1      14.614   2.210 -23.533  0.00  0.00    +0.000 OA
ATOM     20  H5* UNL     1      14.554   2.932 -24.182  0.00  0.00    +0.000 HD
ENDBRANCH  18  19
ENDBRANCH  13  18
ENDBRANCH   2  11
TORSDOF 4
ENDMDL
MODEL 4
REMARK VINA RESULT:      -4.9     10.671     12.556
REMARK  Name = Decitabine.pdbqt.pdb
REMARK  4 active torsions:
REMARK  status: ('A' for Active; 'I' for Inactive)
REMARK    1  A    between atoms: N_2  and  C1*_8
REMARK    2  A    between atoms: C4*_10  and  C5*_13
REMARK    3  A    between atoms: C3*_11  and  O3*_16
REMARK    4  A    between atoms: C5*_13  and  O5*_14
REMARK                            x       y       z     vdW  Elec       q    Type
REMARK                         _______ _______ _______ _____ _____    ______ ____
ROOT
ATOM      1  O   UNL     1      13.767  -3.154  -6.568  0.00  0.00    +0.000 OA
ATOM      2  N   UNL     1      12.381  -4.604  -7.724  0.00  0.00    +0.000 N 
ATOM      3  N   UNL     1      14.385  -3.830  -8.663  0.00  0.00    +0.000 NA
ATOM      4  N   UNL     1      12.963  -5.304  -9.877  0.00  0.00    +0.000 NA
ATOM      5  C   UNL     1      13.519  -3.818  -7.569  0.00  0.00    +0.000 A 
ATOM      6  C   UNL     1      12.329  -5.221  -8.901  0.00  0.00    +0.000 A 
ATOM      7  C   UNL     1      14.109  -4.543  -9.725  0.00  0.00    +0.000 A 
ATOM      8  N   UNL     1      14.987  -4.525 -10.760  0.00  0.00    +0.000 N 
ATOM      9  H   UNL     1      14.574  -4.722 -11.662  0.00  0.00    +0.000 HD
ATOM     10  H   UNL     1      15.611  -3.727 -10.743  0.00  0.00    +0.000 HD
ENDROOT
BRANCH   2  11
ATOM     11  C1* UNL     1      11.385  -4.768  -6.814  0.00  0.00    +0.000 A 
ATOM     12  O4* UNL     1      11.476  -5.696  -5.771  0.00  0.00    +0.000 OA
ATOM     13  C4* UNL     1      10.291  -5.593  -5.031  0.00  0.00    +0.000 A 
ATOM     14  C3* UNL     1       9.447  -4.589  -5.627  0.00  0.00    +0.000 A 
ATOM     15  C2* UNL     1      10.158  -4.080  -6.728  0.00  0.00    +0.000 A 
BRANCH  14  16
ATOM     16  O3* UNL     1       8.581  -3.856  -4.866  0.00  0.00    +0.000 OA
ATOM     17  H3* UNL     1       8.697  -2.903  -5.026  0.00  0.00    +0.000 HD
ENDBRANCH  14  16
BRANCH  13  18
ATOM     18  C5* UNL     1      10.104  -6.259  -3.804  0.00  0.00    +0.000 C 
BRANCH  18  19
ATOM     19  O5* UNL     1       9.927  -6.892  -2.648  0.00  0.00    +0.000 OA
ATOM     20  H5* UNL     1       8.983  -7.079  -2.508  0.00  0.00    +0.000 HD
ENDBRANCH  18  19
ENDBRANCH  13  18
ENDBRANCH   2  11
TORSDOF 4
ENDMDL
MODEL 5
REMARK VINA RESULT:      -4.9     20.410     21.998
REMARK  Name = Decitabine.pdbqt.pdb
REMARK  4 active torsions:
REMARK  status: ('A' for Active; 'I' for Inactive)
REMARK    1  A    between atoms: N_2  and  C1*_8
REMARK    2  A    between atoms: C4*_10  and  C5*_13
REMARK    3  A    between atoms: C3*_11  and  O3*_16
REMARK    4  A    between atoms: C5*_13  and  O5*_14
REMARK                            x       y       z     vdW  Elec       q    Type
REMARK                         _______ _______ _______ _____ _____    ______ ____
ROOT
ATOM      1  O   UNL     1      -2.109  -1.559 -19.988  0.00  0.00    +0.000 OA
ATOM      2  N   UNL     1      -2.661   0.366 -18.827  0.00  0.00    +0.000 N 
ATOM      3  N   UNL     1      -3.413  -1.738 -18.118  0.00  0.00    +0.000 NA
ATOM      4  N   UNL     1      -4.010   0.232 -16.922  0.00  0.00    +0.000 NA
ATOM      5  C   UNL     1      -2.679  -1.007 -19.052  0.00  0.00    +0.000 A 
ATOM      6  C   UNL     1      -3.362   0.728 -17.756  0.00  0.00    +0.000 A 
ATOM      7  C   UNL     1      -4.015  -1.137 -17.124  0.00  0.00    +0.000 A 
ATOM      8  N   UNL     1      -4.712  -1.894 -16.239  0.00  0.00    +0.000 N 
ATOM      9  H   UNL     1      -5.463  -1.405 -15.771  0.00  0.00    +0.000 HD
ATOM     10  H   UNL     1      -4.960  -2.808 -16.601  0.00  0.00    +0.000 HD
ENDROOT
BRANCH   2  11
ATOM     11  C1* UNL     1      -2.023   1.299 -19.582  0.00  0.00    +0.000 A 
ATOM     12  O4* UNL     1      -1.035   2.135 -19.051  0.00  0.00    +0.000 OA
ATOM     13  C4* UNL     1      -0.593   2.956 -20.097  0.00  0.00    +0.000 A 
ATOM     14  C3* UNL     1      -1.322   2.629 -21.296  0.00  0.00    +0.000 A 
ATOM     15  C2* UNL     1      -2.197   1.584 -20.951  0.00  0.00    +0.000 A 
BRANCH  14  16
ATOM     16  O3* UNL     1      -0.755   2.780 -22.529  0.00  0.00    +0.000 OA
ATOM     17  H3* UNL     1       0.086   2.293 -22.588  0.00  0.00    +0.000 HD
ENDBRANCH  14  16
BRANCH  13  18
ATOM     18  C5* UNL     1       0.520   3.810 -19.972  0.00  0.00    +0.000 C 
BRANCH  18  19
ATOM     19  O5* UNL     1       1.573   4.614 -19.858  0.00  0.00    +0.000 OA
ATOM     20  H5* UNL     1       2.081   4.392 -19.059  0.00  0.00    +0.000 HD
ENDBRANCH  18  19
ENDBRANCH  13  18
ENDBRANCH   2  11
TORSDOF 4
ENDMDL
MODEL 6
REMARK VINA RESULT:      -4.8     26.353     27.283
REMARK  Name = Decitabine.pdbqt.pdb
REMARK  4 active torsions:
REMARK  status: ('A' for Active; 'I' for Inactive)
REMARK    1  A    between atoms: N_2  and  C1*_8
REMARK    2  A    between atoms: C4*_10  and  C5*_13
REMARK    3  A    between atoms: C3*_11  and  O3*_16
REMARK    4  A    between atoms: C5*_13  and  O5*_14
REMARK                            x       y       z     vdW  Elec       q    Type
REMARK                         _______ _______ _______ _____ _____    ______ ____
ROOT
ATOM      1  O   UNL     1     -13.546   5.682  -9.825  0.00  0.00    +0.000 OA
ATOM      2  N   UNL     1     -12.061   6.622  -8.319  0.00  0.00    +0.000 N 
ATOM      3  N   UNL     1     -11.719   4.468  -9.178  0.00  0.00    +0.000 NA
ATOM      4  N   UNL     1     -10.192   5.409  -7.613  0.00  0.00    +0.000 NA
ATOM      5  C   UNL     1     -12.521   5.610  -9.155  0.00  0.00    +0.000 A 
ATOM      6  C   UNL     1     -10.934   6.306  -7.687  0.00  0.00    +0.000 A 
ATOM      7  C   UNL     1     -10.628   4.404  -8.458  0.00  0.00    +0.000 A 
ATOM      8  N   UNL     1      -9.879   3.274  -8.520  0.00  0.00    +0.000 N 
ATOM      9  H   UNL     1      -9.323   3.094  -7.695  0.00  0.00    +0.000 HD
ATOM     10  H   UNL     1     -10.391   2.473  -8.871  0.00  0.00    +0.000 HD
ENDROOT
BRANCH   2  11
ATOM     11  C1* UNL     1     -12.651   7.830  -8.116  0.00  0.00    +0.000 A 
ATOM     12  O4* UNL     1     -13.306   8.145  -6.920  0.00  0.00    +0.000 OA
ATOM     13  C4* UNL     1     -13.783   9.456  -7.052  0.00  0.00    +0.000 A 
ATOM     14  C3* UNL     1     -13.424   9.961  -8.352  0.00  0.00    +0.000 A 
ATOM     15  C2* UNL     1     -12.707   8.934  -8.990  0.00  0.00    +0.000 A 
BRANCH  14  16
ATOM     16  O3* UNL     1     -13.198  11.293  -8.552  0.00  0.00    +0.000 OA
ATOM     17  H3* UNL     1     -12.246  11.494  -8.526  0.00  0.00    +0.000 HD
ENDBRANCH  14  16
BRANCH  13  18
ATOM     18  C5* UNL     1     -14.347  10.168  -5.976  0.00  0.00    +0.000 C 
BRANCH  18  19
ATOM     19  O5* UNL     1     -14.884  10.843  -4.964  0.00  0.00    +0.000 OA
ATOM     20  H5* UNL     1     -15.360  11.624  -5.295  0.00  0.00    +0.000 HD
ENDBRANCH  18  19
ENDBRANCH  13  18
ENDBRANCH   2  11
TORSDOF 4
ENDMDL
MODEL 7
REMARK VINA RESULT:      -4.8     22.013     23.638
REMARK  Name = Decitabine.pdbqt.pdb
REMARK  4 active torsions:
REMARK  status: ('A' for Active; 'I' for Inactive)
REMARK    1  A    between atoms: N_2  and  C1*_8
REMARK    2  A    between atoms: C4*_10  and  C5*_13
REMARK    3  A    between atoms: C3*_11  and  O3*_16
REMARK    4  A    between atoms: C5*_13  and  O5*_14
REMARK                            x       y       z     vdW  Elec       q    Type
REMARK                         _______ _______ _______ _____ _____    ______ ____
ROOT
ATOM      1  O   UNL     1      -1.187   1.909 -18.909  0.00  0.00    +0.000 OA
ATOM      2  N   UNL     1      -3.064   1.064 -19.967  0.00  0.00    +0.000 N 
ATOM      3  N   UNL     1      -1.991   2.993 -20.755  0.00  0.00    +0.000 NA
ATOM      4  N   UNL     1      -3.933   2.151 -21.844  0.00  0.00    +0.000 NA
ATOM      5  C   UNL     1      -2.022   1.971 -19.805  0.00  0.00    +0.000 A 
ATOM      6  C   UNL     1      -3.847   1.347 -21.004  0.00  0.00    +0.000 A 
ATOM      7  C   UNL     1      -2.888   3.048 -21.706  0.00  0.00    +0.000 A 
ATOM      8  N   UNL     1      -2.810   4.058 -22.609  0.00  0.00    +0.000 N 
ATOM      9  H   UNL     1      -3.692   4.305 -23.037  0.00  0.00    +0.000 HD
ATOM     10  H   UNL     1      -2.260   4.844 -22.285  0.00  0.00    +0.000 HD
ENDROOT
BRANCH   2  11
ATOM     11  C1* UNL     1      -3.320  -0.018 -19.184  0.00  0.00    +0.000 A 
ATOM     12  O4* UNL     1      -3.694   0.109 -17.842  0.00  0.00    +0.000 OA
ATOM     13  C4* UNL     1      -3.882  -1.188 -17.348  0.00  0.00    +0.000 A 
ATOM     14  C3* UNL     1      -3.615  -2.137 -18.399  0.00  0.00    +0.000 A 
ATOM     15  C2* UNL     1      -3.280  -1.381 -19.536  0.00  0.00    +0.000 A 
BRANCH  14  16
ATOM     16  O3* UNL     1      -4.257  -3.342 -18.440  0.00  0.00    +0.000 OA
ATOM     17  H3* UNL     1      -4.968  -3.337 -19.104  0.00  0.00    +0.000 HD
ENDBRANCH  14  16
BRANCH  13  18
ATOM     18  C5* UNL     1      -4.430  -1.444 -16.076  0.00  0.00    +0.000 C 
BRANCH  18  19
ATOM     19  O5* UNL     1      -4.947  -1.689 -14.876  0.00  0.00    +0.000 OA
ATOM     20  H5* UNL     1      -4.649  -1.019 -14.237  0.00  0.00    +0.000 HD
ENDBRANCH  18  19
ENDBRANCH  13  18
ENDBRANCH   2  11
TORSDOF 4
ENDMDL
MODEL 8
REMARK VINA RESULT:      -4.7     19.191     21.317
REMARK  Name = Decitabine.pdbqt.pdb
REMARK  4 active torsions:
REMARK  status: ('A' for Active; 'I' for Inactive)
REMARK    1  A    between atoms: N_2  and  C1*_8
REMARK    2  A    between atoms: C4*_10  and  C5*_13
REMARK    3  A    between atoms: C3*_11  and  O3*_16
REMARK    4  A    between atoms: C5*_13  and  O5*_14
REMARK                            x       y       z     vdW  Elec       q    Type
REMARK                         _______ _______ _______ _____ _____    ______ ____
ROOT
ATOM      1  O   UNL     1      -2.062  -2.606 -18.527  0.00  0.00    +0.000 OA
ATOM      2  N   UNL     1      -0.824  -0.691 -18.927  0.00  0.00    +0.000 N 
ATOM      3  N   UNL     1      -3.107  -0.575 -18.405  0.00  0.00    +0.000 NA
ATOM      4  N   UNL     1      -1.856   1.404 -18.835  0.00  0.00    +0.000 NA
ATOM      5  C   UNL     1      -1.989  -1.384 -18.615  0.00  0.00    +0.000 A 
ATOM      6  C   UNL     1      -0.998   0.627 -18.975  0.00  0.00    +0.000 A 
ATOM      7  C   UNL     1      -3.016   0.726 -18.501  0.00  0.00    +0.000 A 
ATOM      8  N   UNL     1      -4.131   1.469 -18.282  0.00  0.00    +0.000 N 
ATOM      9  H   UNL     1      -4.134   2.366 -18.750  0.00  0.00    +0.000 HD
ATOM     10  H   UNL     1      -4.989   0.940 -18.373  0.00  0.00    +0.000 HD
ENDROOT
BRANCH   2  11
ATOM     11  C1* UNL     1       0.396  -1.236 -19.175  0.00  0.00    +0.000 A 
ATOM     12  O4* UNL     1       1.424  -1.217 -18.228  0.00  0.00    +0.000 OA
ATOM     13  C4* UNL     1       2.523  -1.864 -18.807  0.00  0.00    +0.000 A 
ATOM     14  C3* UNL     1       2.174  -2.287 -20.140  0.00  0.00    +0.000 A 
ATOM     15  C2* UNL     1       0.838  -1.896 -20.339  0.00  0.00    +0.000 A 
BRANCH  14  16
ATOM     16  O3* UNL     1       2.740  -3.399 -20.697  0.00  0.00    +0.000 OA
ATOM     17  H3* UNL     1       2.090  -4.119 -20.776  0.00  0.00    +0.000 HD
ENDBRANCH  14  16
BRANCH  13  18
ATOM     18  C5* UNL     1       3.686  -2.184 -18.079  0.00  0.00    +0.000 C 
BRANCH  18  19
ATOM     19  O5* UNL     1       4.786  -2.487 -17.396  0.00  0.00    +0.000 OA
ATOM     20  H5* UNL     1       5.445  -2.895 -17.984  0.00  0.00    +0.000 HD
ENDBRANCH  18  19
ENDBRANCH  13  18
ENDBRANCH   2  11
TORSDOF 4
ENDMDL
MODEL 9
REMARK VINA RESULT:      -4.7     16.703     18.545
REMARK  Name = Decitabine.pdbqt.pdb
REMARK  4 active torsions:
REMARK  status: ('A' for Active; 'I' for Inactive)
REMARK    1  A    between atoms: N_2  and  C1*_8
REMARK    2  A    between atoms: C4*_10  and  C5*_13
REMARK    3  A    between atoms: C3*_11  and  O3*_16
REMARK    4  A    between atoms: C5*_13  and  O5*_14
REMARK                            x       y       z     vdW  Elec       q    Type
REMARK                         _______ _______ _______ _____ _____    ______ ____
ROOT
ATOM      1  O   UNL     1       3.701  -1.527 -21.425  0.00  0.00    +0.000 OA
ATOM      2  N   UNL     1       3.084  -1.614 -19.195  0.00  0.00    +0.000 N 
ATOM      3  N   UNL     1       2.584  -3.371 -20.664  0.00  0.00    +0.000 NA
ATOM      4  N   UNL     1       1.921  -3.470 -18.380  0.00  0.00    +0.000 NA
ATOM      5  C   UNL     1       3.168  -2.116 -20.490  0.00  0.00    +0.000 A 
ATOM      6  C   UNL     1       2.449  -2.430 -18.359  0.00  0.00    +0.000 A 
ATOM      7  C   UNL     1       2.019  -3.989 -19.660  0.00  0.00    +0.000 A 
ATOM      8  N   UNL     1       1.470  -5.211 -19.879  0.00  0.00    +0.000 N 
ATOM      9  H   UNL     1       0.722  -5.454 -19.243  0.00  0.00    +0.000 HD
ATOM     10  H   UNL     1       1.273  -5.392 -20.857  0.00  0.00    +0.000 HD
ENDROOT
BRANCH   2  11
ATOM     11  C1* UNL     1       3.570  -0.421 -18.761  0.00  0.00    +0.000 A 
ATOM     12  O4* UNL     1       4.921  -0.079 -18.886  0.00  0.00    +0.000 OA
ATOM     13  C4* UNL     1       5.066   1.205 -18.348  0.00  0.00    +0.000 A 
ATOM     14  C3* UNL     1       3.787   1.668 -17.874  0.00  0.00    +0.000 A 
ATOM     15  C2* UNL     1       2.869   0.641 -18.156  0.00  0.00    +0.000 A 
BRANCH  14  16
ATOM     16  O3* UNL     1       3.475   2.997 -17.872  0.00  0.00    +0.000 OA
ATOM     17  H3* UNL     1       4.279   3.545 -17.897  0.00  0.00    +0.000 HD
ENDBRANCH  14  16
BRANCH  13  18
ATOM     18  C5* UNL     1       6.262   1.942 -18.458  0.00  0.00    +0.000 C 
BRANCH  18  19
ATOM     19  O5* UNL     1       7.388   2.642 -18.560  0.00  0.00    +0.000 OA
ATOM     20  H5* UNL     1       7.516   3.191 -17.767  0.00  0.00    +0.000 HD
ENDBRANCH  18  19
ENDBRANCH  13  18
ENDBRANCH   2  11
TORSDOF 4
ENDMDL
