MODEL 1
REMARK VINA RESULT:      -4.4      0.000      0.000
REMARK  Name = Deferoxamine.pdbqt.pdb
REMARK  19 active torsions:
REMARK  status: ('A' for Active; 'I' for Inactive)
REMARK    1  A    between atoms: C_1  and  C_2
REMARK    2  A    between atoms: C_3  and  C_4
REMARK    3  A    between atoms: C_4  and  N_5
REMARK    4  A    between atoms: C_6  and  C_9
REMARK    5  A    between atoms: C_10  and  C_11
REMARK    6  A    between atoms: N_13  and  O_14
REMARK    7  A    between atoms: N_13  and  C_16
REMARK    8  A    between atoms: C_17  and  C_18
REMARK    9  A    between atoms: C_19  and  C_20
REMARK   10  A    between atoms: C_20  and  N_21
REMARK   11  A    between atoms: C_24  and  N_25
REMARK   12  A    between atoms: N_25  and  O_28
REMARK   13  A    between atoms: C_26  and  C_30
REMARK   14  A    between atoms: C_31  and  C_32
REMARK   15  A    between atoms: N_34  and  C_36
REMARK   16  A    between atoms: C_37  and  C_38
REMARK   17  A    between atoms: C_38  and  C_39
REMARK   18  A    between atoms: C_40  and  N_41
REMARK   19  A    between atoms: N_41  and  O_45
REMARK                            x       y       z     vdW  Elec       q    Type
REMARK                         _______ _______ _______ _____ _____    ______ ____
ROOT
ATOM      1  C   UNL     1      11.526  10.886 -13.028  0.00  0.00    +0.000 C 
ATOM      2  C   UNL     1      11.619  10.839 -11.831  0.00  0.00    +0.000 C 
ENDROOT
BRANCH   2   3
ATOM      3  N   UNL     1      11.726  10.786 -10.487  0.00  0.00    +0.000 N 
ATOM      4  C   UNL     1      12.679  11.318  -9.636  0.00  0.00    +0.000 C 
ATOM      5  O   UNL     1      13.740  11.816  -9.996  0.00  0.00    +0.000 OA
BRANCH   4   6
ATOM      6  C   UNL     1      12.416  11.247  -8.213  0.00  0.00    +0.000 C 
ATOM      7  C   UNL     1      12.196  11.202  -7.033  0.00  0.00    +0.000 C 
BRANCH   7   8
ATOM      8  C   UNL     1      11.940  11.169  -5.614  0.00  0.00    +0.000 C 
ATOM      9  O   UNL     1      11.054  11.875  -5.155  0.00  0.00    +0.000 OA
ATOM     10  N   UNL     1      12.747  10.318  -4.893  0.00  0.00    +0.000 N 
ATOM     11  H   UNL     1      13.433   9.796  -5.423  0.00  0.00    +0.000 HD
BRANCH  10  12
ATOM     12  C   UNL     1      12.751  10.071  -3.565  0.00  0.00    +0.000 C 
ATOM     13  C   UNL     1      12.749   9.850  -2.385  0.00  0.00    +0.000 C 
BRANCH  13  14
ATOM     14  C   UNL     1      12.739   9.562  -0.881  0.00  0.00    +0.000 C 
BRANCH  14  15
ATOM     15  C   UNL     1      12.720   9.276   0.623  0.00  0.00    +0.000 C 
ATOM     16  C   UNL     1      12.703   9.050   1.802  0.00  0.00    +0.000 C 
BRANCH  16  17
ATOM     17  N   UNL     1      12.683   8.789   3.124  0.00  0.00    +0.000 N 
ATOM     18  C   UNL     1      13.447   9.279   4.156  0.00  0.00    +0.000 C 
ATOM     19  O   UNL     1      14.353  10.093   4.142  0.00  0.00    +0.000 OA
ATOM     20  C   UNL     1      13.191   8.789   5.559  0.00  0.00    +0.000 C 
BRANCH  17  21
ATOM     21  O   UNL     1      11.671   7.832   3.397  0.00  0.00    +0.000 OA
ATOM     22  H   UNL     1      12.143   7.155   3.924  0.00  0.00    +0.000 HD
ENDBRANCH  17  21
ENDBRANCH  16  17
ENDBRANCH  14  15
ENDBRANCH  13  14
ENDBRANCH  10  12
ENDBRANCH   7   8
ENDBRANCH   4   6
BRANCH   3  23
ATOM     23  O   UNL     1      10.472  10.445  -9.931  0.00  0.00    +0.000 OA
ATOM     24  H   UNL     1       9.862  10.746 -10.630  0.00  0.00    +0.000 HD
ENDBRANCH   3  23
ENDBRANCH   2   3
BRANCH   1  25
ATOM     25  C   UNL     1      11.412  10.931 -14.554  0.00  0.00    +0.000 C 
ATOM     26  C   UNL     1      11.321  10.980 -15.749  0.00  0.00    +0.000 C 
BRANCH  26  27
ATOM     27  C   UNL     1      11.201  11.056 -17.275  0.00  0.00    +0.000 C 
BRANCH  27  28
ATOM     28  N   UNL     1      11.079  11.131 -18.618  0.00  0.00    +0.000 N 
ATOM     29  C   UNL     1      10.813  12.227 -19.404  0.00  0.00    +0.000 C 
ATOM     30  O   UNL     1      10.633  13.368 -19.003  0.00  0.00    +0.000 OA
ATOM     31  H   UNL     1      11.212  10.250 -19.099  0.00  0.00    +0.000 HD
BRANCH  29  32
ATOM     32  C   UNL     1      10.750  11.967 -20.822  0.00  0.00    +0.000 C 
ATOM     33  C   UNL     1      10.697  11.728 -21.998  0.00  0.00    +0.000 C 
BRANCH  33  34
ATOM     34  C   UNL     1      10.620  11.420 -23.411  0.00  0.00    +0.000 C 
ATOM     35  O   UNL     1       9.646  11.834 -24.032  0.00  0.00    +0.000 OA
ATOM     36  N   UNL     1      11.635  10.649 -23.952  0.00  0.00    +0.000 N 
BRANCH  36  37
ATOM     37  C   UNL     1      11.908  10.327 -25.233  0.00  0.00    +0.000 C 
ATOM     38  C   UNL     1      12.148  10.038 -26.373  0.00  0.00    +0.000 C 
BRANCH  38  39
ATOM     39  C   UNL     1      12.456   9.663 -27.826  0.00  0.00    +0.000 C 
ATOM     40  C   UNL     1      12.696   9.374 -28.966  0.00  0.00    +0.000 C 
BRANCH  40  41
ATOM     41  C   UNL     1      13.001   9.009 -30.421  0.00  0.00    +0.000 C 
BRANCH  41  42
ATOM     42  N   UNL     1      13.291   8.662 -31.803  0.00  0.00    +0.000 NA
ATOM     43  H   UNL     1      13.374   9.504 -32.371  0.00  0.00    +0.000 HD
ATOM     44  H   UNL     1      14.190   8.188 -31.869  0.00  0.00    +0.000 HD
ENDBRANCH  41  42
ENDBRANCH  40  41
ENDBRANCH  38  39
ENDBRANCH  36  37
BRANCH  36  45
ATOM     45  O   UNL     1      12.783  10.432 -23.158  0.00  0.00    +0.000 OA
ATOM     46  H   UNL     1      12.400  10.428 -22.261  0.00  0.00    +0.000 HD
ENDBRANCH  36  45
ENDBRANCH  33  34
ENDBRANCH  29  32
ENDBRANCH  27  28
ENDBRANCH  26  27
ENDBRANCH   1  25
TORSDOF 19
ENDMDL
MODEL 2
REMARK VINA RESULT:      -4.4      2.779     22.268
REMARK  Name = Deferoxamine.pdbqt.pdb
REMARK  19 active torsions:
REMARK  status: ('A' for Active; 'I' for Inactive)
REMARK    1  A    between atoms: C_1  and  C_2
REMARK    2  A    between atoms: C_3  and  C_4
REMARK    3  A    between atoms: C_4  and  N_5
REMARK    4  A    between atoms: C_6  and  C_9
REMARK    5  A    between atoms: C_10  and  C_11
REMARK    6  A    between atoms: N_13  and  O_14
REMARK    7  A    between atoms: N_13  and  C_16
REMARK    8  A    between atoms: C_17  and  C_18
REMARK    9  A    between atoms: C_19  and  C_20
REMARK   10  A    between atoms: C_20  and  N_21
REMARK   11  A    between atoms: C_24  and  N_25
REMARK   12  A    between atoms: N_25  and  O_28
REMARK   13  A    between atoms: C_26  and  C_30
REMARK   14  A    between atoms: C_31  and  C_32
REMARK   15  A    between atoms: N_34  and  C_36
REMARK   16  A    between atoms: C_37  and  C_38
REMARK   17  A    between atoms: C_38  and  C_39
REMARK   18  A    between atoms: C_40  and  N_41
REMARK   19  A    between atoms: N_41  and  O_45
REMARK                            x       y       z     vdW  Elec       q    Type
REMARK                         _______ _______ _______ _____ _____    ______ ____
ROOT
ATOM      1  C   UNL     1      11.509  11.037 -16.555  0.00  0.00    +0.000 C 
ATOM      2  C   UNL     1      11.393  11.081 -17.750  0.00  0.00    +0.000 C 
ENDROOT
BRANCH   2   3
ATOM      3  N   UNL     1      11.263  11.131 -19.092  0.00  0.00    +0.000 N 
ATOM      4  C   UNL     1      10.718  12.105 -19.910  0.00  0.00    +0.000 C 
ATOM      5  O   UNL     1      10.075  13.072 -19.516  0.00  0.00    +0.000 OA
BRANCH   4   6
ATOM      6  C   UNL     1      10.893  11.950 -21.340  0.00  0.00    +0.000 C 
ATOM      7  C   UNL     1      11.026  11.827 -22.527  0.00  0.00    +0.000 C 
BRANCH   7   8
ATOM      8  C   UNL     1      11.162  11.675 -23.955  0.00  0.00    +0.000 C 
ATOM      9  O   UNL     1      10.743  12.559 -24.688  0.00  0.00    +0.000 OA
ATOM     10  N   UNL     1      11.770  10.510 -24.365  0.00  0.00    +0.000 N 
ATOM     11  H   UNL     1      12.066   9.879 -23.632  0.00  0.00    +0.000 HD
BRANCH  10  12
ATOM     12  C   UNL     1      12.037  10.086 -25.619  0.00  0.00    +0.000 C 
ATOM     13  C   UNL     1      12.275   9.714 -26.735  0.00  0.00    +0.000 C 
BRANCH  13  14
ATOM     14  C   UNL     1      12.582   9.248 -28.162  0.00  0.00    +0.000 C 
BRANCH  14  15
ATOM     15  C   UNL     1      12.881   8.777 -29.588  0.00  0.00    +0.000 C 
ATOM     16  C   UNL     1      13.114   8.409 -30.706  0.00  0.00    +0.000 C 
BRANCH  16  17
ATOM     17  N   UNL     1      13.373   8.002 -31.964  0.00  0.00    +0.000 N 
ATOM     18  C   UNL     1      12.768   7.051 -32.752  0.00  0.00    +0.000 C 
ATOM     19  O   UNL     1      11.822   6.321 -32.513  0.00  0.00    +0.000 OA
ATOM     20  C   UNL     1      13.291   6.809 -34.146  0.00  0.00    +0.000 C 
BRANCH  17  21
ATOM     21  O   UNL     1      14.475   8.734 -32.476  0.00  0.00    +0.000 OA
ATOM     22  H   UNL     1      14.627   9.416 -31.789  0.00  0.00    +0.000 HD
ENDBRANCH  17  21
ENDBRANCH  16  17
ENDBRANCH  14  15
ENDBRANCH  13  14
ENDBRANCH  10  12
ENDBRANCH   7   8
ENDBRANCH   4   6
BRANCH   3  23
ATOM     23  O   UNL     1      12.152  10.205 -19.684  0.00  0.00    +0.000 OA
ATOM     24  H   UNL     1      11.545   9.479 -19.922  0.00  0.00    +0.000 HD
ENDBRANCH   3  23
ENDBRANCH   2   3
BRANCH   1  25
ATOM     25  C   UNL     1      11.640  10.983 -15.031  0.00  0.00    +0.000 C 
ATOM     26  C   UNL     1      11.739  10.928 -13.836  0.00  0.00    +0.000 C 
BRANCH  26  27
ATOM     27  C   UNL     1      11.863  10.843 -12.311  0.00  0.00    +0.000 C 
BRANCH  27  28
ATOM     28  N   UNL     1      11.978  10.785 -10.967  0.00  0.00    +0.000 N 
ATOM     29  C   UNL     1      11.537  11.679 -10.020  0.00  0.00    +0.000 C 
ATOM     30  O   UNL     1      10.941  12.722 -10.245  0.00  0.00    +0.000 OA
ATOM     31  H   UNL     1      12.452   9.959 -10.624  0.00  0.00    +0.000 HD
BRANCH  29  32
ATOM     32  C   UNL     1      11.820  11.318  -8.653  0.00  0.00    +0.000 C 
ATOM     33  C   UNL     1      12.068  10.998  -7.522  0.00  0.00    +0.000 C 
BRANCH  33  34
ATOM     34  C   UNL     1      12.388  10.605  -6.165  0.00  0.00    +0.000 C 
ATOM     35  O   UNL     1      12.925   9.514  -6.000  0.00  0.00    +0.000 OA
ATOM     36  N   UNL     1      12.030  11.473  -5.147  0.00  0.00    +0.000 N 
BRANCH  36  37
ATOM     37  C   UNL     1      12.316  11.450  -3.829  0.00  0.00    +0.000 C 
ATOM     38  C   UNL     1      12.574  11.430  -2.658  0.00  0.00    +0.000 C 
BRANCH  38  39
ATOM     39  C   UNL     1      12.909  11.400  -1.163  0.00  0.00    +0.000 C 
ATOM     40  C   UNL     1      13.175  11.380   0.007  0.00  0.00    +0.000 C 
BRANCH  40  41
ATOM     41  C   UNL     1      13.517  11.359   1.499  0.00  0.00    +0.000 C 
BRANCH  41  42
ATOM     42  N   UNL     1      13.841  11.337   2.916  0.00  0.00    +0.000 NA
ATOM     43  H   UNL     1      14.519  12.065   3.137  0.00  0.00    +0.000 HD
ATOM     44  H   UNL     1      13.013  11.545   3.473  0.00  0.00    +0.000 HD
ENDBRANCH  41  42
ENDBRANCH  40  41
ENDBRANCH  38  39
ENDBRANCH  36  37
BRANCH  36  45
ATOM     45  O   UNL     1      11.613  12.772  -5.516  0.00  0.00    +0.000 OA
ATOM     46  H   UNL     1      12.458  13.257  -5.504  0.00  0.00    +0.000 HD
ENDBRANCH  36  45
ENDBRANCH  33  34
ENDBRANCH  29  32
ENDBRANCH  27  28
ENDBRANCH  26  27
ENDBRANCH   1  25
TORSDOF 19
ENDMDL
MODEL 3
REMARK VINA RESULT:      -4.3     14.402     18.292
REMARK  Name = Deferoxamine.pdbqt.pdb
REMARK  19 active torsions:
REMARK  status: ('A' for Active; 'I' for Inactive)
REMARK    1  A    between atoms: C_1  and  C_2
REMARK    2  A    between atoms: C_3  and  C_4
REMARK    3  A    between atoms: C_4  and  N_5
REMARK    4  A    between atoms: C_6  and  C_9
REMARK    5  A    between atoms: C_10  and  C_11
REMARK    6  A    between atoms: N_13  and  O_14
REMARK    7  A    between atoms: N_13  and  C_16
REMARK    8  A    between atoms: C_17  and  C_18
REMARK    9  A    between atoms: C_19  and  C_20
REMARK   10  A    between atoms: C_20  and  N_21
REMARK   11  A    between atoms: C_24  and  N_25
REMARK   12  A    between atoms: N_25  and  O_28
REMARK   13  A    between atoms: C_26  and  C_30
REMARK   14  A    between atoms: C_31  and  C_32
REMARK   15  A    between atoms: N_34  and  C_36
REMARK   16  A    between atoms: C_37  and  C_38
REMARK   17  A    between atoms: C_38  and  C_39
REMARK   18  A    between atoms: C_40  and  N_41
REMARK   19  A    between atoms: N_41  and  O_45
REMARK                            x       y       z     vdW  Elec       q    Type
REMARK                         _______ _______ _______ _____ _____    ______ ____
ROOT
ATOM      1  C   UNL     1      10.399   6.618  -0.872  0.00  0.00    +0.000 C 
ATOM      2  C   UNL     1       9.385   6.057  -0.552  0.00  0.00    +0.000 C 
ENDROOT
BRANCH   2   3
ATOM      3  N   UNL     1       8.247   5.428  -0.193  0.00  0.00    +0.000 N 
ATOM      4  C   UNL     1       8.025   4.423   0.732  0.00  0.00    +0.000 C 
ATOM      5  O   UNL     1       8.905   3.783   1.297  0.00  0.00    +0.000 OA
BRANCH   4   6
ATOM      6  C   UNL     1       6.649   4.081   1.028  0.00  0.00    +0.000 C 
ATOM      7  C   UNL     1       5.511   3.792   1.285  0.00  0.00    +0.000 C 
BRANCH   7   8
ATOM      8  C   UNL     1       4.154   3.425   1.605  0.00  0.00    +0.000 C 
ATOM      9  O   UNL     1       3.714   3.687   2.715  0.00  0.00    +0.000 OA
ATOM     10  N   UNL     1       3.463   2.796   0.594  0.00  0.00    +0.000 N 
ATOM     11  H   UNL     1       3.968   2.656  -0.272  0.00  0.00    +0.000 HD
BRANCH  10  12
ATOM     12  C   UNL     1       2.192   2.338   0.588  0.00  0.00    +0.000 C 
ATOM     13  C   UNL     1       1.065   1.926   0.582  0.00  0.00    +0.000 C 
BRANCH  13  14
ATOM     14  C   UNL     1      -0.370   1.390   0.573  0.00  0.00    +0.000 C 
BRANCH  14  15
ATOM     15  C   UNL     1      -1.805   0.856   0.555  0.00  0.00    +0.000 C 
ATOM     16  C   UNL     1      -2.931   0.440   0.543  0.00  0.00    +0.000 C 
BRANCH  16  17
ATOM     17  N   UNL     1      -4.196  -0.022   0.532  0.00  0.00    +0.000 N 
ATOM     18  C   UNL     1      -5.401   0.637   0.457  0.00  0.00    +0.000 C 
ATOM     19  O   UNL     1      -5.638   1.829   0.375  0.00  0.00    +0.000 OA
ATOM     20  C   UNL     1      -6.680  -0.163   0.469  0.00  0.00    +0.000 C 
BRANCH  17  21
ATOM     21  O   UNL     1      -4.179  -1.438   0.621  0.00  0.00    +0.000 OA
ATOM     22  H   UNL     1      -3.536  -1.696  -0.071  0.00  0.00    +0.000 HD
ENDBRANCH  17  21
ENDBRANCH  16  17
ENDBRANCH  14  15
ENDBRANCH  13  14
ENDBRANCH  10  12
ENDBRANCH   7   8
ENDBRANCH   4   6
BRANCH   3  23
ATOM     23  O   UNL     1       7.137   6.208  -0.589  0.00  0.00    +0.000 OA
ATOM     24  H   UNL     1       6.926   6.679   0.238  0.00  0.00    +0.000 HD
ENDBRANCH   3  23
ENDBRANCH   2   3
BRANCH   1  25
ATOM     25  C   UNL     1      11.691   7.339  -1.264  0.00  0.00    +0.000 C 
ATOM     26  C   UNL     1      12.709   7.900  -1.559  0.00  0.00    +0.000 C 
BRANCH  26  27
ATOM     27  C   UNL     1      14.016   8.614  -1.923  0.00  0.00    +0.000 C 
BRANCH  27  28
ATOM     28  N   UNL     1      15.175   9.235  -2.230  0.00  0.00    +0.000 N 
ATOM     29  C   UNL     1      16.463   8.868  -1.920  0.00  0.00    +0.000 C 
ATOM     30  O   UNL     1      16.791   7.874  -1.287  0.00  0.00    +0.000 OA
ATOM     31  H   UNL     1      15.063  10.085  -2.768  0.00  0.00    +0.000 HD
BRANCH  29  32
ATOM     32  C   UNL     1      17.491   9.757  -2.403  0.00  0.00    +0.000 C 
ATOM     33  C   UNL     1      18.359  10.494  -2.786  0.00  0.00    +0.000 C 
BRANCH  33  34
ATOM     34  C   UNL     1      19.422  11.369  -3.237  0.00  0.00    +0.000 C 
ATOM     35  O   UNL     1      20.211  11.786  -2.396  0.00  0.00    +0.000 OA
ATOM     36  N   UNL     1      19.447  11.701  -4.581  0.00  0.00    +0.000 N 
BRANCH  36  37
ATOM     37  C   UNL     1      20.373  12.362  -5.307  0.00  0.00    +0.000 C 
ATOM     38  C   UNL     1      21.194  12.951  -5.955  0.00  0.00    +0.000 C 
BRANCH  38  39
ATOM     39  C   UNL     1      22.240  13.698  -6.788  0.00  0.00    +0.000 C 
ATOM     40  C   UNL     1      23.056  14.285  -7.444  0.00  0.00    +0.000 C 
BRANCH  40  41
ATOM     41  C   UNL     1      24.094  15.035  -8.283  0.00  0.00    +0.000 C 
BRANCH  41  42
ATOM     42  N   UNL     1      25.079  15.747  -9.080  0.00  0.00    +0.000 NA
ATOM     43  H   UNL     1      24.860  16.742  -9.109  0.00  0.00    +0.000 HD
ATOM     44  H   UNL     1      26.001  15.674  -8.653  0.00  0.00    +0.000 HD
ENDBRANCH  41  42
ENDBRANCH  40  41
ENDBRANCH  38  39
ENDBRANCH  36  37
BRANCH  36  45
ATOM     45  O   UNL     1      18.600  10.975  -5.449  0.00  0.00    +0.000 OA
ATOM     46  H   UNL     1      17.942  11.653  -5.688  0.00  0.00    +0.000 HD
ENDBRANCH  36  45
ENDBRANCH  33  34
ENDBRANCH  29  32
ENDBRANCH  27  28
ENDBRANCH  26  27
ENDBRANCH   1  25
TORSDOF 19
ENDMDL
MODEL 4
REMARK VINA RESULT:      -4.3     16.196     16.874
REMARK  Name = Deferoxamine.pdbqt.pdb
REMARK  19 active torsions:
REMARK  status: ('A' for Active; 'I' for Inactive)
REMARK    1  A    between atoms: C_1  and  C_2
REMARK    2  A    between atoms: C_3  and  C_4
REMARK    3  A    between atoms: C_4  and  N_5
REMARK    4  A    between atoms: C_6  and  C_9
REMARK    5  A    between atoms: C_10  and  C_11
REMARK    6  A    between atoms: N_13  and  O_14
REMARK    7  A    between atoms: N_13  and  C_16
REMARK    8  A    between atoms: C_17  and  C_18
REMARK    9  A    between atoms: C_19  and  C_20
REMARK   10  A    between atoms: C_20  and  N_21
REMARK   11  A    between atoms: C_24  and  N_25
REMARK   12  A    between atoms: N_25  and  O_28
REMARK   13  A    between atoms: C_26  and  C_30
REMARK   14  A    between atoms: C_31  and  C_32
REMARK   15  A    between atoms: N_34  and  C_36
REMARK   16  A    between atoms: C_37  and  C_38
REMARK   17  A    between atoms: C_38  and  C_39
REMARK   18  A    between atoms: C_40  and  N_41
REMARK   19  A    between atoms: N_41  and  O_45
REMARK                            x       y       z     vdW  Elec       q    Type
REMARK                         _______ _______ _______ _____ _____    ______ ____
ROOT
ATOM      1  C   UNL     1      13.128  -5.632  -9.198  0.00  0.00    +0.000 C 
ATOM      2  C   UNL     1      12.612  -5.840  -8.133  0.00  0.00    +0.000 C 
ENDROOT
BRANCH   2   3
ATOM      3  N   UNL     1      12.032  -6.075  -6.938  0.00  0.00    +0.000 N 
ATOM      4  C   UNL     1      11.455  -7.224  -6.426  0.00  0.00    +0.000 C 
ATOM      5  O   UNL     1      11.213  -8.236  -7.075  0.00  0.00    +0.000 OA
BRANCH   4   6
ATOM      6  C   UNL     1      11.079  -7.215  -5.027  0.00  0.00    +0.000 C 
ATOM      7  C   UNL     1      10.776  -7.196  -3.865  0.00  0.00    +0.000 C 
BRANCH   7   8
ATOM      8  C   UNL     1      10.434  -7.167  -2.464  0.00  0.00    +0.000 C 
ATOM      9  O   UNL     1      10.177  -8.218  -1.894  0.00  0.00    +0.000 OA
ATOM     10  N   UNL     1      10.432  -5.917  -1.887  0.00  0.00    +0.000 N 
ATOM     11  H   UNL     1      10.673  -5.144  -2.494  0.00  0.00    +0.000 HD
BRANCH  10  12
ATOM     12  C   UNL     1      10.156  -5.569  -0.611  0.00  0.00    +0.000 C 
ATOM     13  C   UNL     1       9.905  -5.261   0.521  0.00  0.00    +0.000 C 
BRANCH  13  14
ATOM     14  C   UNL     1       9.577  -4.872   1.966  0.00  0.00    +0.000 C 
BRANCH  14  15
ATOM     15  C   UNL     1       9.241  -4.488   3.410  0.00  0.00    +0.000 C 
ATOM     16  C   UNL     1       8.977  -4.184   4.541  0.00  0.00    +0.000 C 
BRANCH  16  17
ATOM     17  N   UNL     1       8.677  -3.839   5.808  0.00  0.00    +0.000 N 
ATOM     18  C   UNL     1       7.536  -3.298   6.354  0.00  0.00    +0.000 C 
ATOM     19  O   UNL     1       6.484  -2.990   5.824  0.00  0.00    +0.000 OA
ATOM     20  C   UNL     1       7.494  -3.010   7.834  0.00  0.00    +0.000 C 
BRANCH  17  21
ATOM     21  O   UNL     1       9.789  -4.114   6.645  0.00  0.00    +0.000 OA
ATOM     22  H   UNL     1       9.632  -3.535   7.419  0.00  0.00    +0.000 HD
ENDBRANCH  17  21
ENDBRANCH  16  17
ENDBRANCH  14  15
ENDBRANCH  13  14
ENDBRANCH  10  12
ENDBRANCH   7   8
ENDBRANCH   4   6
BRANCH   3  23
ATOM     23  O   UNL     1      12.437  -5.082  -6.018  0.00  0.00    +0.000 OA
ATOM     24  H   UNL     1      11.832  -4.351  -6.242  0.00  0.00    +0.000 HD
ENDBRANCH   3  23
ENDBRANCH   2   3
BRANCH   1  25
ATOM     25  C   UNL     1      13.772  -5.369 -10.562  0.00  0.00    +0.000 C 
ATOM     26  C   UNL     1      14.284  -5.174 -11.630  0.00  0.00    +0.000 C 
BRANCH  26  27
ATOM     27  C   UNL     1      14.945  -4.938 -12.992  0.00  0.00    +0.000 C 
BRANCH  27  28
ATOM     28  N   UNL     1      15.513  -4.718 -14.197  0.00  0.00    +0.000 N 
ATOM     29  C   UNL     1      15.153  -5.214 -15.428  0.00  0.00    +0.000 C 
ATOM     30  O   UNL     1      14.218  -5.970 -15.648  0.00  0.00    +0.000 OA
ATOM     31  H   UNL     1      16.310  -4.095 -14.175  0.00  0.00    +0.000 HD
BRANCH  29  32
ATOM     32  C   UNL     1      15.975  -4.779 -16.531  0.00  0.00    +0.000 C 
ATOM     33  C   UNL     1      16.645  -4.430 -17.465  0.00  0.00    +0.000 C 
BRANCH  33  34
ATOM     34  C   UNL     1      17.434  -4.010 -18.604  0.00  0.00    +0.000 C 
ATOM     35  O   UNL     1      16.884  -3.984 -19.700  0.00  0.00    +0.000 OA
ATOM     36  N   UNL     1      18.766  -3.704 -18.380  0.00  0.00    +0.000 N 
BRANCH  36  37
ATOM     37  C   UNL     1      19.693  -3.159 -19.194  0.00  0.00    +0.000 C 
ATOM     38  C   UNL     1      20.515  -2.673 -19.921  0.00  0.00    +0.000 C 
BRANCH  38  39
ATOM     39  C   UNL     1      21.562  -2.057 -20.855  0.00  0.00    +0.000 C 
ATOM     40  C   UNL     1      22.381  -1.578 -21.589  0.00  0.00    +0.000 C 
BRANCH  40  41
ATOM     41  C   UNL     1      23.425  -0.970 -22.530  0.00  0.00    +0.000 C 
BRANCH  41  42
ATOM     42  N   UNL     1      24.417  -0.393 -23.423  0.00  0.00    +0.000 NA
ATOM     43  H   UNL     1      25.290  -0.915 -23.370  0.00  0.00    +0.000 HD
ATOM     44  H   UNL     1      24.106  -0.461 -24.391  0.00  0.00    +0.000 HD
ENDBRANCH  41  42
ENDBRANCH  40  41
ENDBRANCH  38  39
ENDBRANCH  36  37
BRANCH  36  45
ATOM     45  O   UNL     1      19.189  -3.581 -17.037  0.00  0.00    +0.000 OA
ATOM     46  H   UNL     1      19.376  -2.626 -16.979  0.00  0.00    +0.000 HD
ENDBRANCH  36  45
ENDBRANCH  33  34
ENDBRANCH  29  32
ENDBRANCH  27  28
ENDBRANCH  26  27
ENDBRANCH   1  25
TORSDOF 19
ENDMDL
MODEL 5
REMARK VINA RESULT:      -4.2      6.680     22.065
REMARK  Name = Deferoxamine.pdbqt.pdb
REMARK  19 active torsions:
REMARK  status: ('A' for Active; 'I' for Inactive)
REMARK    1  A    between atoms: C_1  and  C_2
REMARK    2  A    between atoms: C_3  and  C_4
REMARK    3  A    between atoms: C_4  and  N_5
REMARK    4  A    between atoms: C_6  and  C_9
REMARK    5  A    between atoms: C_10  and  C_11
REMARK    6  A    between atoms: N_13  and  O_14
REMARK    7  A    between atoms: N_13  and  C_16
REMARK    8  A    between atoms: C_17  and  C_18
REMARK    9  A    between atoms: C_19  and  C_20
REMARK   10  A    between atoms: C_20  and  N_21
REMARK   11  A    between atoms: C_24  and  N_25
REMARK   12  A    between atoms: N_25  and  O_28
REMARK   13  A    between atoms: C_26  and  C_30
REMARK   14  A    between atoms: C_31  and  C_32
REMARK   15  A    between atoms: N_34  and  C_36
REMARK   16  A    between atoms: C_37  and  C_38
REMARK   17  A    between atoms: C_38  and  C_39
REMARK   18  A    between atoms: C_40  and  N_41
REMARK   19  A    between atoms: N_41  and  O_45
REMARK                            x       y       z     vdW  Elec       q    Type
REMARK                         _______ _______ _______ _____ _____    ______ ____
ROOT
ATOM      1  C   UNL     1      11.200  14.052 -15.446  0.00  0.00    +0.000 C 
ATOM      2  C   UNL     1      11.457  13.668 -16.554  0.00  0.00    +0.000 C 
ENDROOT
BRANCH   2   3
ATOM      3  N   UNL     1      11.747  13.235 -17.798  0.00  0.00    +0.000 N 
ATOM      4  C   UNL     1      12.918  13.318 -18.533  0.00  0.00    +0.000 C 
ATOM      5  O   UNL     1      13.896  13.987 -18.219  0.00  0.00    +0.000 OA
BRANCH   4   6
ATOM      6  C   UNL     1      12.974  12.588 -19.783  0.00  0.00    +0.000 C 
ATOM      7  C   UNL     1      13.010  11.975 -20.815  0.00  0.00    +0.000 C 
BRANCH   7   8
ATOM      8  C   UNL     1      13.044  11.220 -22.044  0.00  0.00    +0.000 C 
ATOM      9  O   UNL     1      13.886  10.344 -22.178  0.00  0.00    +0.000 OA
ATOM     10  N   UNL     1      12.092  11.571 -22.974  0.00  0.00    +0.000 N 
ATOM     11  H   UNL     1      11.461  12.316 -22.708  0.00  0.00    +0.000 HD
BRANCH  10  12
ATOM     12  C   UNL     1      11.873  11.055 -24.203  0.00  0.00    +0.000 C 
ATOM     13  C   UNL     1      11.676  10.603 -25.297  0.00  0.00    +0.000 C 
BRANCH  13  14
ATOM     14  C   UNL     1      11.424  10.033 -26.697  0.00  0.00    +0.000 C 
BRANCH  14  15
ATOM     15  C   UNL     1      11.181   9.465 -28.097  0.00  0.00    +0.000 C 
ATOM     16  C   UNL     1      10.990   9.016 -29.194  0.00  0.00    +0.000 C 
BRANCH  16  17
ATOM     17  N   UNL     1      10.770   8.509 -30.423  0.00  0.00    +0.000 N 
ATOM     18  C   UNL     1      11.124   8.967 -31.669  0.00  0.00    +0.000 C 
ATOM     19  O   UNL     1      11.742   9.967 -31.991  0.00  0.00    +0.000 OA
ATOM     20  C   UNL     1      10.727   8.171 -32.887  0.00  0.00    +0.000 C 
BRANCH  17  21
ATOM     21  O   UNL     1      10.039   7.298 -30.306  0.00  0.00    +0.000 OA
ATOM     22  H   UNL     1      10.677   6.623 -30.618  0.00  0.00    +0.000 HD
ENDBRANCH  17  21
ENDBRANCH  16  17
ENDBRANCH  14  15
ENDBRANCH  13  14
ENDBRANCH  10  12
ENDBRANCH   7   8
ENDBRANCH   4   6
BRANCH   3  23
ATOM     23  O   UNL     1      10.802  12.259 -18.187  0.00  0.00    +0.000 OA
ATOM     24  H   UNL     1      10.431  12.660 -18.995  0.00  0.00    +0.000 HD
ENDBRANCH   3  23
ENDBRANCH   2   3
BRANCH   1  25
ATOM     25  C   UNL     1      10.887  14.543 -14.029  0.00  0.00    +0.000 C 
ATOM     26  C   UNL     1      10.642  14.940 -12.924  0.00  0.00    +0.000 C 
BRANCH  26  27
ATOM     27  C   UNL     1      10.330  15.461 -11.517  0.00  0.00    +0.000 C 
BRANCH  27  28
ATOM     28  N   UNL     1      10.052  15.937 -10.284  0.00  0.00    +0.000 N 
ATOM     29  C   UNL     1       9.372  17.077  -9.928  0.00  0.00    +0.000 C 
ATOM     30  O   UNL     1       8.883  17.889 -10.701  0.00  0.00    +0.000 OA
ATOM     31  H   UNL     1      10.393  15.358  -9.527  0.00  0.00    +0.000 HD
BRANCH  29  32
ATOM     32  C   UNL     1       9.243  17.300  -8.509  0.00  0.00    +0.000 C 
ATOM     33  C   UNL     1       9.156  17.498  -7.327  0.00  0.00    +0.000 C 
BRANCH  33  34
ATOM     34  C   UNL     1       9.062  17.758  -5.905  0.00  0.00    +0.000 C 
ATOM     35  O   UNL     1       9.783  18.633  -5.437  0.00  0.00    +0.000 OA
ATOM     36  N   UNL     1       8.191  16.971  -5.170  0.00  0.00    +0.000 N 
BRANCH  36  37
ATOM     37  C   UNL     1       7.790  17.068  -3.886  0.00  0.00    +0.000 C 
ATOM     38  C   UNL     1       7.434  17.157  -2.743  0.00  0.00    +0.000 C 
BRANCH  38  39
ATOM     39  C   UNL     1       6.986  17.272  -1.282  0.00  0.00    +0.000 C 
ATOM     40  C   UNL     1       6.631  17.366  -0.140  0.00  0.00    +0.000 C 
BRANCH  40  41
ATOM     41  C   UNL     1       6.175  17.487   1.316  0.00  0.00    +0.000 C 
BRANCH  41  42
ATOM     42  N   UNL     1       5.741  17.602   2.699  0.00  0.00    +0.000 NA
ATOM     43  H   UNL     1       5.225  18.469   2.839  0.00  0.00    +0.000 HD
ATOM     44  H   UNL     1       5.095  16.849   2.933  0.00  0.00    +0.000 HD
ENDBRANCH  41  42
ENDBRANCH  40  41
ENDBRANCH  38  39
ENDBRANCH  36  37
BRANCH  36  45
ATOM     45  O   UNL     1       7.286  16.156  -5.886  0.00  0.00    +0.000 OA
ATOM     46  H   UNL     1       7.894  15.548  -6.345  0.00  0.00    +0.000 HD
ENDBRANCH  36  45
ENDBRANCH  33  34
ENDBRANCH  29  32
ENDBRANCH  27  28
ENDBRANCH  26  27
ENDBRANCH   1  25
TORSDOF 19
ENDMDL
MODEL 6
REMARK VINA RESULT:      -4.2      3.006      3.155
REMARK  Name = Deferoxamine.pdbqt.pdb
REMARK  19 active torsions:
REMARK  status: ('A' for Active; 'I' for Inactive)
REMARK    1  A    between atoms: C_1  and  C_2
REMARK    2  A    between atoms: C_3  and  C_4
REMARK    3  A    between atoms: C_4  and  N_5
REMARK    4  A    between atoms: C_6  and  C_9
REMARK    5  A    between atoms: C_10  and  C_11
REMARK    6  A    between atoms: N_13  and  O_14
REMARK    7  A    between atoms: N_13  and  C_16
REMARK    8  A    between atoms: C_17  and  C_18
REMARK    9  A    between atoms: C_19  and  C_20
REMARK   10  A    between atoms: C_20  and  N_21
REMARK   11  A    between atoms: C_24  and  N_25
REMARK   12  A    between atoms: N_25  and  O_28
REMARK   13  A    between atoms: C_26  and  C_30
REMARK   14  A    between atoms: C_31  and  C_32
REMARK   15  A    between atoms: N_34  and  C_36
REMARK   16  A    between atoms: C_37  and  C_38
REMARK   17  A    between atoms: C_38  and  C_39
REMARK   18  A    between atoms: C_40  and  N_41
REMARK   19  A    between atoms: N_41  and  O_45
REMARK                            x       y       z     vdW  Elec       q    Type
REMARK                         _______ _______ _______ _____ _____    ______ ____
ROOT
ATOM      1  C   UNL     1      11.459  10.906 -13.010  0.00  0.00    +0.000 C 
ATOM      2  C   UNL     1      11.537  10.870 -11.811  0.00  0.00    +0.000 C 
ENDROOT
BRANCH   2   3
ATOM      3  N   UNL     1      11.626  10.829 -10.466  0.00  0.00    +0.000 N 
ATOM      4  C   UNL     1      12.645  11.226  -9.616  0.00  0.00    +0.000 C 
ATOM      5  O   UNL     1      13.773  11.547  -9.976  0.00  0.00    +0.000 OA
BRANCH   4   6
ATOM      6  C   UNL     1      12.366  11.226  -8.195  0.00  0.00    +0.000 C 
ATOM      7  C   UNL     1      12.135  11.240  -7.016  0.00  0.00    +0.000 C 
BRANCH   7   8
ATOM      8  C   UNL     1      11.871  11.277  -5.599  0.00  0.00    +0.000 C 
ATOM      9  O   UNL     1      11.915  10.235  -4.960  0.00  0.00    +0.000 OA
ATOM     10  N   UNL     1      11.588  12.523  -5.087  0.00  0.00    +0.000 N 
ATOM     11  H   UNL     1      11.597  13.290  -5.748  0.00  0.00    +0.000 HD
BRANCH  10  12
ATOM     12  C   UNL     1      11.302  12.876  -3.815  0.00  0.00    +0.000 C 
ATOM     13  C   UNL     1      11.048  13.184  -2.683  0.00  0.00    +0.000 C 
BRANCH  13  14
ATOM     14  C   UNL     1      10.725  13.567  -1.236  0.00  0.00    +0.000 C 
BRANCH  14  15
ATOM     15  C   UNL     1      10.395  13.945   0.211  0.00  0.00    +0.000 C 
ATOM     16  C   UNL     1      10.137  14.239   1.346  0.00  0.00    +0.000 C 
BRANCH  16  17
ATOM     17  N   UNL     1       9.853  14.564   2.622  0.00  0.00    +0.000 N 
ATOM     18  C   UNL     1       8.652  14.698   3.277  0.00  0.00    +0.000 C 
ATOM     19  O   UNL     1       7.514  14.551   2.867  0.00  0.00    +0.000 OA
ATOM     20  C   UNL     1       8.648  15.085   4.735  0.00  0.00    +0.000 C 
BRANCH  17  21
ATOM     21  O   UNL     1      11.063  14.792   3.327  0.00  0.00    +0.000 OA
ATOM     22  H   UNL     1      11.067  14.077   3.997  0.00  0.00    +0.000 HD
ENDBRANCH  17  21
ENDBRANCH  16  17
ENDBRANCH  14  15
ENDBRANCH  13  14
ENDBRANCH  10  12
ENDBRANCH   7   8
ENDBRANCH   4   6
BRANCH   3  23
ATOM     23  O   UNL     1      10.332  10.698  -9.914  0.00  0.00    +0.000 OA
ATOM     24  H   UNL     1       9.935  10.034 -10.509  0.00  0.00    +0.000 HD
ENDBRANCH   3  23
ENDBRANCH   2   3
BRANCH   1  25
ATOM     25  C   UNL     1      11.364  10.936 -14.537  0.00  0.00    +0.000 C 
ATOM     26  C   UNL     1      11.287  10.973 -15.734  0.00  0.00    +0.000 C 
BRANCH  26  27
ATOM     27  C   UNL     1      11.187  11.034 -17.262  0.00  0.00    +0.000 C 
BRANCH  27  28
ATOM     28  N   UNL     1      11.083  11.097 -18.607  0.00  0.00    +0.000 N 
ATOM     29  C   UNL     1      10.843  12.188 -19.407  0.00  0.00    +0.000 C 
ATOM     30  O   UNL     1      10.676  13.336 -19.020  0.00  0.00    +0.000 OA
ATOM     31  H   UNL     1      11.208  10.209 -19.077  0.00  0.00    +0.000 HD
BRANCH  29  32
ATOM     32  C   UNL     1      10.794  11.915 -20.823  0.00  0.00    +0.000 C 
ATOM     33  C   UNL     1      10.742  11.666 -21.997  0.00  0.00    +0.000 C 
BRANCH  33  34
ATOM     34  C   UNL     1      10.660  11.355 -23.410  0.00  0.00    +0.000 C 
ATOM     35  O   UNL     1       9.667  11.737 -24.020  0.00  0.00    +0.000 OA
ATOM     36  N   UNL     1      11.692  10.614 -23.960  0.00  0.00    +0.000 N 
BRANCH  36  37
ATOM     37  C   UNL     1      11.962  10.300 -25.244  0.00  0.00    +0.000 C 
ATOM     38  C   UNL     1      12.203  10.023 -26.387  0.00  0.00    +0.000 C 
BRANCH  38  39
ATOM     39  C   UNL     1      12.509   9.676 -27.847  0.00  0.00    +0.000 C 
ATOM     40  C   UNL     1      12.742   9.403 -28.992  0.00  0.00    +0.000 C 
BRANCH  40  41
ATOM     41  C   UNL     1      13.037   9.053 -30.453  0.00  0.00    +0.000 C 
BRANCH  41  42
ATOM     42  N   UNL     1      13.317   8.721 -31.841  0.00  0.00    +0.000 NA
ATOM     43  H   UNL     1      13.179   9.537 -32.436  0.00  0.00    +0.000 HD
ATOM     44  H   UNL     1      14.293   8.453 -31.952  0.00  0.00    +0.000 HD
ENDBRANCH  41  42
ENDBRANCH  40  41
ENDBRANCH  38  39
ENDBRANCH  36  37
BRANCH  36  45
ATOM     45  O   UNL     1      12.855  10.434 -23.178  0.00  0.00    +0.000 OA
ATOM     46  H   UNL     1      12.482  10.419 -22.277  0.00  0.00    +0.000 HD
ENDBRANCH  36  45
ENDBRANCH  33  34
ENDBRANCH  29  32
ENDBRANCH  27  28
ENDBRANCH  26  27
ENDBRANCH   1  25
TORSDOF 19
ENDMDL
MODEL 7
REMARK VINA RESULT:      -4.0     32.902     33.617
REMARK  Name = Deferoxamine.pdbqt.pdb
REMARK  19 active torsions:
REMARK  status: ('A' for Active; 'I' for Inactive)
REMARK    1  A    between atoms: C_1  and  C_2
REMARK    2  A    between atoms: C_3  and  C_4
REMARK    3  A    between atoms: C_4  and  N_5
REMARK    4  A    between atoms: C_6  and  C_9
REMARK    5  A    between atoms: C_10  and  C_11
REMARK    6  A    between atoms: N_13  and  O_14
REMARK    7  A    between atoms: N_13  and  C_16
REMARK    8  A    between atoms: C_17  and  C_18
REMARK    9  A    between atoms: C_19  and  C_20
REMARK   10  A    between atoms: C_20  and  N_21
REMARK   11  A    between atoms: C_24  and  N_25
REMARK   12  A    between atoms: N_25  and  O_28
REMARK   13  A    between atoms: C_26  and  C_30
REMARK   14  A    between atoms: C_31  and  C_32
REMARK   15  A    between atoms: N_34  and  C_36
REMARK   16  A    between atoms: C_37  and  C_38
REMARK   17  A    between atoms: C_38  and  C_39
REMARK   18  A    between atoms: C_40  and  N_41
REMARK   19  A    between atoms: N_41  and  O_45
REMARK                            x       y       z     vdW  Elec       q    Type
REMARK                         _______ _______ _______ _____ _____    ______ ____
ROOT
ATOM      1  C   UNL     1     -17.783  -6.444  -7.904  0.00  0.00    +0.000 C 
ATOM      2  C   UNL     1     -17.248  -6.274  -6.842  0.00  0.00    +0.000 C 
ENDROOT
BRANCH   2   3
ATOM      3  N   UNL     1     -16.646  -6.083  -5.650  0.00  0.00    +0.000 N 
ATOM      4  C   UNL     1     -16.129  -6.993  -4.744  0.00  0.00    +0.000 C 
ATOM      5  O   UNL     1     -16.288  -8.207  -4.802  0.00  0.00    +0.000 OA
BRANCH   4   6
ATOM      6  C   UNL     1     -15.372  -6.465  -3.627  0.00  0.00    +0.000 C 
ATOM      7  C   UNL     1     -14.737  -6.019  -2.710  0.00  0.00    +0.000 C 
BRANCH   7   8
ATOM      8  C   UNL     1     -13.957  -5.482  -1.622  0.00  0.00    +0.000 C 
ATOM      9  O   UNL     1     -14.308  -5.706  -0.473  0.00  0.00    +0.000 OA
ATOM     10  N   UNL     1     -12.855  -4.747  -1.999  0.00  0.00    +0.000 N 
ATOM     11  H   UNL     1     -12.697  -4.658  -2.995  0.00  0.00    +0.000 HD
BRANCH  10  12
ATOM     12  C   UNL     1     -11.942  -4.125  -1.223  0.00  0.00    +0.000 C 
ATOM     13  C   UNL     1     -11.130  -3.576  -0.529  0.00  0.00    +0.000 C 
BRANCH  13  14
ATOM     14  C   UNL     1     -10.093  -2.884   0.361  0.00  0.00    +0.000 C 
BRANCH  14  15
ATOM     15  C   UNL     1      -9.053  -2.201   1.252  0.00  0.00    +0.000 C 
ATOM     16  C   UNL     1      -8.236  -1.667   1.952  0.00  0.00    +0.000 C 
BRANCH  16  17
ATOM     17  N   UNL     1      -7.314  -1.073   2.734  0.00  0.00    +0.000 N 
ATOM     18  C   UNL     1      -6.712   0.159   2.650  0.00  0.00    +0.000 C 
ATOM     19  O   UNL     1      -6.861   1.051   1.832  0.00  0.00    +0.000 OA
ATOM     20  C   UNL     1      -5.694   0.555   3.690  0.00  0.00    +0.000 C 
BRANCH  17  21
ATOM     21  O   UNL     1      -6.967  -1.948   3.796  0.00  0.00    +0.000 OA
ATOM     22  H   UNL     1      -7.317  -2.812   3.495  0.00  0.00    +0.000 HD
ENDBRANCH  17  21
ENDBRANCH  16  17
ENDBRANCH  14  15
ENDBRANCH  13  14
ENDBRANCH  10  12
ENDBRANCH   7   8
ENDBRANCH   4   6
BRANCH   3  23
ATOM     23  O   UNL     1     -16.196  -4.747  -5.562  0.00  0.00    +0.000 OA
ATOM     24  H   UNL     1     -16.190  -4.608  -4.596  0.00  0.00    +0.000 HD
ENDBRANCH   3  23
ENDBRANCH   2   3
BRANCH   1  25
ATOM     25  C   UNL     1     -18.450  -6.664  -9.265  0.00  0.00    +0.000 C 
ATOM     26  C   UNL     1     -18.969  -6.824 -10.334  0.00  0.00    +0.000 C 
BRANCH  26  27
ATOM     27  C   UNL     1     -19.626  -7.016 -11.705  0.00  0.00    +0.000 C 
BRANCH  27  28
ATOM     28  N   UNL     1     -20.201  -7.168 -12.918  0.00  0.00    +0.000 N 
ATOM     29  C   UNL     1     -20.366  -8.313 -13.661  0.00  0.00    +0.000 C 
ATOM     30  O   UNL     1     -20.005  -9.435 -13.336  0.00  0.00    +0.000 OA
ATOM     31  H   UNL     1     -20.561  -6.312 -13.319  0.00  0.00    +0.000 HD
BRANCH  29  32
ATOM     32  C   UNL     1     -21.031  -8.134 -14.929  0.00  0.00    +0.000 C 
ATOM     33  C   UNL     1     -21.599  -7.970 -15.974  0.00  0.00    +0.000 C 
BRANCH  33  34
ATOM     34  C   UNL     1     -22.290  -7.750 -17.228  0.00  0.00    +0.000 C 
ATOM     35  O   UNL     1     -23.413  -7.258 -17.181  0.00  0.00    +0.000 OA
ATOM     36  N   UNL     1     -21.648  -8.147 -18.389  0.00  0.00    +0.000 N 
BRANCH  36  37
ATOM     37  C   UNL     1     -21.967  -7.947 -19.684  0.00  0.00    +0.000 C 
ATOM     38  C   UNL     1     -22.252  -7.766 -20.836  0.00  0.00    +0.000 C 
BRANCH  38  39
ATOM     39  C   UNL     1     -22.620  -7.530 -22.304  0.00  0.00    +0.000 C 
ATOM     40  C   UNL     1     -22.913  -7.347 -23.453  0.00  0.00    +0.000 C 
BRANCH  40  41
ATOM     41  C   UNL     1     -23.290  -7.116 -24.919  0.00  0.00    +0.000 C 
BRANCH  41  42
ATOM     42  N   UNL     1     -23.649  -6.898 -26.310  0.00  0.00    +0.000 NA
ATOM     43  H   UNL     1     -22.824  -6.656 -26.857  0.00  0.00    +0.000 HD
ATOM     44  H   UNL     1     -24.018  -7.754 -26.721  0.00  0.00    +0.000 HD
ENDBRANCH  41  42
ENDBRANCH  40  41
ENDBRANCH  38  39
ENDBRANCH  36  37
BRANCH  36  45
ATOM     45  O   UNL     1     -20.283  -8.500 -18.290  0.00  0.00    +0.000 OA
ATOM     46  H   UNL     1     -20.091  -8.273 -17.362  0.00  0.00    +0.000 HD
ENDBRANCH  36  45
ENDBRANCH  33  34
ENDBRANCH  29  32
ENDBRANCH  27  28
ENDBRANCH  26  27
ENDBRANCH   1  25
TORSDOF 19
ENDMDL
MODEL 8
REMARK VINA RESULT:      -4.0      6.073      6.258
REMARK  Name = Deferoxamine.pdbqt.pdb
REMARK  19 active torsions:
REMARK  status: ('A' for Active; 'I' for Inactive)
REMARK    1  A    between atoms: C_1  and  C_2
REMARK    2  A    between atoms: C_3  and  C_4
REMARK    3  A    between atoms: C_4  and  N_5
REMARK    4  A    between atoms: C_6  and  C_9
REMARK    5  A    between atoms: C_10  and  C_11
REMARK    6  A    between atoms: N_13  and  O_14
REMARK    7  A    between atoms: N_13  and  C_16
REMARK    8  A    between atoms: C_17  and  C_18
REMARK    9  A    between atoms: C_19  and  C_20
REMARK   10  A    between atoms: C_20  and  N_21
REMARK   11  A    between atoms: C_24  and  N_25
REMARK   12  A    between atoms: N_25  and  O_28
REMARK   13  A    between atoms: C_26  and  C_30
REMARK   14  A    between atoms: C_31  and  C_32
REMARK   15  A    between atoms: N_34  and  C_36
REMARK   16  A    between atoms: C_37  and  C_38
REMARK   17  A    between atoms: C_38  and  C_39
REMARK   18  A    between atoms: C_40  and  N_41
REMARK   19  A    between atoms: N_41  and  O_45
REMARK                            x       y       z     vdW  Elec       q    Type
REMARK                         _______ _______ _______ _____ _____    ______ ____
ROOT
ATOM      1  C   UNL     1      10.763  15.195 -12.782  0.00  0.00    +0.000 C 
ATOM      2  C   UNL     1      10.697  15.551 -11.636  0.00  0.00    +0.000 C 
ENDROOT
BRANCH   2   3
ATOM      3  N   UNL     1      10.624  15.949 -10.350  0.00  0.00    +0.000 N 
ATOM      4  C   UNL     1      10.121  17.111  -9.792  0.00  0.00    +0.000 C 
ATOM      5  O   UNL     1       9.786  18.106 -10.427  0.00  0.00    +0.000 OA
BRANCH   4   6
ATOM      6  C   UNL     1      10.015  17.167  -8.348  0.00  0.00    +0.000 C 
ATOM      7  C   UNL     1       9.921  17.200  -7.151  0.00  0.00    +0.000 C 
BRANCH   7   8
ATOM      8  C   UNL     1       9.789  17.228  -5.715  0.00  0.00    +0.000 C 
ATOM      9  O   UNL     1      10.798  17.236  -5.026  0.00  0.00    +0.000 OA
ATOM     10  N   UNL     1       8.494  17.245  -5.246  0.00  0.00    +0.000 N 
ATOM     11  H   UNL     1       7.765  17.241  -5.948  0.00  0.00    +0.000 HD
BRANCH  10  12
ATOM     12  C   UNL     1       8.051  17.272  -3.971  0.00  0.00    +0.000 C 
ATOM     13  C   UNL     1       7.663  17.299  -2.836  0.00  0.00    +0.000 C 
BRANCH  13  14
ATOM     14  C   UNL     1       7.172  17.341  -1.385  0.00  0.00    +0.000 C 
BRANCH  14  15
ATOM     15  C   UNL     1       6.674  17.386   0.062  0.00  0.00    +0.000 C 
ATOM     16  C   UNL     1       6.283  17.418   1.197  0.00  0.00    +0.000 C 
BRANCH  16  17
ATOM     17  N   UNL     1       5.846  17.447   2.471  0.00  0.00    +0.000 N 
ATOM     18  C   UNL     1       6.147  16.651   3.550  0.00  0.00    +0.000 C 
ATOM     19  O   UNL     1       6.902  15.698   3.636  0.00  0.00    +0.000 OA
ATOM     20  C   UNL     1       5.484  16.928   4.877  0.00  0.00    +0.000 C 
BRANCH  17  21
ATOM     21  O   UNL     1       4.920  18.511   2.624  0.00  0.00    +0.000 OA
ATOM     22  H   UNL     1       5.332  19.064   3.321  0.00  0.00    +0.000 HD
ENDBRANCH  17  21
ENDBRANCH  16  17
ENDBRANCH  14  15
ENDBRANCH  13  14
ENDBRANCH  10  12
ENDBRANCH   7   8
ENDBRANCH   4   6
BRANCH   3  23
ATOM     23  O   UNL     1      10.760  14.825  -9.503  0.00  0.00    +0.000 OA
ATOM     24  H   UNL     1      10.076  15.004  -8.832  0.00  0.00    +0.000 HD
ENDBRANCH   3  23
ENDBRANCH   2   3
BRANCH   1  25
ATOM     25  C   UNL     1      10.847  14.727 -14.238  0.00  0.00    +0.000 C 
ATOM     26  C   UNL     1      10.910  14.348 -15.374  0.00  0.00    +0.000 C 
BRANCH  26  27
ATOM     27  C   UNL     1      10.987  13.850 -16.821  0.00  0.00    +0.000 C 
BRANCH  27  28
ATOM     28  N   UNL     1      11.045  13.425 -18.102  0.00  0.00    +0.000 N 
ATOM     29  C   UNL     1      11.547  12.247 -18.602  0.00  0.00    +0.000 C 
ATOM     30  O   UNL     1      12.047  11.346 -17.943  0.00  0.00    +0.000 OA
ATOM     31  H   UNL     1      10.655  14.073 -18.774  0.00  0.00    +0.000 HD
BRANCH  29  32
ATOM     32  C   UNL     1      11.455  12.097 -20.034  0.00  0.00    +0.000 C 
ATOM     33  C   UNL     1      11.354  11.970 -21.224  0.00  0.00    +0.000 C 
BRANCH  33  34
ATOM     34  C   UNL     1      11.213  11.827 -22.658  0.00  0.00    +0.000 C 
ATOM     35  O   UNL     1      10.340  12.486 -23.213  0.00  0.00    +0.000 OA
ATOM     36  N   UNL     1      12.050  10.926 -23.295  0.00  0.00    +0.000 N 
BRANCH  36  37
ATOM     37  C   UNL     1      12.249  10.686 -24.608  0.00  0.00    +0.000 C 
ATOM     38  C   UNL     1      12.426  10.470 -25.775  0.00  0.00    +0.000 C 
BRANCH  38  39
ATOM     39  C   UNL     1      12.657  10.188 -27.263  0.00  0.00    +0.000 C 
ATOM     40  C   UNL     1      12.838   9.974 -28.430  0.00  0.00    +0.000 C 
BRANCH  40  41
ATOM     41  C   UNL     1      13.071   9.703 -29.919  0.00  0.00    +0.000 C 
BRANCH  41  42
ATOM     42  N   UNL     1      13.292   9.447 -31.332  0.00  0.00    +0.000 NA
ATOM     43  H   UNL     1      12.668   8.712 -31.662  0.00  0.00    +0.000 HD
ATOM     44  H   UNL     1      13.069  10.274 -31.883  0.00  0.00    +0.000 HD
ENDBRANCH  41  42
ENDBRANCH  40  41
ENDBRANCH  38  39
ENDBRANCH  36  37
BRANCH  36  45
ATOM     45  O   UNL     1      13.134  10.406 -22.553  0.00  0.00    +0.000 OA
ATOM     46  H   UNL     1      12.762  10.389 -21.652  0.00  0.00    +0.000 HD
ENDBRANCH  36  45
ENDBRANCH  33  34
ENDBRANCH  29  32
ENDBRANCH  27  28
ENDBRANCH  26  27
ENDBRANCH   1  25
TORSDOF 19
ENDMDL
MODEL 9
REMARK VINA RESULT:      -4.0     12.503     19.792
REMARK  Name = Deferoxamine.pdbqt.pdb
REMARK  19 active torsions:
REMARK  status: ('A' for Active; 'I' for Inactive)
REMARK    1  A    between atoms: C_1  and  C_2
REMARK    2  A    between atoms: C_3  and  C_4
REMARK    3  A    between atoms: C_4  and  N_5
REMARK    4  A    between atoms: C_6  and  C_9
REMARK    5  A    between atoms: C_10  and  C_11
REMARK    6  A    between atoms: N_13  and  O_14
REMARK    7  A    between atoms: N_13  and  C_16
REMARK    8  A    between atoms: C_17  and  C_18
REMARK    9  A    between atoms: C_19  and  C_20
REMARK   10  A    between atoms: C_20  and  N_21
REMARK   11  A    between atoms: C_24  and  N_25
REMARK   12  A    between atoms: N_25  and  O_28
REMARK   13  A    between atoms: C_26  and  C_30
REMARK   14  A    between atoms: C_31  and  C_32
REMARK   15  A    between atoms: N_34  and  C_36
REMARK   16  A    between atoms: C_37  and  C_38
REMARK   17  A    between atoms: C_38  and  C_39
REMARK   18  A    between atoms: C_40  and  N_41
REMARK   19  A    between atoms: N_41  and  O_45
REMARK                            x       y       z     vdW  Elec       q    Type
REMARK                         _______ _______ _______ _____ _____    ______ ____
ROOT
ATOM      1  C   UNL     1      15.397   7.459  -6.533  0.00  0.00    +0.000 C 
ATOM      2  C   UNL     1      16.066   6.637  -7.099  0.00  0.00    +0.000 C 
ENDROOT
BRANCH   2   3
ATOM      3  N   UNL     1      16.815   5.713  -7.736  0.00  0.00    +0.000 N 
ATOM      4  C   UNL     1      17.928   5.007  -7.314  0.00  0.00    +0.000 C 
ATOM      5  O   UNL     1      18.555   5.236  -6.285  0.00  0.00    +0.000 OA
BRANCH   4   6
ATOM      6  C   UNL     1      18.404   3.940  -8.169  0.00  0.00    +0.000 C 
ATOM      7  C   UNL     1      18.796   3.062  -8.891  0.00  0.00    +0.000 C 
BRANCH   7   8
ATOM      8  C   UNL     1      19.249   2.014  -9.772  0.00  0.00    +0.000 C 
ATOM      9  O   UNL     1      20.202   2.228 -10.507  0.00  0.00    +0.000 OA
ATOM     10  N   UNL     1      18.541   0.836  -9.694  0.00  0.00    +0.000 N 
ATOM     11  H   UNL     1      17.779   0.816  -9.028  0.00  0.00    +0.000 HD
BRANCH  10  12
ATOM     12  C   UNL     1      18.721  -0.312 -10.382  0.00  0.00    +0.000 C 
ATOM     13  C   UNL     1      18.886  -1.334 -10.990  0.00  0.00    +0.000 C 
BRANCH  13  14
ATOM     14  C   UNL     1      19.102  -2.641 -11.759  0.00  0.00    +0.000 C 
BRANCH  14  15
ATOM     15  C   UNL     1      19.317  -3.952 -12.520  0.00  0.00    +0.000 C 
ATOM     16  C   UNL     1      19.488  -4.979 -13.117  0.00  0.00    +0.000 C 
BRANCH  16  17
ATOM     17  N   UNL     1      19.687  -6.132 -13.786  0.00  0.00    +0.000 N 
ATOM     18  C   UNL     1      18.805  -7.097 -14.210  0.00  0.00    +0.000 C 
ATOM     19  O   UNL     1      17.594  -7.160 -14.091  0.00  0.00    +0.000 OA
ATOM     20  C   UNL     1      19.332  -8.304 -14.947  0.00  0.00    +0.000 C 
BRANCH  17  21
ATOM     21  O   UNL     1      21.073  -6.288 -14.048  0.00  0.00    +0.000 OA
ATOM     22  H   UNL     1      21.096  -7.035 -14.682  0.00  0.00    +0.000 HD
ENDBRANCH  17  21
ENDBRANCH  16  17
ENDBRANCH  14  15
ENDBRANCH  13  14
ENDBRANCH  10  12
ENDBRANCH   7   8
ENDBRANCH   4   6
BRANCH   3  23
ATOM     23  O   UNL     1      16.086   5.190  -8.827  0.00  0.00    +0.000 OA
ATOM     24  H   UNL     1      16.500   5.654  -9.578  0.00  0.00    +0.000 HD
ENDBRANCH   3  23
ENDBRANCH   2   3
BRANCH   1  25
ATOM     25  C   UNL     1      14.534   8.495  -5.808  0.00  0.00    +0.000 C 
ATOM     26  C   UNL     1      13.858   9.315  -5.251  0.00  0.00    +0.000 C 
BRANCH  26  27
ATOM     27  C   UNL     1      12.994  10.370  -4.552  0.00  0.00    +0.000 C 
BRANCH  27  28
ATOM     28  N   UNL     1      12.246  11.311  -3.936  0.00  0.00    +0.000 N 
ATOM     29  C   UNL     1      11.571  12.376  -4.484  0.00  0.00    +0.000 C 
ATOM     30  O   UNL     1      11.531  12.663  -5.672  0.00  0.00    +0.000 OA
ATOM     31  H   UNL     1      12.179  11.199  -2.933  0.00  0.00    +0.000 HD
BRANCH  29  32
ATOM     32  C   UNL     1      10.856  13.202  -3.542  0.00  0.00    +0.000 C 
ATOM     33  C   UNL     1      10.280  13.890  -2.743  0.00  0.00    +0.000 C 
BRANCH  33  34
ATOM     34  C   UNL     1       9.605  14.728  -1.774  0.00  0.00    +0.000 C 
ATOM     35  O   UNL     1      10.169  14.926  -0.702  0.00  0.00    +0.000 OA
ATOM     36  N   UNL     1       8.354  15.216  -2.113  0.00  0.00    +0.000 N 
BRANCH  36  37
ATOM     37  C   UNL     1       7.563  16.116  -1.493  0.00  0.00    +0.000 C 
ATOM     38  C   UNL     1       6.859  16.914  -0.940  0.00  0.00    +0.000 C 
BRANCH  38  39
ATOM     39  C   UNL     1       5.954  17.929  -0.232  0.00  0.00    +0.000 C 
ATOM     40  C   UNL     1       5.242  18.720   0.321  0.00  0.00    +0.000 C 
BRANCH  40  41
ATOM     41  C   UNL     1       4.330  19.727   1.026  0.00  0.00    +0.000 C 
BRANCH  41  42
ATOM     42  N   UNL     1       3.463  20.683   1.697  0.00  0.00    +0.000 NA
ATOM     43  H   UNL     1       3.611  20.651   2.704  0.00  0.00    +0.000 HD
ATOM     44  H   UNL     1       3.692  21.633   1.408  0.00  0.00    +0.000 HD
ENDBRANCH  41  42
ENDBRANCH  40  41
ENDBRANCH  38  39
ENDBRANCH  36  37
BRANCH  36  45
ATOM     45  O   UNL     1       7.941  15.072  -3.456  0.00  0.00    +0.000 OA
ATOM     46  H   UNL     1       8.796  15.082  -3.924  0.00  0.00    +0.000 HD
ENDBRANCH  36  45
ENDBRANCH  33  34
ENDBRANCH  29  32
ENDBRANCH  27  28
ENDBRANCH  26  27
ENDBRANCH   1  25
TORSDOF 19
ENDMDL
