MODEL 1
REMARK VINA RESULT:      -6.5      0.000      0.000
REMARK  Name = 
REMARK  25 active torsions:
REMARK  status: ('A' for Active; 'I' for Inactive)
REMARK    1  A    between atoms: O_2  and  C_17
REMARK    2  A    between atoms: O_2  and  C_36
REMARK    3  A    between atoms: O_3  and  C_20
REMARK    4  A    between atoms: O_3  and  C_37
REMARK    5  A    between atoms: O_4  and  C_21
REMARK    6  A    between atoms: O_5  and  C_22
REMARK    7  A    between atoms: O_7  and  C_30
REMARK    8  A    between atoms: O_8  and  C_31
REMARK    9  A    between atoms: O_8  and  C_39
REMARK   10  A    between atoms: O_12  and  C_41
REMARK   11  A    between atoms: O_13  and  C_51
REMARK   12  A    between atoms: O_13  and  C_55
REMARK   13  A    between atoms: N_15  and  C_44
REMARK   14  A    between atoms: C_18  and  C_29
REMARK   15  A    between atoms: C_24  and  C_33
REMARK   16  A    between atoms: C_24  and  C_34
REMARK   17  A    between atoms: C_32  and  C_35
REMARK   18  A    between atoms: C_36  and  C_38
REMARK   19  A    between atoms: C_37  and  C_40
REMARK   20  A    between atoms: C_39  and  C_41
REMARK   21  A    between atoms: C_41  and  C_44
REMARK   22  A    between atoms: C_44  and  C_48
REMARK   23  A    between atoms: C_55  and  C_56
REMARK   24  A    between atoms: C_55  and  C_57
REMARK   25  A    between atoms: C_55  and  C_58
REMARK                            x       y       z     vdW  Elec       q    Type
REMARK                         _______ _______ _______ _____ _____    ______ ____
ROOT
ATOM      1  O   UNL     1       4.108  -2.732 -23.148  0.00  0.00    +0.000 OA
ATOM      2  O   UNL     1       5.343   1.907 -18.446  0.00  0.00    +0.000 OA
ATOM      3  C   UNL     1       6.573  -0.866 -21.632  0.00  0.00    +0.000 C 
ATOM      4  C   UNL     1       5.840  -2.187 -22.011  0.00  0.00    +0.000 C 
ATOM      5  C   UNL     1       5.753  -0.212 -20.051  0.00  0.00    +0.000 C 
ATOM      6  C   UNL     1       4.443  -1.542 -22.384  0.00  0.00    +0.000 C 
ATOM      7  C   UNL     1       8.423  -1.017 -21.800  0.00  0.00    +0.000 C 
ATOM      8  C   UNL     1      10.019  -0.031 -21.538  0.00  0.00    +0.000 C 
ATOM      9  C   UNL     1       4.249   0.041 -20.483  0.00  0.00    +0.000 C 
ATOM     10  C   UNL     1       3.557  -1.145 -21.222  0.00  0.00    +0.000 C 
ATOM     11  C   UNL     1      10.244   1.502 -20.672  0.00  0.00    +0.000 C 
ATOM     12  C   UNL     1       5.561  -2.836 -23.425  0.00  0.00    +0.000 C 
ATOM     13  C   UNL     1       6.261   1.272 -19.010  0.00  0.00    +0.000 C 
ATOM     14  C   UNL     1      10.967  -0.984 -20.673  0.00  0.00    +0.000 C 
ATOM     15  C   UNL     1       9.653   1.432 -19.186  0.00  0.00    +0.000 C 
ATOM     16  C   UNL     1       5.625  -1.328 -18.931  0.00  0.00    +0.000 C 
ATOM     17  C   UNL     1       8.023   1.958 -18.681  0.00  0.00    +0.000 C 
ATOM     18  C   UNL     1      11.000  -0.769 -19.091  0.00  0.00    +0.000 C 
ATOM     19  C   UNL     1      10.280   0.464 -18.437  0.00  0.00    +0.000 C 
ATOM     20  C   UNL     1      11.832   1.736 -20.531  0.00  0.00    +0.000 C 
ATOM     21  C   UNL     1       9.976   2.848 -21.417  0.00  0.00    +0.000 C 
ATOM     22  C   UNL     1      10.098   0.352 -16.944  0.00  0.00    +0.000 C 
ENDROOT
BRANCH  17  23
ATOM     23  O   UNL     1       8.073   3.384 -18.716  0.00  0.00    +0.000 OA
ATOM     24  H   UNL     1       7.140   3.669 -18.702  0.00  0.00    +0.000 HD
ENDBRANCH  17  23
BRANCH   9  25
ATOM     25  O   UNL     1       4.212   1.159 -21.372  0.00  0.00    +0.000 OA
ATOM     26  H   UNL     1       4.077   0.805 -22.270  0.00  0.00    +0.000 HD
ENDBRANCH   9  25
BRANCH   8  27
ATOM     27  O   UNL     1      10.610   0.059 -22.849  0.00  0.00    +0.000 OA
ATOM     28  H   UNL     1      10.472   0.956 -23.201  0.00  0.00    +0.000 HD
ENDBRANCH   8  27
BRANCH  18  29
ATOM     29  O   UNL     1      10.434  -1.961 -18.473  0.00  0.00    +0.000 OA
BRANCH  29  31
ATOM     30  O   UNL     1      12.336  -2.742 -17.540  0.00  0.00    +0.000 OA
ATOM     31  C   UNL     1      11.285  -2.961 -18.132  0.00  0.00    +0.000 C 
BRANCH  31  32
ATOM     32  C   UNL     1      10.919  -4.344 -18.681  0.00  0.00    +0.000 C 
BRANCH  32  33
ATOM     33  O   UNL     1      10.157  -5.176 -17.798  0.00  0.00    +0.000 OA
ATOM     34  H   UNL     1      10.148  -6.063 -18.203  0.00  0.00    +0.000 HD
ENDBRANCH  32  33
BRANCH  32  35
ATOM     35  C   UNL     1      12.222  -5.049 -19.144  0.00  0.00    +0.000 C 
BRANCH  35  36
ATOM     36  C   UNL     1      12.036  -5.840 -20.434  0.00  0.00    +0.000 A 
ATOM     37  C   UNL     1      13.148  -6.114 -21.246  0.00  0.00    +0.000 A 
ATOM     38  C   UNL     1      10.782  -6.342 -20.824  0.00  0.00    +0.000 A 
ATOM     39  C   UNL     1      13.008  -6.845 -22.428  0.00  0.00    +0.000 A 
ATOM     40  C   UNL     1      10.645  -7.072 -22.006  0.00  0.00    +0.000 A 
ATOM     41  C   UNL     1      11.756  -7.321 -22.808  0.00  0.00    +0.000 A 
ENDBRANCH  35  36
BRANCH  35  43
ATOM     42  O   UNL     1      14.765  -4.931 -17.811  0.00  0.00    +0.000 OA
ATOM     43  N   UNL     1      12.738  -5.943 -18.116  0.00  0.00    +0.000 N 
ATOM     44  C   UNL     1      14.000  -5.863 -17.625  0.00  0.00    +0.000 C 
ATOM     45  H   UNL     1      12.261  -6.825 -17.981  0.00  0.00    +0.000 HD
BRANCH  44  46
ATOM     46  O   UNL     1      14.245  -6.964 -16.882  0.00  0.00    +0.000 OA
BRANCH  46  47
ATOM     47  C   UNL     1      15.114  -8.014 -17.379  0.00  0.00    +0.000 C 
ATOM     48  C   UNL     1      16.308  -8.241 -16.446  0.00  0.00    +0.000 C 
ATOM     49  C   UNL     1      14.239  -9.277 -17.374  0.00  0.00    +0.000 C 
ATOM     50  C   UNL     1      15.558  -7.732 -18.819  0.00  0.00    +0.000 C 
ENDBRANCH  46  47
ENDBRANCH  44  46
ENDBRANCH  35  43
ENDBRANCH  32  35
ENDBRANCH  31  32
ENDBRANCH  29  31
ENDBRANCH  18  29
BRANCH   7  51
ATOM     51  O   UNL     1       8.427  -1.321 -20.519  0.00  0.00    +0.000 OA
BRANCH  51  53
ATOM     52  O   UNL     1       8.313  -3.166 -19.735  0.00  0.00    +0.000 OA
ATOM     53  C   UNL     1       8.597  -2.652 -20.812  0.00  0.00    +0.000 C 
BRANCH  53  54
ATOM     54  C   UNL     1       9.396  -3.302 -22.427  0.00  0.00    +0.000 A 
ATOM     55  C   UNL     1      10.824  -3.256 -22.744  0.00  0.00    +0.000 A 
ATOM     56  C   UNL     1       8.761  -4.032 -23.479  0.00  0.00    +0.000 A 
ATOM     57  C   UNL     1      11.472  -3.818 -23.873  0.00  0.00    +0.000 A 
ATOM     58  C   UNL     1       9.395  -4.604 -24.620  0.00  0.00    +0.000 A 
ATOM     59  C   UNL     1      10.750  -4.499 -24.820  0.00  0.00    +0.000 A 
ENDBRANCH  53  54
ENDBRANCH  51  53
ENDBRANCH   7  51
BRANCH   4  60
ATOM     60  O   UNL     1       5.788  -3.125 -20.910  0.00  0.00    +0.000 OA
BRANCH  60  62
ATOM     61  O   UNL     1       6.296  -5.229 -21.474  0.00  0.00    +0.000 OA
ATOM     62  C   UNL     1       5.467  -4.433 -21.040  0.00  0.00    +0.000 C 
ATOM     63  C   UNL     1       4.062  -4.867 -20.762  0.00  0.00    +0.000 C 
ENDBRANCH  60  62
ENDBRANCH   4  60
TORSDOF 17
ENDMDL
MODEL 2
REMARK VINA RESULT:      -6.3     11.687     17.103
REMARK  Name = 
REMARK  25 active torsions:
REMARK  status: ('A' for Active; 'I' for Inactive)
REMARK    1  A    between atoms: O_2  and  C_17
REMARK    2  A    between atoms: O_2  and  C_36
REMARK    3  A    between atoms: O_3  and  C_20
REMARK    4  A    between atoms: O_3  and  C_37
REMARK    5  A    between atoms: O_4  and  C_21
REMARK    6  A    between atoms: O_5  and  C_22
REMARK    7  A    between atoms: O_7  and  C_30
REMARK    8  A    between atoms: O_8  and  C_31
REMARK    9  A    between atoms: O_8  and  C_39
REMARK   10  A    between atoms: O_12  and  C_41
REMARK   11  A    between atoms: O_13  and  C_51
REMARK   12  A    between atoms: O_13  and  C_55
REMARK   13  A    between atoms: N_15  and  C_44
REMARK   14  A    between atoms: C_18  and  C_29
REMARK   15  A    between atoms: C_24  and  C_33
REMARK   16  A    between atoms: C_24  and  C_34
REMARK   17  A    between atoms: C_32  and  C_35
REMARK   18  A    between atoms: C_36  and  C_38
REMARK   19  A    between atoms: C_37  and  C_40
REMARK   20  A    between atoms: C_39  and  C_41
REMARK   21  A    between atoms: C_41  and  C_44
REMARK   22  A    between atoms: C_44  and  C_48
REMARK   23  A    between atoms: C_55  and  C_56
REMARK   24  A    between atoms: C_55  and  C_57
REMARK   25  A    between atoms: C_55  and  C_58
REMARK                            x       y       z     vdW  Elec       q    Type
REMARK                         _______ _______ _______ _____ _____    ______ ____
ROOT
ATOM      1  O   UNL     1     -13.238  -3.351 -22.643  0.00  0.00    +0.000 OA
ATOM      2  O   UNL     1     -10.068   1.756 -25.648  0.00  0.00    +0.000 OA
ATOM      3  C   UNL     1     -10.506  -2.481 -24.550  0.00  0.00    +0.000 C 
ATOM      4  C   UNL     1     -11.217  -3.013 -23.271  0.00  0.00    +0.000 C 
ATOM      5  C   UNL     1     -10.407  -0.593 -24.385  0.00  0.00    +0.000 C 
ATOM      6  C   UNL     1     -12.645  -2.394 -23.563  0.00  0.00    +0.000 C 
ATOM      7  C   UNL     1      -9.025  -3.515 -25.011  0.00  0.00    +0.000 C 
ATOM      8  C   UNL     1      -7.622  -3.610 -26.280  0.00  0.00    +0.000 C 
ATOM      9  C   UNL     1     -11.924  -0.141 -24.312  0.00  0.00    +0.000 C 
ATOM     10  C   UNL     1     -12.805  -0.915 -23.283  0.00  0.00    +0.000 C 
ATOM     11  C   UNL     1      -7.095  -2.376 -27.443  0.00  0.00    +0.000 C 
ATOM     12  C   UNL     1     -12.154  -4.270 -23.066  0.00  0.00    +0.000 C 
ATOM     13  C   UNL     1      -9.544   0.627 -25.529  0.00  0.00    +0.000 C 
ATOM     14  C   UNL     1      -6.285  -3.773 -25.419  0.00  0.00    +0.000 C 
ATOM     15  C   UNL     1      -6.795  -0.978 -26.724  0.00  0.00    +0.000 C 
ATOM     16  C   UNL     1      -9.826  -0.140 -22.980  0.00  0.00    +0.000 C 
ATOM     17  C   UNL     1      -7.942   0.381 -26.555  0.00  0.00    +0.000 C 
ATOM     18  C   UNL     1      -5.431  -2.460 -25.108  0.00  0.00    +0.000 C 
ATOM     19  C   UNL     1      -5.789  -1.093 -25.794  0.00  0.00    +0.000 C 
ATOM     20  C   UNL     1      -5.702  -2.885 -28.072  0.00  0.00    +0.000 C 
ATOM     21  C   UNL     1      -7.828  -2.259 -28.817  0.00  0.00    +0.000 C 
ATOM     22  C   UNL     1      -5.137   0.108 -25.154  0.00  0.00    +0.000 C 
ENDROOT
BRANCH  17  23
ATOM     23  O   UNL     1      -8.034   0.944 -27.864  0.00  0.00    +0.000 OA
ATOM     24  H   UNL     1      -7.900   1.902 -27.736  0.00  0.00    +0.000 HD
ENDBRANCH  17  23
BRANCH   9  25
ATOM     25  O   UNL     1     -12.520  -0.338 -25.595  0.00  0.00    +0.000 OA
ATOM     26  H   UNL     1     -12.957  -1.209 -25.576  0.00  0.00    +0.000 HD
ENDBRANCH   9  25
BRANCH   8  27
ATOM     27  O   UNL     1      -7.831  -4.863 -26.960  0.00  0.00    +0.000 OA
ATOM     28  H   UNL     1      -8.750  -5.152 -26.820  0.00  0.00    +0.000 HD
ENDBRANCH   8  27
BRANCH  18  29
ATOM     29  O   UNL     1      -5.482  -2.233 -23.669  0.00  0.00    +0.000 OA
BRANCH  29  31
ATOM     30  O   UNL     1      -4.185  -3.808 -22.701  0.00  0.00    +0.000 OA
ATOM     31  C   UNL     1      -4.414  -2.625 -22.930  0.00  0.00    +0.000 C 
BRANCH  31  32
ATOM     32  C   UNL     1      -3.622  -1.488 -22.275  0.00  0.00    +0.000 C 
BRANCH  32  33
ATOM     33  O   UNL     1      -2.736  -0.774 -23.144  0.00  0.00    +0.000 OA
ATOM     34  H   UNL     1      -3.294  -0.405 -23.855  0.00  0.00    +0.000 HD
ENDBRANCH  32  33
BRANCH  32  35
ATOM     35  C   UNL     1      -2.872  -2.060 -21.042  0.00  0.00    +0.000 C 
BRANCH  35  36
ATOM     36  C   UNL     1      -3.234  -1.338 -19.748  0.00  0.00    +0.000 A 
ATOM     37  C   UNL     1      -3.605   0.016 -19.790  0.00  0.00    +0.000 A 
ATOM     38  C   UNL     1      -3.244  -1.998 -18.508  0.00  0.00    +0.000 A 
ATOM     39  C   UNL     1      -3.952   0.697 -18.621  0.00  0.00    +0.000 A 
ATOM     40  C   UNL     1      -3.591  -1.313 -17.341  0.00  0.00    +0.000 A 
ATOM     41  C   UNL     1      -3.941   0.034 -17.398  0.00  0.00    +0.000 A 
ENDBRANCH  35  36
BRANCH  35  43
ATOM     42  O   UNL     1      -0.904  -3.965 -20.175  0.00  0.00    +0.000 OA
ATOM     43  N   UNL     1      -1.428  -2.002 -21.223  0.00  0.00    +0.000 N 
ATOM     44  C   UNL     1      -0.573  -2.906 -20.680  0.00  0.00    +0.000 C 
ATOM     45  H   UNL     1      -1.026  -1.116 -21.498  0.00  0.00    +0.000 HD
BRANCH  44  46
ATOM     46  O   UNL     1       0.688  -2.445 -20.821  0.00  0.00    +0.000 OA
BRANCH  46  47
ATOM     47  C   UNL     1       1.386  -1.842 -19.702  0.00  0.00    +0.000 C 
ATOM     48  C   UNL     1       2.109  -2.897 -18.858  0.00  0.00    +0.000 C 
ATOM     49  C   UNL     1       2.437  -0.925 -20.346  0.00  0.00    +0.000 C 
ATOM     50  C   UNL     1       0.440  -0.983 -18.856  0.00  0.00    +0.000 C 
ENDBRANCH  46  47
ENDBRANCH  44  46
ENDBRANCH  35  43
ENDBRANCH  32  35
ENDBRANCH  31  32
ENDBRANCH  29  31
ENDBRANCH  18  29
BRANCH   7  51
ATOM     51  O   UNL     1      -8.314  -2.647 -24.322  0.00  0.00    +0.000 OA
BRANCH  51  53
ATOM     52  O   UNL     1      -8.587  -4.577 -23.843  0.00  0.00    +0.000 OA
ATOM     53  C   UNL     1      -8.094  -3.576 -23.335  0.00  0.00    +0.000 C 
BRANCH  53  54
ATOM     54  C   UNL     1      -7.474  -3.145 -21.574  0.00  0.00    +0.000 A 
ATOM     55  C   UNL     1      -7.467  -1.806 -20.983  0.00  0.00    +0.000 A 
ATOM     56  C   UNL     1      -7.065  -4.053 -20.550  0.00  0.00    +0.000 A 
ATOM     57  C   UNL     1      -7.119  -1.456 -19.653  0.00  0.00    +0.000 A 
ATOM     58  C   UNL     1      -6.712  -3.721 -19.209  0.00  0.00    +0.000 A 
ATOM     59  C   UNL     1      -6.739  -2.423 -18.759  0.00  0.00    +0.000 A 
ENDBRANCH  53  54
ENDBRANCH  51  53
ENDBRANCH   7  51
BRANCH   4  60
ATOM     60  O   UNL     1     -10.598  -2.532 -22.055  0.00  0.00    +0.000 OA
BRANCH  60  62
ATOM     61  O   UNL     1     -11.672  -1.941 -20.183  0.00  0.00    +0.000 OA
ATOM     62  C   UNL     1     -11.057  -2.801 -20.810  0.00  0.00    +0.000 C 
ATOM     63  C   UNL     1     -10.704  -4.108 -20.173  0.00  0.00    +0.000 C 
ENDBRANCH  60  62
ENDBRANCH   4  60
TORSDOF 17
ENDMDL
MODEL 3
REMARK VINA RESULT:      -6.3     13.021     18.914
REMARK  Name = 
REMARK  25 active torsions:
REMARK  status: ('A' for Active; 'I' for Inactive)
REMARK    1  A    between atoms: O_2  and  C_17
REMARK    2  A    between atoms: O_2  and  C_36
REMARK    3  A    between atoms: O_3  and  C_20
REMARK    4  A    between atoms: O_3  and  C_37
REMARK    5  A    between atoms: O_4  and  C_21
REMARK    6  A    between atoms: O_5  and  C_22
REMARK    7  A    between atoms: O_7  and  C_30
REMARK    8  A    between atoms: O_8  and  C_31
REMARK    9  A    between atoms: O_8  and  C_39
REMARK   10  A    between atoms: O_12  and  C_41
REMARK   11  A    between atoms: O_13  and  C_51
REMARK   12  A    between atoms: O_13  and  C_55
REMARK   13  A    between atoms: N_15  and  C_44
REMARK   14  A    between atoms: C_18  and  C_29
REMARK   15  A    between atoms: C_24  and  C_33
REMARK   16  A    between atoms: C_24  and  C_34
REMARK   17  A    between atoms: C_32  and  C_35
REMARK   18  A    between atoms: C_36  and  C_38
REMARK   19  A    between atoms: C_37  and  C_40
REMARK   20  A    between atoms: C_39  and  C_41
REMARK   21  A    between atoms: C_41  and  C_44
REMARK   22  A    between atoms: C_44  and  C_48
REMARK   23  A    between atoms: C_55  and  C_56
REMARK   24  A    between atoms: C_55  and  C_57
REMARK   25  A    between atoms: C_55  and  C_58
REMARK                            x       y       z     vdW  Elec       q    Type
REMARK                         _______ _______ _______ _____ _____    ______ ____
ROOT
ATOM      1  O   UNL     1     -14.500   2.003 -23.312  0.00  0.00    +0.000 OA
ATOM      2  O   UNL     1     -11.787  -3.918 -24.964  0.00  0.00    +0.000 OA
ATOM      3  C   UNL     1     -12.158  -0.355 -22.412  0.00  0.00    +0.000 C 
ATOM      4  C   UNL     1     -12.628   1.052 -22.888  0.00  0.00    +0.000 C 
ATOM      5  C   UNL     1     -11.960  -1.428 -23.964  0.00  0.00    +0.000 C 
ATOM      6  C   UNL     1     -14.062   0.620 -23.404  0.00  0.00    +0.000 C 
ATOM      7  C   UNL     1     -10.833  -0.246 -21.105  0.00  0.00    +0.000 C 
ATOM      8  C   UNL     1      -9.705  -1.339 -20.045  0.00  0.00    +0.000 C 
ATOM      9  C   UNL     1     -13.418  -1.463 -24.586  0.00  0.00    +0.000 C 
ATOM     10  C   UNL     1     -14.110  -0.075 -24.747  0.00  0.00    +0.000 C 
ATOM     11  C   UNL     1      -9.369  -3.074 -20.213  0.00  0.00    +0.000 C 
ATOM     12  C   UNL     1     -13.553   2.119 -22.178  0.00  0.00    +0.000 C 
ATOM     13  C   UNL     1     -11.291  -3.183 -24.082  0.00  0.00    +0.000 C 
ATOM     14  C   UNL     1      -8.235  -0.747 -20.246  0.00  0.00    +0.000 C 
ATOM     15  C   UNL     1      -8.885  -3.440 -21.694  0.00  0.00    +0.000 C 
ATOM     16  C   UNL     1     -11.103  -0.710 -25.089  0.00  0.00    +0.000 C 
ATOM     17  C   UNL     1      -9.927  -4.019 -23.023  0.00  0.00    +0.000 C 
ATOM     18  C   UNL     1      -7.290  -1.443 -21.329  0.00  0.00    +0.000 C 
ATOM     19  C   UNL     1      -7.723  -2.783 -22.023  0.00  0.00    +0.000 C 
ATOM     20  C   UNL     1      -8.143  -3.414 -19.225  0.00  0.00    +0.000 C 
ATOM     21  C   UNL     1     -10.349  -4.108 -19.572  0.00  0.00    +0.000 C 
ATOM     22  C   UNL     1      -6.916  -3.132 -23.250  0.00  0.00    +0.000 C 
ENDROOT
BRANCH  17  23
ATOM     23  O   UNL     1     -10.250  -5.366 -22.673  0.00  0.00    +0.000 OA
ATOM     24  H   UNL     1      -9.537  -5.905 -23.065  0.00  0.00    +0.000 HD
ENDBRANCH  17  23
BRANCH   9  25
ATOM     25  O   UNL     1     -14.257  -2.247 -23.737  0.00  0.00    +0.000 OA
ATOM     26  H   UNL     1     -14.487  -1.690 -22.971  0.00  0.00    +0.000 HD
ENDBRANCH   9  25
BRANCH   8  27
ATOM     27  O   UNL     1     -10.088  -1.045 -18.687  0.00  0.00    +0.000 OA
ATOM     28  H   UNL     1      -9.672  -1.694 -18.092  0.00  0.00    +0.000 HD
ENDBRANCH   8  27
BRANCH  18  29
ATOM     29  O   UNL     1      -7.053  -0.476 -22.392  0.00  0.00    +0.000 OA
BRANCH  29  31
ATOM     30  O   UNL     1      -5.031  -0.025 -23.292  0.00  0.00    +0.000 OA
ATOM     31  C   UNL     1      -5.858   0.167 -22.408  0.00  0.00    +0.000 C 
BRANCH  31  32
ATOM     32  C   UNL     1      -5.557   1.013 -21.165  0.00  0.00    +0.000 C 
BRANCH  32  33
ATOM     33  O   UNL     1      -5.719   2.426 -21.329  0.00  0.00    +0.000 OA
ATOM     34  H   UNL     1      -4.826   2.783 -21.492  0.00  0.00    +0.000 HD
ENDBRANCH  32  33
BRANCH  32  35
ATOM     35  C   UNL     1      -4.133   0.657 -20.663  0.00  0.00    +0.000 C 
BRANCH  35  36
ATOM     36  C   UNL     1      -4.146  -0.064 -19.319  0.00  0.00    +0.000 A 
ATOM     37  C   UNL     1      -3.795   0.636 -18.154  0.00  0.00    +0.000 A 
ATOM     38  C   UNL     1      -4.539  -1.408 -19.201  0.00  0.00    +0.000 A 
ATOM     39  C   UNL     1      -3.810   0.003 -16.909  0.00  0.00    +0.000 A 
ATOM     40  C   UNL     1      -4.552  -2.038 -17.955  0.00  0.00    +0.000 A 
ATOM     41  C   UNL     1      -4.185  -1.334 -16.810  0.00  0.00    +0.000 A 
ENDBRANCH  35  36
BRANCH  35  43
ATOM     42  O   UNL     1      -2.240   1.676 -22.570  0.00  0.00    +0.000 OA
ATOM     43  N   UNL     1      -3.296   1.844 -20.550  0.00  0.00    +0.000 N 
ATOM     44  C   UNL     1      -2.354   2.181 -21.466  0.00  0.00    +0.000 C 
ATOM     45  H   UNL     1      -3.198   2.262 -19.634  0.00  0.00    +0.000 HD
BRANCH  44  46
ATOM     46  O   UNL     1      -1.595   3.176 -20.959  0.00  0.00    +0.000 OA
BRANCH  46  47
ATOM     47  C   UNL     1      -0.188   2.965 -20.674  0.00  0.00    +0.000 C 
ATOM     48  C   UNL     1       0.672   3.163 -21.926  0.00  0.00    +0.000 C 
ATOM     49  C   UNL     1       0.170   4.056 -19.654  0.00  0.00    +0.000 C 
ATOM     50  C   UNL     1       0.046   1.594 -20.029  0.00  0.00    +0.000 C 
ENDBRANCH  46  47
ENDBRANCH  44  46
ENDBRANCH  35  43
ENDBRANCH  32  35
ENDBRANCH  31  32
ENDBRANCH  29  31
ENDBRANCH  18  29
BRANCH   7  51
ATOM     51  O   UNL     1      -9.972  -0.355 -22.095  0.00  0.00    +0.000 OA
BRANCH  51  53
ATOM     52  O   UNL     1     -10.185   1.252 -20.911  0.00  0.00    +0.000 OA
ATOM     53  C   UNL     1      -9.610   0.963 -21.956  0.00  0.00    +0.000 C 
BRANCH  53  54
ATOM     54  C   UNL     1      -8.723   1.982 -23.314  0.00  0.00    +0.000 A 
ATOM     55  C   UNL     1      -8.431   1.514 -24.669  0.00  0.00    +0.000 A 
ATOM     56  C   UNL     1      -8.345   3.359 -23.260  0.00  0.00    +0.000 A 
ATOM     57  C   UNL     1      -7.876   2.265 -25.737  0.00  0.00    +0.000 A 
ATOM     58  C   UNL     1      -7.786   4.130 -24.320  0.00  0.00    +0.000 A 
ATOM     59  C   UNL     1      -7.551   3.585 -25.560  0.00  0.00    +0.000 A 
ENDBRANCH  53  54
ENDBRANCH  51  53
ENDBRANCH   7  51
BRANCH   4  60
ATOM     60  O   UNL     1     -11.768   1.603 -23.913  0.00  0.00    +0.000 OA
BRANCH  60  62
ATOM     61  O   UNL     1     -11.687   3.818 -23.612  0.00  0.00    +0.000 OA
ATOM     62  C   UNL     1     -11.855   2.872 -24.377  0.00  0.00    +0.000 C 
ATOM     63  C   UNL     1     -12.272   3.099 -25.796  0.00  0.00    +0.000 C 
ENDBRANCH  60  62
ENDBRANCH   4  60
TORSDOF 17
ENDMDL
MODEL 4
REMARK VINA RESULT:      -6.0     13.738     18.328
REMARK  Name = 
REMARK  25 active torsions:
REMARK  status: ('A' for Active; 'I' for Inactive)
REMARK    1  A    between atoms: O_2  and  C_17
REMARK    2  A    between atoms: O_2  and  C_36
REMARK    3  A    between atoms: O_3  and  C_20
REMARK    4  A    between atoms: O_3  and  C_37
REMARK    5  A    between atoms: O_4  and  C_21
REMARK    6  A    between atoms: O_5  and  C_22
REMARK    7  A    between atoms: O_7  and  C_30
REMARK    8  A    between atoms: O_8  and  C_31
REMARK    9  A    between atoms: O_8  and  C_39
REMARK   10  A    between atoms: O_12  and  C_41
REMARK   11  A    between atoms: O_13  and  C_51
REMARK   12  A    between atoms: O_13  and  C_55
REMARK   13  A    between atoms: N_15  and  C_44
REMARK   14  A    between atoms: C_18  and  C_29
REMARK   15  A    between atoms: C_24  and  C_33
REMARK   16  A    between atoms: C_24  and  C_34
REMARK   17  A    between atoms: C_32  and  C_35
REMARK   18  A    between atoms: C_36  and  C_38
REMARK   19  A    between atoms: C_37  and  C_40
REMARK   20  A    between atoms: C_39  and  C_41
REMARK   21  A    between atoms: C_41  and  C_44
REMARK   22  A    between atoms: C_44  and  C_48
REMARK   23  A    between atoms: C_55  and  C_56
REMARK   24  A    between atoms: C_55  and  C_57
REMARK   25  A    between atoms: C_55  and  C_58
REMARK                            x       y       z     vdW  Elec       q    Type
REMARK                         _______ _______ _______ _____ _____    ______ ____
ROOT
ATOM      1  O   UNL     1      14.239  17.989 -13.299  0.00  0.00    +0.000 OA
ATOM      2  O   UNL     1      10.412  12.586 -12.153  0.00  0.00    +0.000 OA
ATOM      3  C   UNL     1      13.895  14.618 -13.910  0.00  0.00    +0.000 C 
ATOM      4  C   UNL     1      13.955  16.122 -14.310  0.00  0.00    +0.000 C 
ATOM      5  C   UNL     1      12.096  14.242 -13.438  0.00  0.00    +0.000 C 
ATOM      6  C   UNL     1      13.662  16.724 -12.875  0.00  0.00    +0.000 C 
ATOM      7  C   UNL     1      14.858  13.540 -15.086  0.00  0.00    +0.000 C 
ATOM      8  C   UNL     1      15.289  11.725 -15.416  0.00  0.00    +0.000 C 
ATOM      9  C   UNL     1      11.822  15.201 -12.205  0.00  0.00    +0.000 C 
ATOM     10  C   UNL     1      12.220  16.694 -12.418  0.00  0.00    +0.000 C 
ATOM     11  C   UNL     1      14.563  10.268 -14.708  0.00  0.00    +0.000 C 
ATOM     12  C   UNL     1      15.125  17.176 -14.165  0.00  0.00    +0.000 C 
ATOM     13  C   UNL     1      11.338  12.578 -12.993  0.00  0.00    +0.000 C 
ATOM     14  C   UNL     1      14.953  11.485 -16.960  0.00  0.00    +0.000 C 
ATOM     15  C   UNL     1      12.971  10.263 -14.873  0.00  0.00    +0.000 C 
ATOM     16  C   UNL     1      11.066  14.753 -14.531  0.00  0.00    +0.000 C 
ATOM     17  C   UNL     1      11.791  10.838 -13.663  0.00  0.00    +0.000 C 
ATOM     18  C   UNL     1      13.538  10.841 -17.325  0.00  0.00    +0.000 C 
ATOM     19  C   UNL     1      12.600  10.281 -16.197  0.00  0.00    +0.000 C 
ATOM     20  C   UNL     1      15.122   9.009 -15.543  0.00  0.00    +0.000 C 
ATOM     21  C   UNL     1      15.077   9.751 -13.327  0.00  0.00    +0.000 C 
ATOM     22  C   UNL     1      11.180  10.030 -16.643  0.00  0.00    +0.000 C 
ENDROOT
BRANCH  17  23
ATOM     23  O   UNL     1      11.802   9.840 -12.641  0.00  0.00    +0.000 OA
ATOM     24  H   UNL     1      12.349  10.218 -11.927  0.00  0.00    +0.000 HD
ENDBRANCH  17  23
BRANCH   9  25
ATOM     25  O   UNL     1      12.572  14.729 -11.085  0.00  0.00    +0.000 OA
ATOM     26  H   UNL     1      13.142  15.464 -10.794  0.00  0.00    +0.000 HD
ENDBRANCH   9  25
BRANCH   8  27
ATOM     27  O   UNL     1      16.724  11.664 -15.292  0.00  0.00    +0.000 OA
ATOM     28  H   UNL     1      17.109  11.424 -16.153  0.00  0.00    +0.000 HD
ENDBRANCH   8  27
BRANCH  18  29
ATOM     29  O   UNL     1      12.771  11.846 -18.049  0.00  0.00    +0.000 OA
BRANCH  29  31
ATOM     30  O   UNL     1      13.753  11.811 -20.082  0.00  0.00    +0.000 OA
ATOM     31  C   UNL     1      12.734  11.759 -19.402  0.00  0.00    +0.000 C 
BRANCH  31  32
ATOM     32  C   UNL     1      11.329  11.759 -20.017  0.00  0.00    +0.000 C 
BRANCH  32  33
ATOM     33  O   UNL     1      10.634  10.508 -19.962  0.00  0.00    +0.000 OA
ATOM     34  H   UNL     1       9.864  10.602 -20.554  0.00  0.00    +0.000 HD
ENDBRANCH  32  33
BRANCH  32  35
ATOM     35  C   UNL     1      11.430  12.292 -21.471  0.00  0.00    +0.000 C 
BRANCH  35  36
ATOM     36  C   UNL     1      10.273  13.213 -21.840  0.00  0.00    +0.000 A 
ATOM     37  C   UNL     1       9.106  13.208 -21.059  0.00  0.00    +0.000 A 
ATOM     38  C   UNL     1      10.349  14.104 -22.924  0.00  0.00    +0.000 A 
ATOM     39  C   UNL     1       8.035  14.050 -21.368  0.00  0.00    +0.000 A 
ATOM     40  C   UNL     1       9.277  14.944 -23.231  0.00  0.00    +0.000 A 
ATOM     41  C   UNL     1       8.120  14.915 -22.456  0.00  0.00    +0.000 A 
ENDBRANCH  35  36
BRANCH  35  43
ATOM     42  O   UNL     1      13.499  11.729 -23.384  0.00  0.00    +0.000 OA
ATOM     43  N   UNL     1      11.487  11.202 -22.435  0.00  0.00    +0.000 N 
ATOM     44  C   UNL     1      12.463  11.085 -23.371  0.00  0.00    +0.000 C 
ATOM     45  H   UNL     1      10.633  10.691 -22.615  0.00  0.00    +0.000 HD
BRANCH  44  46
ATOM     46  O   UNL     1      12.104  10.128 -24.252  0.00  0.00    +0.000 OA
BRANCH  46  47
ATOM     47  C   UNL     1      11.809  10.464 -25.633  0.00  0.00    +0.000 C 
ATOM     48  C   UNL     1      13.068  10.407 -26.504  0.00  0.00    +0.000 C 
ATOM     49  C   UNL     1      10.838   9.370 -26.101  0.00  0.00    +0.000 C 
ATOM     50  C   UNL     1      11.104  11.822 -25.734  0.00  0.00    +0.000 C 
ENDBRANCH  46  47
ENDBRANCH  44  46
ENDBRANCH  35  43
ENDBRANCH  32  35
ENDBRANCH  31  32
ENDBRANCH  29  31
ENDBRANCH  18  29
BRANCH   7  51
ATOM     51  O   UNL     1      13.716  13.360 -15.717  0.00  0.00    +0.000 OA
BRANCH  51  53
ATOM     52  O   UNL     1      15.301  14.370 -16.424  0.00  0.00    +0.000 OA
ATOM     53  C   UNL     1      14.142  14.148 -16.759  0.00  0.00    +0.000 C 
BRANCH  53  54
ATOM     54  C   UNL     1      12.982  14.870 -18.102  0.00  0.00    +0.000 A 
ATOM     55  C   UNL     1      11.533  15.032 -17.972  0.00  0.00    +0.000 A 
ATOM     56  C   UNL     1      13.357  15.469 -19.344  0.00  0.00    +0.000 A 
ATOM     57  C   UNL     1      10.653  15.657 -18.892  0.00  0.00    +0.000 A 
ATOM     58  C   UNL     1      12.488  16.101 -20.280  0.00  0.00    +0.000 A 
ATOM     59  C   UNL     1      11.136  16.196 -20.056  0.00  0.00    +0.000 A 
ENDBRANCH  53  54
ENDBRANCH  51  53
ENDBRANCH   7  51
BRANCH   4  60
ATOM     60  O   UNL     1      12.970  16.466 -15.313  0.00  0.00    +0.000 OA
BRANCH  60  62
ATOM     61  O   UNL     1      13.874  17.847 -16.823  0.00  0.00    +0.000 OA
ATOM     62  C   UNL     1      12.974  17.622 -16.017  0.00  0.00    +0.000 C 
ATOM     63  C   UNL     1      11.941  18.660 -15.714  0.00  0.00    +0.000 C 
ENDBRANCH  60  62
ENDBRANCH   4  60
TORSDOF 17
ENDMDL
MODEL 5
REMARK VINA RESULT:      -5.9     17.322     23.113
REMARK  Name = 
REMARK  25 active torsions:
REMARK  status: ('A' for Active; 'I' for Inactive)
REMARK    1  A    between atoms: O_2  and  C_17
REMARK    2  A    between atoms: O_2  and  C_36
REMARK    3  A    between atoms: O_3  and  C_20
REMARK    4  A    between atoms: O_3  and  C_37
REMARK    5  A    between atoms: O_4  and  C_21
REMARK    6  A    between atoms: O_5  and  C_22
REMARK    7  A    between atoms: O_7  and  C_30
REMARK    8  A    between atoms: O_8  and  C_31
REMARK    9  A    between atoms: O_8  and  C_39
REMARK   10  A    between atoms: O_12  and  C_41
REMARK   11  A    between atoms: O_13  and  C_51
REMARK   12  A    between atoms: O_13  and  C_55
REMARK   13  A    between atoms: N_15  and  C_44
REMARK   14  A    between atoms: C_18  and  C_29
REMARK   15  A    between atoms: C_24  and  C_33
REMARK   16  A    between atoms: C_24  and  C_34
REMARK   17  A    between atoms: C_32  and  C_35
REMARK   18  A    between atoms: C_36  and  C_38
REMARK   19  A    between atoms: C_37  and  C_40
REMARK   20  A    between atoms: C_39  and  C_41
REMARK   21  A    between atoms: C_41  and  C_44
REMARK   22  A    between atoms: C_44  and  C_48
REMARK   23  A    between atoms: C_55  and  C_56
REMARK   24  A    between atoms: C_55  and  C_57
REMARK   25  A    between atoms: C_55  and  C_58
REMARK                            x       y       z     vdW  Elec       q    Type
REMARK                         _______ _______ _______ _____ _____    ______ ____
ROOT
ATOM      1  O   UNL     1      -3.572 -12.857 -23.915  0.00  0.00    +0.000 OA
ATOM      2  O   UNL     1      -4.929 -16.750 -18.608  0.00  0.00    +0.000 OA
ATOM      3  C   UNL     1      -6.009 -14.731 -22.364  0.00  0.00    +0.000 C 
ATOM      4  C   UNL     1      -5.373 -13.413 -22.895  0.00  0.00    +0.000 C 
ATOM      5  C   UNL     1      -5.340 -15.001 -20.609  0.00  0.00    +0.000 C 
ATOM      6  C   UNL     1      -3.880 -13.933 -22.987  0.00  0.00    +0.000 C 
ATOM      7  C   UNL     1      -7.827 -14.842 -22.761  0.00  0.00    +0.000 C 
ATOM      8  C   UNL     1      -9.334 -15.960 -22.500  0.00  0.00    +0.000 C 
ATOM      9  C   UNL     1      -3.774 -15.135 -20.820  0.00  0.00    +0.000 C 
ATOM     10  C   UNL     1      -3.117 -14.015 -21.682  0.00  0.00    +0.000 C 
ATOM     11  C   UNL     1      -9.512 -17.340 -21.398  0.00  0.00    +0.000 C 
ATOM     12  C   UNL     1      -4.979 -12.984 -24.365  0.00  0.00    +0.000 C 
ATOM     13  C   UNL     1      -5.825 -16.339 -19.377  0.00  0.00    +0.000 C 
ATOM     14  C   UNL     1     -10.479 -14.999 -21.934  0.00  0.00    +0.000 C 
ATOM     15  C   UNL     1      -9.130 -16.947 -19.894  0.00  0.00    +0.000 C 
ATOM     16  C   UNL     1      -5.475 -13.705 -19.705  0.00  0.00    +0.000 C 
ATOM     17  C   UNL     1      -7.535 -17.173 -19.125  0.00  0.00    +0.000 C 
ATOM     18  C   UNL     1     -10.696 -14.945 -20.353  0.00  0.00    +0.000 C 
ATOM     19  C   UNL     1      -9.946 -15.951 -19.409  0.00  0.00    +0.000 C 
ATOM     20  C   UNL     1     -11.072 -17.741 -21.393  0.00  0.00    +0.000 C 
ATOM     21  C   UNL     1      -9.012 -18.749 -21.851  0.00  0.00    +0.000 C 
ATOM     22  C   UNL     1      -9.973 -15.567 -17.951  0.00  0.00    +0.000 C 
ENDROOT
BRANCH  17  23
ATOM     23  O   UNL     1      -7.434 -18.580 -18.903  0.00  0.00    +0.000 OA
ATOM     24  H   UNL     1      -7.678 -18.705 -17.967  0.00  0.00    +0.000 HD
ENDBRANCH  17  23
BRANCH   9  25
ATOM     25  O   UNL     1      -3.507 -16.374 -21.479  0.00  0.00    +0.000 OA
ATOM     26  H   UNL     1      -4.139 -16.446 -22.217  0.00  0.00    +0.000 HD
ENDBRANCH   9  25
BRANCH   8  27
ATOM     27  O   UNL     1      -9.736 -16.343 -23.830  0.00  0.00    +0.000 OA
ATOM     28  H   UNL     1     -10.702 -16.249 -23.911  0.00  0.00    +0.000 HD
ENDBRANCH   8  27
BRANCH  18  29
ATOM     29  O   UNL     1     -10.341 -13.605 -19.906  0.00  0.00    +0.000 OA
BRANCH  29  31
ATOM     30  O   UNL     1     -12.275 -12.572 -20.447  0.00  0.00    +0.000 OA
ATOM     31  C   UNL     1     -11.351 -12.734 -19.658  0.00  0.00    +0.000 C 
BRANCH  31  32
ATOM     32  C   UNL     1     -11.165 -11.859 -18.413  0.00  0.00    +0.000 C 
BRANCH  32  33
ATOM     33  O   UNL     1      -9.809 -11.660 -17.996  0.00  0.00    +0.000 OA
ATOM     34  H   UNL     1      -9.855 -11.342 -17.075  0.00  0.00    +0.000 HD
ENDBRANCH  32  33
BRANCH  32  35
ATOM     35  C   UNL     1     -12.033 -12.444 -17.267  0.00  0.00    +0.000 C 
BRANCH  35  36
ATOM     36  C   UNL     1     -13.168 -11.513 -16.855  0.00  0.00    +0.000 A 
ATOM     37  C   UNL     1     -12.926 -10.499 -15.915  0.00  0.00    +0.000 A 
ATOM     38  C   UNL     1     -14.452 -11.611 -17.418  0.00  0.00    +0.000 A 
ATOM     39  C   UNL     1     -13.944  -9.625 -15.528  0.00  0.00    +0.000 A 
ATOM     40  C   UNL     1     -15.468 -10.737 -17.029  0.00  0.00    +0.000 A 
ATOM     41  C   UNL     1     -15.216  -9.747 -16.082  0.00  0.00    +0.000 A 
ENDBRANCH  35  36
BRANCH  35  43
ATOM     42  O   UNL     1     -12.288 -14.684 -15.485  0.00  0.00    +0.000 OA
ATOM     43  N   UNL     1     -11.229 -12.751 -16.093  0.00  0.00    +0.000 N 
ATOM     44  C   UNL     1     -11.499 -13.783 -15.254  0.00  0.00    +0.000 C 
ATOM     45  H   UNL     1     -10.643 -12.015 -15.721  0.00  0.00    +0.000 HD
BRANCH  44  46
ATOM     46  O   UNL     1     -10.734 -13.652 -14.149  0.00  0.00    +0.000 OA
BRANCH  46  47
ATOM     47  C   UNL     1     -11.263 -13.028 -12.950  0.00  0.00    +0.000 C 
ATOM     48  C   UNL     1     -12.785 -12.866 -13.029  0.00  0.00    +0.000 C 
ATOM     49  C   UNL     1     -10.931 -14.013 -11.819  0.00  0.00    +0.000 C 
ATOM     50  C   UNL     1     -10.560 -11.696 -12.663  0.00  0.00    +0.000 C 
ENDBRANCH  46  47
ENDBRANCH  44  46
ENDBRANCH  35  43
ENDBRANCH  32  35
ENDBRANCH  31  32
ENDBRANCH  29  31
ENDBRANCH  18  29
BRANCH   7  51
ATOM     51  O   UNL     1      -8.029 -14.328 -21.565  0.00  0.00    +0.000 OA
BRANCH  51  53
ATOM     52  O   UNL     1      -8.214 -12.376 -21.133  0.00  0.00    +0.000 OA
ATOM     53  C   UNL     1      -8.319 -13.103 -22.115  0.00  0.00    +0.000 C 
BRANCH  53  54
ATOM     54  C   UNL     1      -9.008 -12.858 -23.886  0.00  0.00    +0.000 A 
ATOM     55  C   UNL     1     -10.363 -12.413 -24.213  0.00  0.00    +0.000 A 
ATOM     56  C   UNL     1      -8.289 -12.937 -25.118  0.00  0.00    +0.000 A 
ATOM     57  C   UNL     1     -10.883 -12.115 -25.499  0.00  0.00    +0.000 A 
ATOM     58  C   UNL     1      -8.793 -12.642 -26.418  0.00  0.00    +0.000 A 
ATOM     59  C   UNL     1     -10.089 -12.231 -26.611  0.00  0.00    +0.000 A 
ENDBRANCH  53  54
ENDBRANCH  51  53
ENDBRANCH   7  51
BRANCH   4  60
ATOM     60  O   UNL     1      -5.561 -12.303 -21.986  0.00  0.00    +0.000 OA
BRANCH  60  62
ATOM     61  O   UNL     1      -4.273 -10.476 -21.903  0.00  0.00    +0.000 OA
ATOM     62  C   UNL     1      -5.305 -11.011 -22.300  0.00  0.00    +0.000 C 
ATOM     63  C   UNL     1      -6.347 -10.222 -23.028  0.00  0.00    +0.000 C 
ENDBRANCH  60  62
ENDBRANCH   4  60
TORSDOF 17
ENDMDL
MODEL 6
REMARK VINA RESULT:      -5.8     12.632     15.635
REMARK  Name = 
REMARK  25 active torsions:
REMARK  status: ('A' for Active; 'I' for Inactive)
REMARK    1  A    between atoms: O_2  and  C_17
REMARK    2  A    between atoms: O_2  and  C_36
REMARK    3  A    between atoms: O_3  and  C_20
REMARK    4  A    between atoms: O_3  and  C_37
REMARK    5  A    between atoms: O_4  and  C_21
REMARK    6  A    between atoms: O_5  and  C_22
REMARK    7  A    between atoms: O_7  and  C_30
REMARK    8  A    between atoms: O_8  and  C_31
REMARK    9  A    between atoms: O_8  and  C_39
REMARK   10  A    between atoms: O_12  and  C_41
REMARK   11  A    between atoms: O_13  and  C_51
REMARK   12  A    between atoms: O_13  and  C_55
REMARK   13  A    between atoms: N_15  and  C_44
REMARK   14  A    between atoms: C_18  and  C_29
REMARK   15  A    between atoms: C_24  and  C_33
REMARK   16  A    between atoms: C_24  and  C_34
REMARK   17  A    between atoms: C_32  and  C_35
REMARK   18  A    between atoms: C_36  and  C_38
REMARK   19  A    between atoms: C_37  and  C_40
REMARK   20  A    between atoms: C_39  and  C_41
REMARK   21  A    between atoms: C_41  and  C_44
REMARK   22  A    between atoms: C_44  and  C_48
REMARK   23  A    between atoms: C_55  and  C_56
REMARK   24  A    between atoms: C_55  and  C_57
REMARK   25  A    between atoms: C_55  and  C_58
REMARK                            x       y       z     vdW  Elec       q    Type
REMARK                         _______ _______ _______ _____ _____    ______ ____
ROOT
ATOM      1  O   UNL     1       5.112  10.697 -25.372  0.00  0.00    +0.000 OA
ATOM      2  O   UNL     1       5.838  15.388 -20.616  0.00  0.00    +0.000 OA
ATOM      3  C   UNL     1       7.380  12.721 -23.756  0.00  0.00    +0.000 C 
ATOM      4  C   UNL     1       6.756  11.355 -24.166  0.00  0.00    +0.000 C 
ATOM      5  C   UNL     1       6.455  13.310 -22.207  0.00  0.00    +0.000 C 
ATOM      6  C   UNL     1       5.333  11.904 -24.592  0.00  0.00    +0.000 C 
ATOM      7  C   UNL     1       9.242  12.700 -23.852  0.00  0.00    +0.000 C 
ATOM      8  C   UNL     1      10.754  13.792 -23.526  0.00  0.00    +0.000 C 
ATOM      9  C   UNL     1       4.956  13.461 -22.698  0.00  0.00    +0.000 C 
ATOM     10  C   UNL     1       4.377  12.233 -23.466  0.00  0.00    +0.000 C 
ATOM     11  C   UNL     1      10.839  15.333 -22.648  0.00  0.00    +0.000 C 
ATOM     12  C   UNL     1       6.578  10.695 -25.592  0.00  0.00    +0.000 C 
ATOM     13  C   UNL     1       6.819  14.821 -21.145  0.00  0.00    +0.000 C 
ATOM     14  C   UNL     1      11.731  12.903 -22.626  0.00  0.00    +0.000 C 
ATOM     15  C   UNL     1      10.196  15.216 -21.187  0.00  0.00    +0.000 C 
ATOM     16  C   UNL     1       6.362  12.183 -21.095  0.00  0.00    +0.000 C 
ATOM     17  C   UNL     1       8.515  15.625 -20.746  0.00  0.00    +0.000 C 
ATOM     18  C   UNL     1      11.687  13.112 -21.043  0.00  0.00    +0.000 C 
ATOM     19  C   UNL     1      10.859  14.290 -20.416  0.00  0.00    +0.000 C 
ATOM     20  C   UNL     1      12.400  15.675 -22.445  0.00  0.00    +0.000 C 
ATOM     21  C   UNL     1      10.507  16.661 -23.401  0.00  0.00    +0.000 C 
ATOM     22  C   UNL     1      10.627  14.159 -18.931  0.00  0.00    +0.000 C 
ENDROOT
BRANCH  17  23
ATOM     23  O   UNL     1       8.468  17.052 -20.776  0.00  0.00    +0.000 OA
ATOM     24  H   UNL     1       8.116  17.274 -21.658  0.00  0.00    +0.000 HD
ENDBRANCH  17  23
BRANCH   9  25
ATOM     25  O   UNL     1       4.876  14.577 -23.586  0.00  0.00    +0.000 OA
ATOM     26  H   UNL     1       3.951  14.881 -23.580  0.00  0.00    +0.000 HD
ENDBRANCH   9  25
BRANCH   8  27
ATOM     27  O   UNL     1      11.388  13.929 -24.813  0.00  0.00    +0.000 OA
ATOM     28  H   UNL     1      10.747  13.703 -25.509  0.00  0.00    +0.000 HD
ENDBRANCH   8  27
BRANCH  18  29
ATOM     29  O   UNL     1      11.181  11.881 -20.451  0.00  0.00    +0.000 OA
BRANCH  29  31
ATOM     30  O   UNL     1      13.119  10.722 -20.497  0.00  0.00    +0.000 OA
ATOM     31  C   UNL     1      12.083  11.022 -19.913  0.00  0.00    +0.000 C 
BRANCH  31  32
ATOM     32  C   UNL     1      11.637  10.336 -18.617  0.00  0.00    +0.000 C 
BRANCH  32  33
ATOM     33  O   UNL     1      10.276  10.565 -18.236  0.00  0.00    +0.000 OA
ATOM     34  H   UNL     1      10.162  11.534 -18.214  0.00  0.00    +0.000 HD
ENDBRANCH  32  33
BRANCH  32  35
ATOM     35  C   UNL     1      12.621  10.737 -17.486  0.00  0.00    +0.000 C 
BRANCH  35  36
ATOM     36  C   UNL     1      12.000  10.618 -16.098  0.00  0.00    +0.000 A 
ATOM     37  C   UNL     1      11.889   9.355 -15.495  0.00  0.00    +0.000 A 
ATOM     38  C   UNL     1      11.566  11.744 -15.379  0.00  0.00    +0.000 A 
ATOM     39  C   UNL     1      11.335   9.219 -14.220  0.00  0.00    +0.000 A 
ATOM     40  C   UNL     1      11.012  11.605 -14.105  0.00  0.00    +0.000 A 
ATOM     41  C   UNL     1      10.893  10.343 -13.528  0.00  0.00    +0.000 A 
ENDBRANCH  35  36
BRANCH  35  43
ATOM     42  O   UNL     1      15.349  11.623 -17.656  0.00  0.00    +0.000 OA
ATOM     43  N   UNL     1      13.113  12.096 -17.665  0.00  0.00    +0.000 N 
ATOM     44  C   UNL     1      14.429  12.423 -17.626  0.00  0.00    +0.000 C 
ATOM     45  H   UNL     1      12.460  12.854 -17.513  0.00  0.00    +0.000 HD
BRANCH  44  46
ATOM     46  O   UNL     1      14.539  13.768 -17.578  0.00  0.00    +0.000 OA
BRANCH  46  47
ATOM     47  C   UNL     1      14.981  14.518 -18.739  0.00  0.00    +0.000 C 
ATOM     48  C   UNL     1      14.068  15.718 -19.011  0.00  0.00    +0.000 C 
ATOM     49  C   UNL     1      16.376  15.038 -18.357  0.00  0.00    +0.000 C 
ATOM     50  C   UNL     1      15.116  13.611 -19.967  0.00  0.00    +0.000 C 
ENDBRANCH  46  47
ENDBRANCH  44  46
ENDBRANCH  35  43
ENDBRANCH  32  35
ENDBRANCH  31  32
ENDBRANCH  29  31
ENDBRANCH  18  29
BRANCH   7  51
ATOM     51  O   UNL     1       9.216  12.391 -22.572  0.00  0.00    +0.000 OA
BRANCH  51  53
ATOM     52  O   UNL     1       9.181  10.537 -21.802  0.00  0.00    +0.000 OA
ATOM     53  C   UNL     1       9.486  11.075 -22.861  0.00  0.00    +0.000 C 
BRANCH  53  54
ATOM     54  C   UNL     1      10.408  10.489 -24.435  0.00  0.00    +0.000 A 
ATOM     55  C   UNL     1      11.836  10.180 -24.514  0.00  0.00    +0.000 A 
ATOM     56  C   UNL     1       9.838  10.144 -25.699  0.00  0.00    +0.000 A 
ATOM     57  C   UNL     1      12.539   9.643 -25.623  0.00  0.00    +0.000 A 
ATOM     58  C   UNL     1      10.527   9.604 -26.824  0.00  0.00    +0.000 A 
ATOM     59  C   UNL     1      11.877   9.352 -26.788  0.00  0.00    +0.000 A 
ENDBRANCH  53  54
ENDBRANCH  51  53
ENDBRANCH   7  51
BRANCH   4  60
ATOM     60  O   UNL     1       6.726  10.411 -23.070  0.00  0.00    +0.000 OA
BRANCH  60  62
ATOM     61  O   UNL     1       5.278   8.714 -22.896  0.00  0.00    +0.000 OA
ATOM     62  C   UNL     1       6.403   9.103 -23.202  0.00  0.00    +0.000 C 
ATOM     63  C   UNL     1       7.464   8.131 -23.610  0.00  0.00    +0.000 C 
ENDBRANCH  60  62
ENDBRANCH   4  60
TORSDOF 17
ENDMDL
MODEL 7
REMARK VINA RESULT:      -5.8     12.560     15.421
REMARK  Name = 
REMARK  25 active torsions:
REMARK  status: ('A' for Active; 'I' for Inactive)
REMARK    1  A    between atoms: O_2  and  C_17
REMARK    2  A    between atoms: O_2  and  C_36
REMARK    3  A    between atoms: O_3  and  C_20
REMARK    4  A    between atoms: O_3  and  C_37
REMARK    5  A    between atoms: O_4  and  C_21
REMARK    6  A    between atoms: O_5  and  C_22
REMARK    7  A    between atoms: O_7  and  C_30
REMARK    8  A    between atoms: O_8  and  C_31
REMARK    9  A    between atoms: O_8  and  C_39
REMARK   10  A    between atoms: O_12  and  C_41
REMARK   11  A    between atoms: O_13  and  C_51
REMARK   12  A    between atoms: O_13  and  C_55
REMARK   13  A    between atoms: N_15  and  C_44
REMARK   14  A    between atoms: C_18  and  C_29
REMARK   15  A    between atoms: C_24  and  C_33
REMARK   16  A    between atoms: C_24  and  C_34
REMARK   17  A    between atoms: C_32  and  C_35
REMARK   18  A    between atoms: C_36  and  C_38
REMARK   19  A    between atoms: C_37  and  C_40
REMARK   20  A    between atoms: C_39  and  C_41
REMARK   21  A    between atoms: C_41  and  C_44
REMARK   22  A    between atoms: C_44  and  C_48
REMARK   23  A    between atoms: C_55  and  C_56
REMARK   24  A    between atoms: C_55  and  C_57
REMARK   25  A    between atoms: C_55  and  C_58
REMARK                            x       y       z     vdW  Elec       q    Type
REMARK                         _______ _______ _______ _____ _____    ______ ____
ROOT
ATOM      1  O   UNL     1       5.101  10.631 -25.407  0.00  0.00    +0.000 OA
ATOM      2  O   UNL     1       5.731  15.290 -20.605  0.00  0.00    +0.000 OA
ATOM      3  C   UNL     1       7.319  12.719 -23.802  0.00  0.00    +0.000 C 
ATOM      4  C   UNL     1       6.739  11.335 -24.219  0.00  0.00    +0.000 C 
ATOM      5  C   UNL     1       6.398  13.255 -22.232  0.00  0.00    +0.000 C 
ATOM      6  C   UNL     1       5.291  11.836 -24.616  0.00  0.00    +0.000 C 
ATOM      7  C   UNL     1       9.178  12.768 -23.927  0.00  0.00    +0.000 C 
ATOM      8  C   UNL     1      10.655  13.912 -23.611  0.00  0.00    +0.000 C 
ATOM      9  C   UNL     1       4.887  13.356 -22.697  0.00  0.00    +0.000 C 
ATOM     10  C   UNL     1       4.341  12.116 -23.471  0.00  0.00    +0.000 C 
ATOM     11  C   UNL     1      10.696  15.444 -22.716  0.00  0.00    +0.000 C 
ATOM     12  C   UNL     1       6.563  10.686 -25.650  0.00  0.00    +0.000 C 
ATOM     13  C   UNL     1       6.723  14.765 -21.156  0.00  0.00    +0.000 C 
ATOM     14  C   UNL     1      11.678  13.049 -22.738  0.00  0.00    +0.000 C 
ATOM     15  C   UNL     1      10.082  15.286 -21.247  0.00  0.00    +0.000 C 
ATOM     16  C   UNL     1       6.364  12.112 -21.132  0.00  0.00    +0.000 C 
ATOM     17  C   UNL     1       8.394  15.628 -20.774  0.00  0.00    +0.000 C 
ATOM     18  C   UNL     1      11.652  13.238 -21.152  0.00  0.00    +0.000 C 
ATOM     19  C   UNL     1      10.791  14.377 -20.497  0.00  0.00    +0.000 C 
ATOM     20  C   UNL     1      12.246  15.842 -22.533  0.00  0.00    +0.000 C 
ATOM     21  C   UNL     1      10.304  16.767 -23.448  0.00  0.00    +0.000 C 
ATOM     22  C   UNL     1      10.588  14.220 -19.011  0.00  0.00    +0.000 C 
ENDROOT
BRANCH  17  23
ATOM     23  O   UNL     1       8.294  17.052 -20.786  0.00  0.00    +0.000 OA
ATOM     24  H   UNL     1       8.786  17.332 -21.581  0.00  0.00    +0.000 HD
ENDBRANCH  17  23
BRANCH   9  25
ATOM     25  O   UNL     1       4.752  14.479 -23.570  0.00  0.00    +0.000 OA
ATOM     26  H   UNL     1       4.050  14.260 -24.209  0.00  0.00    +0.000 HD
ENDBRANCH   9  25
BRANCH   8  27
ATOM     27  O   UNL     1      11.262  14.087 -24.906  0.00  0.00    +0.000 OA
ATOM     28  H   UNL     1      12.045  13.512 -24.971  0.00  0.00    +0.000 HD
ENDBRANCH   8  27
BRANCH  18  29
ATOM     29  O   UNL     1      11.201  11.982 -20.567  0.00  0.00    +0.000 OA
BRANCH  29  31
ATOM     30  O   UNL     1      13.175  10.887 -20.637  0.00  0.00    +0.000 OA
ATOM     31  C   UNL     1      12.140  11.159 -20.037  0.00  0.00    +0.000 C 
BRANCH  31  32
ATOM     32  C   UNL     1      11.742  10.473 -18.726  0.00  0.00    +0.000 C 
BRANCH  32  33
ATOM     33  O   UNL     1      10.342  10.212 -18.568  0.00  0.00    +0.000 OA
ATOM     34  H   UNL     1      10.246   9.241 -18.578  0.00  0.00    +0.000 HD
ENDBRANCH  32  33
BRANCH  32  35
ATOM     35  C   UNL     1      12.301  11.310 -17.545  0.00  0.00    +0.000 C 
BRANCH  35  36
ATOM     36  C   UNL     1      13.723  10.913 -17.165  0.00  0.00    +0.000 A 
ATOM     37  C   UNL     1      14.790  11.770 -17.479  0.00  0.00    +0.000 A 
ATOM     38  C   UNL     1      14.002   9.723 -16.471  0.00  0.00    +0.000 A 
ATOM     39  C   UNL     1      16.101  11.436 -17.132  0.00  0.00    +0.000 A 
ATOM     40  C   UNL     1      15.314   9.391 -16.127  0.00  0.00    +0.000 A 
ATOM     41  C   UNL     1      16.363  10.245 -16.460  0.00  0.00    +0.000 A 
ENDBRANCH  35  36
BRANCH  35  43
ATOM     42  O   UNL     1      11.726  13.333 -15.587  0.00  0.00    +0.000 OA
ATOM     43  N   UNL     1      11.453  11.201 -16.365  0.00  0.00    +0.000 N 
ATOM     44  C   UNL     1      11.331  12.189 -15.443  0.00  0.00    +0.000 C 
ATOM     45  H   UNL     1      11.187  10.273 -16.065  0.00  0.00    +0.000 HD
BRANCH  44  46
ATOM     46  O   UNL     1      10.681  11.695 -14.367  0.00  0.00    +0.000 OA
BRANCH  46  47
ATOM     47  C   UNL     1      11.393  11.416 -13.134  0.00  0.00    +0.000 C 
ATOM     48  C   UNL     1      12.890  11.209 -13.388  0.00  0.00    +0.000 C 
ATOM     49  C   UNL     1      11.210  12.682 -12.283  0.00  0.00    +0.000 C 
ATOM     50  C   UNL     1      10.770  10.230 -12.390  0.00  0.00    +0.000 C 
ENDBRANCH  46  47
ENDBRANCH  44  46
ENDBRANCH  35  43
ENDBRANCH  32  35
ENDBRANCH  31  32
ENDBRANCH  29  31
ENDBRANCH  18  29
BRANCH   7  51
ATOM     51  O   UNL     1       9.185  12.443 -22.651  0.00  0.00    +0.000 OA
BRANCH  51  53
ATOM     52  O   UNL     1       9.229  10.580 -21.904  0.00  0.00    +0.000 OA
ATOM     53  C   UNL     1       9.499  11.142 -22.960  0.00  0.00    +0.000 C 
BRANCH  53  54
ATOM     54  C   UNL     1      10.421  10.610 -24.554  0.00  0.00    +0.000 A 
ATOM     55  C   UNL     1       9.963  10.860 -25.921  0.00  0.00    +0.000 A 
ATOM     56  C   UNL     1      11.722  10.028 -24.652  0.00  0.00    +0.000 A 
ATOM     57  C   UNL     1      10.658  10.582 -27.125  0.00  0.00    +0.000 A 
ATOM     58  C   UNL     1      12.437   9.741 -25.852  0.00  0.00    +0.000 A 
ATOM     59  C   UNL     1      11.908  10.017 -27.089  0.00  0.00    +0.000 A 
ENDBRANCH  53  54
ENDBRANCH  51  53
ENDBRANCH   7  51
BRANCH   4  60
ATOM     60  O   UNL     1       6.762  10.378 -23.134  0.00  0.00    +0.000 OA
BRANCH  60  62
ATOM     61  O   UNL     1       5.375   8.629 -22.973  0.00  0.00    +0.000 OA
ATOM     62  C   UNL     1       6.485   9.061 -23.277  0.00  0.00    +0.000 C 
ATOM     63  C   UNL     1       7.581   8.131 -23.694  0.00  0.00    +0.000 C 
ENDBRANCH  60  62
ENDBRANCH   4  60
TORSDOF 17
ENDMDL
MODEL 8
REMARK VINA RESULT:      -5.7      3.196      9.608
REMARK  Name = 
REMARK  25 active torsions:
REMARK  status: ('A' for Active; 'I' for Inactive)
REMARK    1  A    between atoms: O_2  and  C_17
REMARK    2  A    between atoms: O_2  and  C_36
REMARK    3  A    between atoms: O_3  and  C_20
REMARK    4  A    between atoms: O_3  and  C_37
REMARK    5  A    between atoms: O_4  and  C_21
REMARK    6  A    between atoms: O_5  and  C_22
REMARK    7  A    between atoms: O_7  and  C_30
REMARK    8  A    between atoms: O_8  and  C_31
REMARK    9  A    between atoms: O_8  and  C_39
REMARK   10  A    between atoms: O_12  and  C_41
REMARK   11  A    between atoms: O_13  and  C_51
REMARK   12  A    between atoms: O_13  and  C_55
REMARK   13  A    between atoms: N_15  and  C_44
REMARK   14  A    between atoms: C_18  and  C_29
REMARK   15  A    between atoms: C_24  and  C_33
REMARK   16  A    between atoms: C_24  and  C_34
REMARK   17  A    between atoms: C_32  and  C_35
REMARK   18  A    between atoms: C_36  and  C_38
REMARK   19  A    between atoms: C_37  and  C_40
REMARK   20  A    between atoms: C_39  and  C_41
REMARK   21  A    between atoms: C_41  and  C_44
REMARK   22  A    between atoms: C_44  and  C_48
REMARK   23  A    between atoms: C_55  and  C_56
REMARK   24  A    between atoms: C_55  and  C_57
REMARK   25  A    between atoms: C_55  and  C_58
REMARK                            x       y       z     vdW  Elec       q    Type
REMARK                         _______ _______ _______ _____ _____    ______ ____
ROOT
ATOM      1  O   UNL     1      13.887   1.515 -23.067  0.00  0.00    +0.000 OA
ATOM      2  O   UNL     1      13.077  -4.591 -20.380  0.00  0.00    +0.000 OA
ATOM      3  C   UNL     1      11.716  -1.138 -22.743  0.00  0.00    +0.000 C 
ATOM      4  C   UNL     1      12.179   0.334 -22.537  0.00  0.00    +0.000 C 
ATOM      5  C   UNL     1      12.432  -2.149 -21.305  0.00  0.00    +0.000 C 
ATOM      6  C   UNL     1      13.724   0.097 -22.792  0.00  0.00    +0.000 C 
ATOM      7  C   UNL     1       9.922  -1.248 -23.237  0.00  0.00    +0.000 C 
ATOM      8  C   UNL     1       8.569  -2.514 -23.627  0.00  0.00    +0.000 C 
ATOM      9  C   UNL     1      13.999  -1.986 -21.473  0.00  0.00    +0.000 C 
ATOM     10  C   UNL     1      14.504  -0.521 -21.651  0.00  0.00    +0.000 C 
ATOM     11  C   UNL     1       8.574  -4.266 -23.340  0.00  0.00    +0.000 C 
ATOM     12  C   UNL     1      12.502   1.465 -23.594  0.00  0.00    +0.000 C 
ATOM     13  C   UNL     1      12.128  -3.962 -20.900  0.00  0.00    +0.000 C 
ATOM     14  C   UNL     1       7.319  -2.087 -22.728  0.00  0.00    +0.000 C 
ATOM     15  C   UNL     1       8.919  -4.613 -21.816  0.00  0.00    +0.000 C 
ATOM     16  C   UNL     1      12.145  -1.480 -19.896  0.00  0.00    +0.000 C 
ATOM     17  C   UNL     1      10.538  -5.001 -21.171  0.00  0.00    +0.000 C 
ATOM     18  C   UNL     1       7.112  -2.833 -21.331  0.00  0.00    +0.000 C 
ATOM     19  C   UNL     1       7.991  -4.078 -20.953  0.00  0.00    +0.000 C 
ATOM     20  C   UNL     1       7.077  -4.793 -23.610  0.00  0.00    +0.000 C 
ATOM     21  C   UNL     1       9.241  -5.210 -24.390  0.00  0.00    +0.000 C 
ATOM     22  C   UNL     1       7.931  -4.456 -19.494  0.00  0.00    +0.000 C 
ENDROOT
BRANCH  17  23
ATOM     23  O   UNL     1      10.816  -6.317 -21.651  0.00  0.00    +0.000 OA
ATOM     24  H   UNL     1      11.271  -6.764 -20.913  0.00  0.00    +0.000 HD
ENDBRANCH  17  23
BRANCH   9  25
ATOM     25  O   UNL     1      14.412  -2.708 -22.634  0.00  0.00    +0.000 OA
ATOM     26  H   UNL     1      15.078  -2.162 -23.088  0.00  0.00    +0.000 HD
ENDBRANCH   9  25
BRANCH   8  27
ATOM     27  O   UNL     1       8.204  -2.246 -24.996  0.00  0.00    +0.000 OA
ATOM     28  H   UNL     1       8.981  -2.386 -25.566  0.00  0.00    +0.000 HD
ENDBRANCH   8  27
BRANCH  18  29
ATOM     29  O   UNL     1       7.303  -1.848 -20.274  0.00  0.00    +0.000 OA
BRANCH  29  31
ATOM     30  O   UNL     1       5.569  -2.336 -18.912  0.00  0.00    +0.000 OA
ATOM     31  C   UNL     1       6.222  -1.503 -19.530  0.00  0.00    +0.000 C 
BRANCH  31  32
ATOM     32  C   UNL     1       5.787  -0.038 -19.654  0.00  0.00    +0.000 C 
BRANCH  32  33
ATOM     33  O   UNL     1       5.749   0.698 -18.426  0.00  0.00    +0.000 OA
ATOM     34  H   UNL     1       4.937   0.414 -17.966  0.00  0.00    +0.000 HD
ENDBRANCH  32  33
BRANCH  32  35
ATOM     35  C   UNL     1       4.420   0.008 -20.387  0.00  0.00    +0.000 C 
BRANCH  35  36
ATOM     36  C   UNL     1       4.566   0.255 -21.885  0.00  0.00    +0.000 A 
ATOM     37  C   UNL     1       5.564   1.127 -22.350  0.00  0.00    +0.000 A 
ATOM     38  C   UNL     1       3.752  -0.394 -22.828  0.00  0.00    +0.000 A 
ATOM     39  C   UNL     1       5.726   1.364 -23.717  0.00  0.00    +0.000 A 
ATOM     40  C   UNL     1       3.916  -0.155 -24.194  0.00  0.00    +0.000 A 
ATOM     41  C   UNL     1       4.900   0.725 -24.638  0.00  0.00    +0.000 A 
ENDBRANCH  35  36
BRANCH  35  43
ATOM     42  O   UNL     1       1.692  -0.272 -19.529  0.00  0.00    +0.000 OA
ATOM     43  N   UNL     1       3.548   1.030 -19.826  0.00  0.00    +0.000 N 
ATOM     44  C   UNL     1       2.236   0.819 -19.549  0.00  0.00    +0.000 C 
ATOM     45  H   UNL     1       3.835   1.995 -19.923  0.00  0.00    +0.000 HD
BRANCH  44  46
ATOM     46  O   UNL     1       1.656   2.008 -19.278  0.00  0.00    +0.000 OA
BRANCH  46  47
ATOM     47  C   UNL     1       0.708   2.599 -20.204  0.00  0.00    +0.000 C 
ATOM     48  C   UNL     1       0.674   4.125 -20.071  0.00  0.00    +0.000 C 
ATOM     49  C   UNL     1       1.248   2.239 -21.596  0.00  0.00    +0.000 C 
ATOM     50  C   UNL     1      -0.684   1.978 -20.043  0.00  0.00    +0.000 C 
ENDBRANCH  46  47
ENDBRANCH  44  46
ENDBRANCH  35  43
ENDBRANCH  32  35
ENDBRANCH  31  32
ENDBRANCH  29  31
ENDBRANCH  18  29
BRANCH   7  51
ATOM     51  O   UNL     1       9.670  -1.406 -21.954  0.00  0.00    +0.000 OA
BRANCH  51  53
ATOM     52  O   UNL     1       9.087   0.162 -23.064  0.00  0.00    +0.000 OA
ATOM     53  C   UNL     1       9.154  -0.136 -21.876  0.00  0.00    +0.000 C 
BRANCH  53  54
ATOM     54  C   UNL     1       8.976   0.851 -20.243  0.00  0.00    +0.000 A 
ATOM     55  C   UNL     1       9.392   0.383 -18.921  0.00  0.00    +0.000 A 
ATOM     56  C   UNL     1       8.550   2.206 -20.089  0.00  0.00    +0.000 A 
ATOM     57  C   UNL     1       9.379   1.116 -17.707  0.00  0.00    +0.000 A 
ATOM     58  C   UNL     1       8.530   2.959 -18.879  0.00  0.00    +0.000 A 
ATOM     59  C   UNL     1       8.944   2.417 -17.687  0.00  0.00    +0.000 A 
ENDBRANCH  53  54
ENDBRANCH  51  53
ENDBRANCH   7  51
BRANCH   4  60
ATOM     60  O   UNL     1      11.863   0.833 -21.216  0.00  0.00    +0.000 OA
BRANCH  60  62
ATOM     61  O   UNL     1      11.526   3.037 -21.403  0.00  0.00    +0.000 OA
ATOM     62  C   UNL     1      12.074   2.108 -20.814  0.00  0.00    +0.000 C 
ATOM     63  C   UNL     1      13.069   2.371 -19.728  0.00  0.00    +0.000 C 
ENDBRANCH  60  62
ENDBRANCH   4  60
TORSDOF 17
ENDMDL
MODEL 9
REMARK VINA RESULT:      -5.6     18.119     23.445
REMARK  Name = 
REMARK  25 active torsions:
REMARK  status: ('A' for Active; 'I' for Inactive)
REMARK    1  A    between atoms: O_2  and  C_17
REMARK    2  A    between atoms: O_2  and  C_36
REMARK    3  A    between atoms: O_3  and  C_20
REMARK    4  A    between atoms: O_3  and  C_37
REMARK    5  A    between atoms: O_4  and  C_21
REMARK    6  A    between atoms: O_5  and  C_22
REMARK    7  A    between atoms: O_7  and  C_30
REMARK    8  A    between atoms: O_8  and  C_31
REMARK    9  A    between atoms: O_8  and  C_39
REMARK   10  A    between atoms: O_12  and  C_41
REMARK   11  A    between atoms: O_13  and  C_51
REMARK   12  A    between atoms: O_13  and  C_55
REMARK   13  A    between atoms: N_15  and  C_44
REMARK   14  A    between atoms: C_18  and  C_29
REMARK   15  A    between atoms: C_24  and  C_33
REMARK   16  A    between atoms: C_24  and  C_34
REMARK   17  A    between atoms: C_32  and  C_35
REMARK   18  A    between atoms: C_36  and  C_38
REMARK   19  A    between atoms: C_37  and  C_40
REMARK   20  A    between atoms: C_39  and  C_41
REMARK   21  A    between atoms: C_41  and  C_44
REMARK   22  A    between atoms: C_44  and  C_48
REMARK   23  A    between atoms: C_55  and  C_56
REMARK   24  A    between atoms: C_55  and  C_57
REMARK   25  A    between atoms: C_55  and  C_58
REMARK                            x       y       z     vdW  Elec       q    Type
REMARK                         _______ _______ _______ _____ _____    ______ ____
ROOT
ATOM      1  O   UNL     1      -9.715 -14.619 -28.563  0.00  0.00    +0.000 OA
ATOM      2  O   UNL     1      -7.745  -9.541 -24.627  0.00  0.00    +0.000 OA
ATOM      3  C   UNL     1      -8.175 -13.812 -25.590  0.00  0.00    +0.000 C 
ATOM      4  C   UNL     1      -9.303 -14.429 -26.468  0.00  0.00    +0.000 C 
ATOM      5  C   UNL     1      -8.622 -11.987 -25.318  0.00  0.00    +0.000 C 
ATOM      6  C   UNL     1      -8.994 -13.619 -27.793  0.00  0.00    +0.000 C 
ATOM      7  C   UNL     1      -7.686 -14.934 -24.185  0.00  0.00    +0.000 C 
ATOM      8  C   UNL     1      -6.531 -15.012 -22.685  0.00  0.00    +0.000 C 
ATOM      9  C   UNL     1      -8.640 -11.381 -26.782  0.00  0.00    +0.000 C 
ATOM     10  C   UNL     1      -9.473 -12.183 -27.828  0.00  0.00    +0.000 C 
ATOM     11  C   UNL     1      -5.605 -13.699 -21.931  0.00  0.00    +0.000 C 
ATOM     12  C   UNL     1      -9.249 -15.589 -27.542  0.00  0.00    +0.000 C 
ATOM     13  C   UNL     1      -7.738 -10.728 -24.233  0.00  0.00    +0.000 C 
ATOM     14  C   UNL     1      -7.460 -15.441 -21.459  0.00  0.00    +0.000 C 
ATOM     15  C   UNL     1      -6.541 -12.455 -21.560  0.00  0.00    +0.000 C 
ATOM     16  C   UNL     1     -10.119 -11.799 -24.828  0.00  0.00    +0.000 C 
ATOM     17  C   UNL     1      -6.816 -11.011 -22.575  0.00  0.00    +0.000 C 
ATOM     18  C   UNL     1      -8.026 -14.288 -20.510  0.00  0.00    +0.000 C 
ATOM     19  C   UNL     1      -7.521 -12.809 -20.662  0.00  0.00    +0.000 C 
ATOM     20  C   UNL     1      -5.020 -14.271 -20.543  0.00  0.00    +0.000 C 
ATOM     21  C   UNL     1      -4.210 -13.313 -22.516  0.00  0.00    +0.000 C 
ATOM     22  C   UNL     1      -8.378 -11.788 -19.955  0.00  0.00    +0.000 C 
ENDROOT
BRANCH  17  23
ATOM     23  O   UNL     1      -5.600 -10.268 -22.487  0.00  0.00    +0.000 OA
ATOM     24  H   UNL     1      -4.934 -10.911 -22.178  0.00  0.00    +0.000 HD
ENDBRANCH  17  23
BRANCH   9  25
ATOM     25  O   UNL     1      -7.299 -11.332 -27.272  0.00  0.00    +0.000 OA
ATOM     26  H   UNL     1      -6.912 -12.216 -27.133  0.00  0.00    +0.000 HD
ENDBRANCH   9  25
BRANCH   8  27
ATOM     27  O   UNL     1      -5.661 -16.129 -22.955  0.00  0.00    +0.000 OA
ATOM     28  H   UNL     1      -6.090 -16.719 -23.600  0.00  0.00    +0.000 HD
ENDBRANCH   8  27
BRANCH  18  29
ATOM     29  O   UNL     1      -9.474 -14.256 -20.671  0.00  0.00    +0.000 OA
BRANCH  29  31
ATOM     30  O   UNL     1      -9.966 -15.519 -18.865  0.00  0.00    +0.000 OA
ATOM     31  C   UNL     1     -10.237 -14.572 -19.595  0.00  0.00    +0.000 C 
BRANCH  31  32
ATOM     32  C   UNL     1     -11.535 -13.768 -19.459  0.00  0.00    +0.000 C 
BRANCH  32  33
ATOM     33  O   UNL     1     -11.426 -12.369 -19.745  0.00  0.00    +0.000 OA
ATOM     34  H   UNL     1     -12.333 -12.013 -19.695  0.00  0.00    +0.000 HD
ENDBRANCH  32  33
BRANCH  32  35
ATOM     35  C   UNL     1     -12.119 -14.016 -18.042  0.00  0.00    +0.000 C 
BRANCH  35  36
ATOM     36  C   UNL     1     -13.623 -13.775 -17.976  0.00  0.00    +0.000 A 
ATOM     37  C   UNL     1     -14.108 -12.553 -17.482  0.00  0.00    +0.000 A 
ATOM     38  C   UNL     1     -14.550 -14.727 -18.433  0.00  0.00    +0.000 A 
ATOM     39  C   UNL     1     -15.481 -12.301 -17.421  0.00  0.00    +0.000 A 
ATOM     40  C   UNL     1     -15.921 -14.473 -18.371  0.00  0.00    +0.000 A 
ATOM     41  C   UNL     1     -16.386 -13.262 -17.862  0.00  0.00    +0.000 A 
ENDBRANCH  35  36
BRANCH  35  43
ATOM     42  O   UNL     1     -10.596 -14.859 -15.756  0.00  0.00    +0.000 OA
ATOM     43  N   UNL     1     -11.466 -13.182 -17.043  0.00  0.00    +0.000 N 
ATOM     44  C   UNL     1     -10.858 -13.682 -15.938  0.00  0.00    +0.000 C 
ATOM     45  H   UNL     1     -11.726 -12.205 -17.006  0.00  0.00    +0.000 HD
BRANCH  44  46
ATOM     46  O   UNL     1     -10.573 -12.660 -15.102  0.00  0.00    +0.000 OA
BRANCH  46  47
ATOM     47  C   UNL     1     -11.416 -12.385 -13.954  0.00  0.00    +0.000 C 
ATOM     48  C   UNL     1     -10.580 -12.129 -12.695  0.00  0.00    +0.000 C 
ATOM     49  C   UNL     1     -12.161 -11.092 -14.319  0.00  0.00    +0.000 C 
ATOM     50  C   UNL     1     -12.444 -13.501 -13.741  0.00  0.00    +0.000 C 
ENDBRANCH  46  47
ENDBRANCH  44  46
ENDBRANCH  35  43
ENDBRANCH  32  35
ENDBRANCH  31  32
ENDBRANCH  29  31
ENDBRANCH  18  29
BRANCH   7  51
ATOM     51  O   UNL     1      -8.547 -14.254 -23.458  0.00  0.00    +0.000 OA
BRANCH  51  53
ATOM     52  O   UNL     1      -8.721 -16.185 -23.978  0.00  0.00    +0.000 OA
ATOM     53  C   UNL     1      -9.404 -15.327 -23.428  0.00  0.00    +0.000 C 
BRANCH  53  54
ATOM     54  C   UNL     1     -11.250 -15.214 -22.926  0.00  0.00    +0.000 A 
ATOM     55  C   UNL     1     -12.063 -16.325 -22.432  0.00  0.00    +0.000 A 
ATOM     56  C   UNL     1     -12.054 -14.037 -22.830  0.00  0.00    +0.000 A 
ATOM     57  C   UNL     1     -13.395 -16.268 -21.949  0.00  0.00    +0.000 A 
ATOM     58  C   UNL     1     -13.393 -13.959 -22.348  0.00  0.00    +0.000 A 
ATOM     59  C   UNL     1     -14.065 -15.072 -21.907  0.00  0.00    +0.000 A 
ENDBRANCH  53  54
ENDBRANCH  51  53
ENDBRANCH   7  51
BRANCH   4  60
ATOM     60  O   UNL     1     -10.621 -14.193 -25.920  0.00  0.00    +0.000 OA
BRANCH  60  62
ATOM     61  O   UNL     1     -12.466 -13.844 -27.137  0.00  0.00    +0.000 OA
ATOM     62  C   UNL     1     -11.771 -14.624 -26.491  0.00  0.00    +0.000 C 
ATOM     63  C   UNL     1     -12.233 -16.022 -26.223  0.00  0.00    +0.000 C 
ENDBRANCH  60  62
ENDBRANCH   4  60
TORSDOF 17
ENDMDL
