MODEL 1
REMARK VINA RESULT:      -7.1      0.000      0.000
REMARK  Name = 
REMARK  13 active torsions:
REMARK  status: ('A' for Active; 'I' for Inactive)
REMARK    1  A    between atoms: O_1  and  C_13
REMARK    2  A    between atoms: O_1  and  C_19
REMARK    3  A    between atoms: O_3  and  C_14
REMARK    4  A    between atoms: O_4  and  C_22
REMARK    5  A    between atoms: O_5  and  C_24
REMARK    6  A    between atoms: O_6  and  C_26
REMARK    7  A    between atoms: O_8  and  C_30
REMARK    8  A    between atoms: O_11  and  C_35
REMARK    9  A    between atoms: O_11  and  C_39
REMARK   10  A    between atoms: N_12  and  C_21
REMARK   11  A    between atoms: C_14  and  C_25
REMARK   12  A    between atoms: C_23  and  C_29
REMARK   13  A    between atoms: C_25  and  C_30
REMARK                            x       y       z     vdW  Elec       q    Type
REMARK                         _______ _______ _______ _____ _____    ______ ____
ROOT
ATOM      1  O   UNL     1       6.519   2.742 -18.608  0.00  0.00    +0.000 OA
ATOM      2  O   UNL     1       7.882  -2.236 -19.889  0.00  0.00    +0.000 OA
ATOM      3  C   UNL     1       1.987   0.363 -18.950  0.00  0.00    +0.000 C 
ATOM      4  C   UNL     1       1.298  -1.957 -19.699  0.00  0.00    +0.000 C 
ATOM      5  C   UNL     1       1.079  -0.836 -18.674  0.00  0.00    +0.000 C 
ATOM      6  C   UNL     1       2.755  -2.441 -19.671  0.00  0.00    +0.000 C 
ATOM      7  C   UNL     1       3.441  -0.047 -19.080  0.00  0.00    +0.000 A 
ATOM      8  C   UNL     1       3.796  -1.357 -19.455  0.00  0.00    +0.000 A 
ATOM      9  C   UNL     1       4.461   0.903 -18.879  0.00  0.00    +0.000 A 
ATOM     10  C   UNL     1       5.157  -1.686 -19.591  0.00  0.00    +0.000 A 
ATOM     11  C   UNL     1       5.821   0.568 -19.028  0.00  0.00    +0.000 A 
ATOM     12  C   UNL     1       6.166  -0.731 -19.384  0.00  0.00    +0.000 A 
ATOM     13  C   UNL     1       6.875   1.587 -18.825  0.00  0.00    +0.000 C 
ATOM     14  C   UNL     1       7.586  -1.096 -19.541  0.00  0.00    +0.000 C 
ATOM     15  C   UNL     1       8.305   1.207 -18.911  0.00  0.00    +0.000 A 
ATOM     16  C   UNL     1       8.639  -0.100 -19.273  0.00  0.00    +0.000 A 
ATOM     17  C   UNL     1       9.341   2.117 -18.652  0.00  0.00    +0.000 A 
ATOM     18  C   UNL     1       9.982  -0.493 -19.378  0.00  0.00    +0.000 A 
ATOM     19  C   UNL     1      10.680   1.717 -18.732  0.00  0.00    +0.000 A 
ATOM     20  C   UNL     1      11.001   0.415 -19.106  0.00  0.00    +0.000 A 
ENDROOT
BRANCH   4  21
ATOM     21  O   UNL     1       0.954  -1.510 -21.016  0.00  0.00    +0.000 OA
ATOM     22  H   UNL     1       0.356  -2.184 -21.403  0.00  0.00    +0.000 HD
ENDBRANCH   4  21
BRANCH   9  23
ATOM     23  O   UNL     1       4.068   2.172 -18.527  0.00  0.00    +0.000 OA
ATOM     24  H   UNL     1       4.833   2.784 -18.646  0.00  0.00    +0.000 HD
ENDBRANCH   9  23
BRANCH  10  25
ATOM     25  O   UNL     1       5.445  -2.985 -19.932  0.00  0.00    +0.000 OA
ATOM     26  H   UNL     1       4.640  -3.535 -19.800  0.00  0.00    +0.000 HD
ENDBRANCH  10  25
BRANCH   4  28
ATOM     27  O   UNL     1      -0.812  -3.009 -19.071  0.00  0.00    +0.000 OA
ATOM     28  C   UNL     1       0.379  -3.147 -19.373  0.00  0.00    +0.000 C 
BRANCH  28  29
ATOM     29  C   UNL     1       1.001  -4.541 -19.413  0.00  0.00    +0.000 C 
BRANCH  29  30
ATOM     30  O   UNL     1       1.070  -5.114 -18.112  0.00  0.00    +0.000 OA
ATOM     31  H   UNL     1       0.594  -4.497 -17.519  0.00  0.00    +0.000 HD
ENDBRANCH  29  30
ENDBRANCH  28  29
ENDBRANCH   4  28
BRANCH  17  32
ATOM     32  O   UNL     1       9.096   3.390 -18.211  0.00  0.00    +0.000 OA
ATOM     33  C   UNL     1      10.059   3.777 -17.228  0.00  0.00    +0.000 C 
ENDBRANCH  17  32
BRANCH   3  34
ATOM     34  O   UNL     1       1.618   0.941 -20.214  0.00  0.00    +0.000 OA
BRANCH  34  36
ATOM     35  O   UNL     1      -0.267   2.148 -19.480  0.00  0.00    +0.000 OA
ATOM     36  C   UNL     1       1.029   2.237 -20.067  0.00  0.00    +0.000 C 
ATOM     37  C   UNL     1       1.000   2.931 -21.431  0.00  0.00    +0.000 C 
ATOM     38  C   UNL     1      -0.018   2.268 -22.362  0.00  0.00    +0.000 C 
ATOM     39  C   UNL     1      -1.394   2.214 -21.669  0.00  0.00    +0.000 C 
ATOM     40  C   UNL     1      -1.241   1.503 -20.310  0.00  0.00    +0.000 C 
ATOM     41  C   UNL     1      -2.544   1.465 -19.519  0.00  0.00    +0.000 C 
BRANCH  38  42
ATOM     42  N   UNL     1      -0.111   3.001 -23.638  0.00  0.00    +0.000 NA
ATOM     43  H   UNL     1      -1.019   2.835 -24.069  0.00  0.00    +0.000 HD
ATOM     44  H   UNL     1       0.582   2.586 -24.270  0.00  0.00    +0.000 HD
ENDBRANCH  38  42
BRANCH  39  45
ATOM     45  O   UNL     1      -1.875   3.562 -21.512  0.00  0.00    +0.000 OA
ATOM     46  H   UNL     1      -1.899   3.754 -20.560  0.00  0.00    +0.000 HD
ENDBRANCH  39  45
ENDBRANCH  34  36
ENDBRANCH   3  34
TORSDOF 11
ENDMDL
MODEL 2
REMARK VINA RESULT:      -7.0      1.536      2.213
REMARK  Name = 
REMARK  13 active torsions:
REMARK  status: ('A' for Active; 'I' for Inactive)
REMARK    1  A    between atoms: O_1  and  C_13
REMARK    2  A    between atoms: O_1  and  C_19
REMARK    3  A    between atoms: O_3  and  C_14
REMARK    4  A    between atoms: O_4  and  C_22
REMARK    5  A    between atoms: O_5  and  C_24
REMARK    6  A    between atoms: O_6  and  C_26
REMARK    7  A    between atoms: O_8  and  C_30
REMARK    8  A    between atoms: O_11  and  C_35
REMARK    9  A    between atoms: O_11  and  C_39
REMARK   10  A    between atoms: N_12  and  C_21
REMARK   11  A    between atoms: C_14  and  C_25
REMARK   12  A    between atoms: C_23  and  C_29
REMARK   13  A    between atoms: C_25  and  C_30
REMARK                            x       y       z     vdW  Elec       q    Type
REMARK                         _______ _______ _______ _____ _____    ______ ____
ROOT
ATOM      1  O   UNL     1       5.269   2.306 -18.702  0.00  0.00    +0.000 OA
ATOM      2  O   UNL     1       5.776  -2.734 -20.316  0.00  0.00    +0.000 OA
ATOM      3  C   UNL     1       0.404   0.713 -19.033  0.00  0.00    +0.000 C 
ATOM      4  C   UNL     1      -0.670  -1.415 -19.894  0.00  0.00    +0.000 C 
ATOM      5  C   UNL     1      -0.680  -0.340 -18.799  0.00  0.00    +0.000 C 
ATOM      6  C   UNL     1       0.690  -2.127 -19.943  0.00  0.00    +0.000 C 
ATOM      7  C   UNL     1       1.769   0.084 -19.235  0.00  0.00    +0.000 A 
ATOM      8  C   UNL     1       1.898  -1.240 -19.698  0.00  0.00    +0.000 A 
ATOM      9  C   UNL     1       2.933   0.842 -19.012  0.00  0.00    +0.000 A 
ATOM     10  C   UNL     1       3.184  -1.774 -19.898  0.00  0.00    +0.000 A 
ATOM     11  C   UNL     1       4.217   0.304 -19.226  0.00  0.00    +0.000 A 
ATOM     12  C   UNL     1       4.339  -1.008 -19.668  0.00  0.00    +0.000 A 
ATOM     13  C   UNL     1       5.427   1.126 -18.998  0.00  0.00    +0.000 C 
ATOM     14  C   UNL     1       5.677  -1.586 -19.893  0.00  0.00    +0.000 C 
ATOM     15  C   UNL     1       6.774   0.527 -19.153  0.00  0.00    +0.000 A 
ATOM     16  C   UNL     1       6.883  -0.791 -19.602  0.00  0.00    +0.000 A 
ATOM     17  C   UNL     1       7.950   1.241 -18.875  0.00  0.00    +0.000 A 
ATOM     18  C   UNL     1       8.142  -1.387 -19.773  0.00  0.00    +0.000 A 
ATOM     19  C   UNL     1       9.204   0.637 -19.022  0.00  0.00    +0.000 A 
ATOM     20  C   UNL     1       9.301  -0.673 -19.482  0.00  0.00    +0.000 A 
ENDROOT
BRANCH   4  21
ATOM     21  O   UNL     1      -0.966  -0.836 -21.171  0.00  0.00    +0.000 OA
ATOM     22  H   UNL     1      -1.506  -1.489 -21.665  0.00  0.00    +0.000 HD
ENDBRANCH   4  21
BRANCH   9  23
ATOM     23  O   UNL     1       2.760   2.134 -18.574  0.00  0.00    +0.000 OA
ATOM     24  H   UNL     1       1.883   2.459 -18.887  0.00  0.00    +0.000 HD
ENDBRANCH   9  23
BRANCH  10  25
ATOM     25  O   UNL     1       3.250  -3.078 -20.324  0.00  0.00    +0.000 OA
ATOM     26  H   UNL     1       2.397  -3.317 -20.753  0.00  0.00    +0.000 HD
ENDBRANCH  10  25
BRANCH   4  28
ATOM     27  O   UNL     1      -1.512  -3.577 -19.140  0.00  0.00    +0.000 OA
ATOM     28  C   UNL     1      -1.761  -2.460 -19.608  0.00  0.00    +0.000 C 
BRANCH  28  29
ATOM     29  C   UNL     1      -3.200  -2.079 -19.948  0.00  0.00    +0.000 C 
BRANCH  29  30
ATOM     30  O   UNL     1      -3.533  -2.452 -21.280  0.00  0.00    +0.000 OA
ATOM     31  H   UNL     1      -4.511  -2.441 -21.328  0.00  0.00    +0.000 HD
ENDBRANCH  29  30
ENDBRANCH  28  29
ENDBRANCH   4  28
BRANCH  17  32
ATOM     32  O   UNL     1       7.925   2.507 -18.353  0.00  0.00    +0.000 OA
ATOM     33  C   UNL     1       9.239   3.070 -18.334  0.00  0.00    +0.000 C 
ENDBRANCH  17  32
BRANCH   3  34
ATOM     34  O   UNL     1       0.105   1.421 -20.248  0.00  0.00    +0.000 OA
BRANCH  34  36
ATOM     35  O   UNL     1      -1.873   2.673 -20.510  0.00  0.00    +0.000 OA
ATOM     36  C   UNL     1      -0.541   2.673 -20.002  0.00  0.00    +0.000 C 
ATOM     37  C   UNL     1       0.305   3.800 -20.599  0.00  0.00    +0.000 C 
ATOM     38  C   UNL     1       0.265   3.764 -22.129  0.00  0.00    +0.000 C 
ATOM     39  C   UNL     1      -1.201   3.774 -22.608  0.00  0.00    +0.000 C 
ATOM     40  C   UNL     1      -1.952   2.607 -21.940  0.00  0.00    +0.000 C 
ATOM     41  C   UNL     1      -3.433   2.580 -22.302  0.00  0.00    +0.000 C 
BRANCH  38  42
ATOM     42  N   UNL     1       1.001   4.908 -22.696  0.00  0.00    +0.000 NA
ATOM     43  H   UNL     1       0.373   5.486 -23.251  0.00  0.00    +0.000 HD
ATOM     44  H   UNL     1       1.687   4.522 -23.355  0.00  0.00    +0.000 HD
ENDBRANCH  38  42
BRANCH  39  45
ATOM     45  O   UNL     1      -1.781   5.046 -22.262  0.00  0.00    +0.000 OA
ATOM     46  H   UNL     1      -1.627   5.189 -21.313  0.00  0.00    +0.000 HD
ENDBRANCH  39  45
ENDBRANCH  34  36
ENDBRANCH   3  34
TORSDOF 11
ENDMDL
MODEL 3
REMARK VINA RESULT:      -6.8      2.831      9.374
REMARK  Name = 
REMARK  13 active torsions:
REMARK  status: ('A' for Active; 'I' for Inactive)
REMARK    1  A    between atoms: O_1  and  C_13
REMARK    2  A    between atoms: O_1  and  C_19
REMARK    3  A    between atoms: O_3  and  C_14
REMARK    4  A    between atoms: O_4  and  C_22
REMARK    5  A    between atoms: O_5  and  C_24
REMARK    6  A    between atoms: O_6  and  C_26
REMARK    7  A    between atoms: O_8  and  C_30
REMARK    8  A    between atoms: O_11  and  C_35
REMARK    9  A    between atoms: O_11  and  C_39
REMARK   10  A    between atoms: N_12  and  C_21
REMARK   11  A    between atoms: C_14  and  C_25
REMARK   12  A    between atoms: C_23  and  C_29
REMARK   13  A    between atoms: C_25  and  C_30
REMARK                            x       y       z     vdW  Elec       q    Type
REMARK                         _______ _______ _______ _____ _____    ______ ____
ROOT
ATOM      1  O   UNL     1       4.524  -2.908 -20.065  0.00  0.00    +0.000 OA
ATOM      2  O   UNL     1       2.795   1.892 -18.568  0.00  0.00    +0.000 OA
ATOM      3  C   UNL     1       8.871  -0.403 -18.997  0.00  0.00    +0.000 C 
ATOM      4  C   UNL     1       9.384   2.004 -18.397  0.00  0.00    +0.000 C 
ATOM      5  C   UNL     1       9.697   0.530 -18.110  0.00  0.00    +0.000 C 
ATOM      6  C   UNL     1       7.897   2.301 -18.153  0.00  0.00    +0.000 C 
ATOM      7  C   UNL     1       7.391  -0.087 -18.926  0.00  0.00    +0.000 A 
ATOM      8  C   UNL     1       6.939   1.197 -18.565  0.00  0.00    +0.000 A 
ATOM      9  C   UNL     1       6.444  -1.067 -19.279  0.00  0.00    +0.000 A 
ATOM     10  C   UNL     1       5.556   1.455 -18.540  0.00  0.00    +0.000 A 
ATOM     11  C   UNL     1       5.061  -0.797 -19.262  0.00  0.00    +0.000 A 
ATOM     12  C   UNL     1       4.620   0.467 -18.890  0.00  0.00    +0.000 A 
ATOM     13  C   UNL     1       4.085  -1.839 -19.651  0.00  0.00    +0.000 C 
ATOM     14  C   UNL     1       3.175   0.763 -18.865  0.00  0.00    +0.000 C 
ATOM     15  C   UNL     1       2.630  -1.569 -19.558  0.00  0.00    +0.000 A 
ATOM     16  C   UNL     1       2.200  -0.294 -19.186  0.00  0.00    +0.000 A 
ATOM     17  C   UNL     1       1.665  -2.548 -19.841  0.00  0.00    +0.000 A 
ATOM     18  C   UNL     1       0.831   0.003 -19.101  0.00  0.00    +0.000 A 
ATOM     19  C   UNL     1       0.300  -2.258 -19.730  0.00  0.00    +0.000 A 
ATOM     20  C   UNL     1      -0.117  -0.979 -19.371  0.00  0.00    +0.000 A 
ENDROOT
BRANCH   4  21
ATOM     21  O   UNL     1       9.738   2.342 -19.744  0.00  0.00    +0.000 OA
ATOM     22  H   UNL     1      10.644   1.999 -19.898  0.00  0.00    +0.000 HD
ENDBRANCH   4  21
BRANCH   9  23
ATOM     23  O   UNL     1       6.931  -2.301 -19.638  0.00  0.00    +0.000 OA
ATOM     24  H   UNL     1       7.909  -2.303 -19.514  0.00  0.00    +0.000 HD
ENDBRANCH   9  23
BRANCH  10  25
ATOM     25  O   UNL     1       5.171   2.716 -18.154  0.00  0.00    +0.000 OA
ATOM     26  H   UNL     1       4.191   2.738 -18.072  0.00  0.00    +0.000 HD
ENDBRANCH  10  25
BRANCH   4  28
ATOM     27  O   UNL     1      10.060   4.128 -17.403  0.00  0.00    +0.000 OA
ATOM     28  C   UNL     1      10.222   2.904 -17.472  0.00  0.00    +0.000 C 
BRANCH  28  29
ATOM     29  C   UNL     1      11.303   2.229 -16.632  0.00  0.00    +0.000 C 
BRANCH  29  30
ATOM     30  O   UNL     1      11.205   2.604 -15.263  0.00  0.00    +0.000 OA
ATOM     31  H   UNL     1      10.248   2.635 -15.058  0.00  0.00    +0.000 HD
ENDBRANCH  29  30
ENDBRANCH  28  29
ENDBRANCH   4  28
BRANCH  17  32
ATOM     32  O   UNL     1       2.006  -3.842 -20.130  0.00  0.00    +0.000 OA
ATOM     33  C   UNL     1       1.439  -4.739 -19.172  0.00  0.00    +0.000 C 
ENDBRANCH  17  32
BRANCH   3  34
ATOM     34  O   UNL     1       9.261  -0.203 -20.367  0.00  0.00    +0.000 OA
BRANCH  34  36
ATOM     35  O   UNL     1      11.457   0.179 -21.126  0.00  0.00    +0.000 OA
ATOM     36  C   UNL     1      10.527  -0.798 -20.664  0.00  0.00    +0.000 C 
ATOM     37  C   UNL     1      10.326  -1.928 -21.676  0.00  0.00    +0.000 C 
ATOM     38  C   UNL     1       9.952  -1.371 -23.052  0.00  0.00    +0.000 C 
ATOM     39  C   UNL     1      11.001  -0.330 -23.492  0.00  0.00    +0.000 C 
ATOM     40  C   UNL     1      11.122   0.748 -22.398  0.00  0.00    +0.000 C 
ATOM     41  C   UNL     1      12.193   1.786 -22.716  0.00  0.00    +0.000 C 
BRANCH  38  42
ATOM     42  N   UNL     1       9.854  -2.457 -24.044  0.00  0.00    +0.000 NA
ATOM     43  H   UNL     1      10.783  -2.807 -24.271  0.00  0.00    +0.000 HD
ATOM     44  H   UNL     1       9.490  -2.039 -24.907  0.00  0.00    +0.000 HD
ENDBRANCH  38  42
BRANCH  39  45
ATOM     45  O   UNL     1      12.251  -1.012 -23.707  0.00  0.00    +0.000 OA
ATOM     46  H   UNL     1      12.959  -0.436 -23.374  0.00  0.00    +0.000 HD
ENDBRANCH  39  45
ENDBRANCH  34  36
ENDBRANCH   3  34
TORSDOF 11
ENDMDL
MODEL 4
REMARK VINA RESULT:      -6.7      6.910     10.910
REMARK  Name = 
REMARK  13 active torsions:
REMARK  status: ('A' for Active; 'I' for Inactive)
REMARK    1  A    between atoms: O_1  and  C_13
REMARK    2  A    between atoms: O_1  and  C_19
REMARK    3  A    between atoms: O_3  and  C_14
REMARK    4  A    between atoms: O_4  and  C_22
REMARK    5  A    between atoms: O_5  and  C_24
REMARK    6  A    between atoms: O_6  and  C_26
REMARK    7  A    between atoms: O_8  and  C_30
REMARK    8  A    between atoms: O_11  and  C_35
REMARK    9  A    between atoms: O_11  and  C_39
REMARK   10  A    between atoms: N_12  and  C_21
REMARK   11  A    between atoms: C_14  and  C_25
REMARK   12  A    between atoms: C_23  and  C_29
REMARK   13  A    between atoms: C_25  and  C_30
REMARK                            x       y       z     vdW  Elec       q    Type
REMARK                         _______ _______ _______ _____ _____    ______ ____
ROOT
ATOM      1  O   UNL     1      -3.938   1.058 -22.239  0.00  0.00    +0.000 OA
ATOM      2  O   UNL     1      -2.553  -1.764 -17.951  0.00  0.00    +0.000 OA
ATOM      3  C   UNL     1      -8.355  -1.141 -20.836  0.00  0.00    +0.000 C 
ATOM      4  C   UNL     1      -8.952  -2.872 -19.084  0.00  0.00    +0.000 C 
ATOM      5  C   UNL     1      -9.363  -1.559 -19.764  0.00  0.00    +0.000 C 
ATOM      6  C   UNL     1      -7.575  -2.731 -18.420  0.00  0.00    +0.000 C 
ATOM      7  C   UNL     1      -6.938  -1.113 -20.299  0.00  0.00    +0.000 A 
ATOM      8  C   UNL     1      -6.567  -1.891 -19.185  0.00  0.00    +0.000 A 
ATOM      9  C   UNL     1      -5.954  -0.343 -20.948  0.00  0.00    +0.000 A 
ATOM     10  C   UNL     1      -5.234  -1.856 -18.738  0.00  0.00    +0.000 A 
ATOM     11  C   UNL     1      -4.619  -0.323 -20.501  0.00  0.00    +0.000 A 
ATOM     12  C   UNL     1      -4.262  -1.080 -19.392  0.00  0.00    +0.000 A 
ATOM     13  C   UNL     1      -3.599   0.483 -21.209  0.00  0.00    +0.000 C 
ATOM     14  C   UNL     1      -2.868  -1.066 -18.911  0.00  0.00    +0.000 C 
ATOM     15  C   UNL     1      -2.214   0.557 -20.686  0.00  0.00    +0.000 A 
ATOM     16  C   UNL     1      -1.867  -0.212 -19.573  0.00  0.00    +0.000 A 
ATOM     17  C   UNL     1      -1.230   1.367 -21.276  0.00  0.00    +0.000 A 
ATOM     18  C   UNL     1      -0.561  -0.178 -19.058  0.00  0.00    +0.000 A 
ATOM     19  C   UNL     1       0.064   1.420 -20.745  0.00  0.00    +0.000 A 
ATOM     20  C   UNL     1       0.402   0.639 -19.644  0.00  0.00    +0.000 A 
ENDROOT
BRANCH   4  21
ATOM     21  O   UNL     1      -8.932  -3.946 -20.033  0.00  0.00    +0.000 OA
ATOM     22  H   UNL     1      -9.860  -4.101 -20.312  0.00  0.00    +0.000 HD
ENDBRANCH   4  21
BRANCH   9  23
ATOM     23  O   UNL     1      -6.358   0.389 -22.040  0.00  0.00    +0.000 OA
ATOM     24  H   UNL     1      -6.565  -0.231 -22.777  0.00  0.00    +0.000 HD
ENDBRANCH   9  23
BRANCH  10  25
ATOM     25  O   UNL     1      -4.935  -2.612 -17.631  0.00  0.00    +0.000 OA
ATOM     26  H   UNL     1      -5.105  -3.560 -17.838  0.00  0.00    +0.000 HD
ENDBRANCH  10  25
BRANCH   4  28
ATOM     27  O   UNL     1     -10.441  -4.385 -17.881  0.00  0.00    +0.000 OA
ATOM     28  C   UNL     1      -9.982  -3.243 -18.004  0.00  0.00    +0.000 C 
BRANCH  28  29
ATOM     29  C   UNL     1     -10.452  -2.128 -17.074  0.00  0.00    +0.000 C 
BRANCH  29  30
ATOM     30  O   UNL     1     -10.819  -2.639 -15.797  0.00  0.00    +0.000 OA
ATOM     31  H   UNL     1     -10.653  -1.916 -15.158  0.00  0.00    +0.000 HD
ENDBRANCH  29  30
ENDBRANCH  28  29
ENDBRANCH   4  28
BRANCH  17  32
ATOM     32  O   UNL     1      -1.513   2.212 -22.316  0.00  0.00    +0.000 OA
ATOM     33  C   UNL     1      -0.386   2.334 -23.186  0.00  0.00    +0.000 C 
ENDBRANCH  17  32
BRANCH   3  34
ATOM     34  O   UNL     1      -8.367  -2.121 -21.888  0.00  0.00    +0.000 OA
BRANCH  34  36
ATOM     35  O   UNL     1     -10.474  -1.842 -22.903  0.00  0.00    +0.000 OA
ATOM     36  C   UNL     1      -9.067  -1.663 -23.049  0.00  0.00    +0.000 C 
ATOM     37  C   UNL     1      -8.518  -2.384 -24.282  0.00  0.00    +0.000 C 
ATOM     38  C   UNL     1      -8.921  -3.861 -24.280  0.00  0.00    +0.000 C 
ATOM     39  C   UNL     1     -10.451  -3.978 -24.128  0.00  0.00    +0.000 C 
ATOM     40  C   UNL     1     -10.887  -3.213 -22.864  0.00  0.00    +0.000 C 
ATOM     41  C   UNL     1     -12.400  -3.216 -22.671  0.00  0.00    +0.000 C 
BRANCH  38  42
ATOM     42  N   UNL     1      -8.472  -4.526 -25.516  0.00  0.00    +0.000 NA
ATOM     43  H   UNL     1      -7.670  -5.122 -25.320  0.00  0.00    +0.000 HD
ATOM     44  H   UNL     1      -8.131  -3.789 -26.143  0.00  0.00    +0.000 HD
ENDBRANCH  38  42
BRANCH  39  45
ATOM     45  O   UNL     1     -11.065  -3.439 -25.313  0.00  0.00    +0.000 OA
ATOM     46  H   UNL     1     -10.758  -3.969 -26.068  0.00  0.00    +0.000 HD
ENDBRANCH  39  45
ENDBRANCH  34  36
ENDBRANCH   3  34
TORSDOF 11
ENDMDL
MODEL 5
REMARK VINA RESULT:      -6.5      2.857      8.468
REMARK  Name = 
REMARK  13 active torsions:
REMARK  status: ('A' for Active; 'I' for Inactive)
REMARK    1  A    between atoms: O_1  and  C_13
REMARK    2  A    between atoms: O_1  and  C_19
REMARK    3  A    between atoms: O_3  and  C_14
REMARK    4  A    between atoms: O_4  and  C_22
REMARK    5  A    between atoms: O_5  and  C_24
REMARK    6  A    between atoms: O_6  and  C_26
REMARK    7  A    between atoms: O_8  and  C_30
REMARK    8  A    between atoms: O_11  and  C_35
REMARK    9  A    between atoms: O_11  and  C_39
REMARK   10  A    between atoms: N_12  and  C_21
REMARK   11  A    between atoms: C_14  and  C_25
REMARK   12  A    between atoms: C_23  and  C_29
REMARK   13  A    between atoms: C_25  and  C_30
REMARK                            x       y       z     vdW  Elec       q    Type
REMARK                         _______ _______ _______ _____ _____    ______ ____
ROOT
ATOM      1  O   UNL     1       3.958   1.297 -19.711  0.00  0.00    +0.000 OA
ATOM      2  O   UNL     1       2.545  -3.827 -19.585  0.00  0.00    +0.000 OA
ATOM      3  C   UNL     1       8.370  -1.133 -20.680  0.00  0.00    +0.000 C 
ATOM      4  C   UNL     1       9.042  -3.576 -20.673  0.00  0.00    +0.000 C 
ATOM      5  C   UNL     1       9.170  -2.226 -21.390  0.00  0.00    +0.000 C 
ATOM      6  C   UNL     1       7.574  -4.020 -20.608  0.00  0.00    +0.000 C 
ATOM      7  C   UNL     1       6.930  -1.548 -20.446  0.00  0.00    +0.000 A 
ATOM      8  C   UNL     1       6.567  -2.907 -20.377  0.00  0.00    +0.000 A 
ATOM      9  C   UNL     1       5.941  -0.569 -20.239  0.00  0.00    +0.000 A 
ATOM     10  C   UNL     1       5.225  -3.246 -20.130  0.00  0.00    +0.000 A 
ATOM     11  C   UNL     1       4.600  -0.917 -19.981  0.00  0.00    +0.000 A 
ATOM     12  C   UNL     1       4.245  -2.260 -19.929  0.00  0.00    +0.000 A 
ATOM     13  C   UNL     1       3.580   0.131 -19.753  0.00  0.00    +0.000 C 
ATOM     14  C   UNL     1       2.845  -2.639 -19.663  0.00  0.00    +0.000 C 
ATOM     15  C   UNL     1       2.159  -0.244 -19.557  0.00  0.00    +0.000 A 
ATOM     16  C   UNL     1       1.815  -1.597 -19.503  0.00  0.00    +0.000 A 
ATOM     17  C   UNL     1       1.142   0.713 -19.413  0.00  0.00    +0.000 A 
ATOM     18  C   UNL     1       0.482  -1.989 -19.305  0.00  0.00    +0.000 A 
ATOM     19  C   UNL     1      -0.190   0.320 -19.242  0.00  0.00    +0.000 A 
ATOM     20  C   UNL     1      -0.519  -1.031 -19.177  0.00  0.00    +0.000 A 
ENDROOT
BRANCH   4  21
ATOM     21  O   UNL     1       9.589  -3.498 -19.351  0.00  0.00    +0.000 OA
ATOM     22  H   UNL     1       8.847  -3.293 -18.743  0.00  0.00    +0.000 HD
ENDBRANCH   4  21
BRANCH   9  23
ATOM     23  O   UNL     1       6.342   0.745 -20.302  0.00  0.00    +0.000 OA
ATOM     24  H   UNL     1       5.585   1.292 -20.617  0.00  0.00    +0.000 HD
ENDBRANCH   9  23
BRANCH  10  25
ATOM     25  O   UNL     1       4.923  -4.586 -20.101  0.00  0.00    +0.000 OA
ATOM     26  H   UNL     1       4.562  -4.811 -19.214  0.00  0.00    +0.000 HD
ENDBRANCH  10  25
BRANCH   4  28
ATOM     27  O   UNL     1       9.649  -4.913 -22.622  0.00  0.00    +0.000 OA
ATOM     28  C   UNL     1       9.846  -4.647 -21.431  0.00  0.00    +0.000 C 
BRANCH  28  29
ATOM     29  C   UNL     1      10.910  -5.409 -20.644  0.00  0.00    +0.000 C 
BRANCH  29  30
ATOM     30  O   UNL     1      10.324  -6.390 -19.797  0.00  0.00    +0.000 OA
ATOM     31  H   UNL     1       9.942  -5.902 -19.039  0.00  0.00    +0.000 HD
ENDBRANCH  29  30
ENDBRANCH  28  29
ENDBRANCH   4  28
BRANCH  17  32
ATOM     32  O   UNL     1       1.386   2.055 -19.538  0.00  0.00    +0.000 OA
ATOM     33  C   UNL     1       0.612   2.610 -20.604  0.00  0.00    +0.000 C 
ENDBRANCH  17  32
BRANCH   3  34
ATOM     34  O   UNL     1       8.941  -0.915 -19.379  0.00  0.00    +0.000 OA
BRANCH  34  36
ATOM     35  O   UNL     1      10.972  -0.385 -18.309  0.00  0.00    +0.000 OA
ATOM     36  C   UNL     1      10.135  -0.129 -19.435  0.00  0.00    +0.000 C 
ATOM     37  C   UNL     1       9.756   1.350 -19.548  0.00  0.00    +0.000 C 
ATOM     38  C   UNL     1       9.149   1.862 -18.240  0.00  0.00    +0.000 C 
ATOM     39  C   UNL     1      10.107   1.560 -17.070  0.00  0.00    +0.000 C 
ATOM     40  C   UNL     1      10.421   0.051 -17.060  0.00  0.00    +0.000 C 
ATOM     41  C   UNL     1      11.422  -0.331 -15.976  0.00  0.00    +0.000 C 
BRANCH  38  42
ATOM     42  N   UNL     1       8.876   3.309 -18.323  0.00  0.00    +0.000 NA
ATOM     43  H   UNL     1       9.184   3.771 -17.470  0.00  0.00    +0.000 HD
ATOM     44  H   UNL     1       7.856   3.418 -18.352  0.00  0.00    +0.000 HD
ENDBRANCH  38  42
BRANCH  39  45
ATOM     45  O   UNL     1      11.298   2.349 -17.247  0.00  0.00    +0.000 OA
ATOM     46  H   UNL     1      11.895   1.851 -17.831  0.00  0.00    +0.000 HD
ENDBRANCH  39  45
ENDBRANCH  34  36
ENDBRANCH   3  34
TORSDOF 11
ENDMDL
MODEL 6
REMARK VINA RESULT:      -6.4     11.354     14.069
REMARK  Name = 
REMARK  13 active torsions:
REMARK  status: ('A' for Active; 'I' for Inactive)
REMARK    1  A    between atoms: O_1  and  C_13
REMARK    2  A    between atoms: O_1  and  C_19
REMARK    3  A    between atoms: O_3  and  C_14
REMARK    4  A    between atoms: O_4  and  C_22
REMARK    5  A    between atoms: O_5  and  C_24
REMARK    6  A    between atoms: O_6  and  C_26
REMARK    7  A    between atoms: O_8  and  C_30
REMARK    8  A    between atoms: O_11  and  C_35
REMARK    9  A    between atoms: O_11  and  C_39
REMARK   10  A    between atoms: N_12  and  C_21
REMARK   11  A    between atoms: C_14  and  C_25
REMARK   12  A    between atoms: C_23  and  C_29
REMARK   13  A    between atoms: C_25  and  C_30
REMARK                            x       y       z     vdW  Elec       q    Type
REMARK                         _______ _______ _______ _____ _____    ______ ____
ROOT
ATOM      1  O   UNL     1      15.037  12.460 -20.701  0.00  0.00    +0.000 OA
ATOM      2  O   UNL     1      12.153  10.114 -16.899  0.00  0.00    +0.000 OA
ATOM      3  C   UNL     1      10.440  11.927 -22.912  0.00  0.00    +0.000 C 
ATOM      4  C   UNL     1       8.300  10.768 -22.208  0.00  0.00    +0.000 C 
ATOM      5  C   UNL     1       8.913  12.010 -22.867  0.00  0.00    +0.000 C 
ATOM      6  C   UNL     1       8.815  10.605 -20.771  0.00  0.00    +0.000 C 
ATOM      7  C   UNL     1      11.030  11.626 -21.549  0.00  0.00    +0.000 A 
ATOM      8  C   UNL     1      10.273  10.971 -20.558  0.00  0.00    +0.000 A 
ATOM      9  C   UNL     1      12.372  11.951 -21.275  0.00  0.00    +0.000 A 
ATOM     10  C   UNL     1      10.870  10.686 -19.317  0.00  0.00    +0.000 A 
ATOM     11  C   UNL     1      12.965  11.652 -20.034  0.00  0.00    +0.000 A 
ATOM     12  C   UNL     1      12.209  11.020 -19.053  0.00  0.00    +0.000 A 
ATOM     13  C   UNL     1      14.382  11.992 -19.774  0.00  0.00    +0.000 C 
ATOM     14  C   UNL     1      12.817  10.703 -17.747  0.00  0.00    +0.000 C 
ATOM     15  C   UNL     1      14.976  11.741 -18.439  0.00  0.00    +0.000 A 
ATOM     16  C   UNL     1      14.207  11.101 -17.464  0.00  0.00    +0.000 A 
ATOM     17  C   UNL     1      16.291  12.114 -18.119  0.00  0.00    +0.000 A 
ATOM     18  C   UNL     1      14.740  10.835 -16.193  0.00  0.00    +0.000 A 
ATOM     19  C   UNL     1      16.812  11.871 -16.843  0.00  0.00    +0.000 A 
ATOM     20  C   UNL     1      16.040  11.222 -15.883  0.00  0.00    +0.000 A 
ENDROOT
BRANCH   4  21
ATOM     21  O   UNL     1       8.598   9.592 -22.972  0.00  0.00    +0.000 OA
ATOM     22  H   UNL     1       7.884   9.492 -23.637  0.00  0.00    +0.000 HD
ENDBRANCH   4  21
BRANCH   9  23
ATOM     23  O   UNL     1      13.077  12.577 -22.276  0.00  0.00    +0.000 OA
ATOM     24  H   UNL     1      13.518  13.375 -21.900  0.00  0.00    +0.000 HD
ENDBRANCH   9  23
BRANCH  10  25
ATOM     25  O   UNL     1      10.077  10.072 -18.378  0.00  0.00    +0.000 OA
ATOM     26  H   UNL     1      10.559  10.048 -17.520  0.00  0.00    +0.000 HD
ENDBRANCH  10  25
BRANCH   4  28
ATOM     27  O   UNL     1       6.176  11.553 -21.299  0.00  0.00    +0.000 OA
ATOM     28  C   UNL     1       6.768  10.902 -22.168  0.00  0.00    +0.000 C 
BRANCH  28  29
ATOM     29  C   UNL     1       5.974  10.172 -23.249  0.00  0.00    +0.000 C 
BRANCH  29  30
ATOM     30  O   UNL     1       5.686   8.833 -22.864  0.00  0.00    +0.000 OA
ATOM     31  H   UNL     1       6.157   8.687 -22.018  0.00  0.00    +0.000 HD
ENDBRANCH  29  30
ENDBRANCH  28  29
ENDBRANCH   4  28
BRANCH  17  32
ATOM     32  O   UNL     1      17.078  12.818 -18.990  0.00  0.00    +0.000 OA
ATOM     33  C   UNL     1      18.454  12.723 -18.615  0.00  0.00    +0.000 C 
ENDBRANCH  17  32
BRANCH   3  34
ATOM     34  O   UNL     1      10.818  10.832 -23.765  0.00  0.00    +0.000 OA
BRANCH  34  36
ATOM     35  O   UNL     1       9.773  10.419 -25.834  0.00  0.00    +0.000 OA
ATOM     36  C   UNL     1      10.766  11.180 -25.151  0.00  0.00    +0.000 C 
ATOM     37  C   UNL     1      12.156  11.001 -25.766  0.00  0.00    +0.000 C 
ATOM     38  C   UNL     1      12.524   9.519 -25.866  0.00  0.00    +0.000 C 
ATOM     39  C   UNL     1      11.414   8.760 -26.621  0.00  0.00    +0.000 C 
ATOM     40  C   UNL     1      10.067   9.019 -25.920  0.00  0.00    +0.000 C 
ATOM     41  C   UNL     1       8.896   8.362 -26.643  0.00  0.00    +0.000 C 
BRANCH  38  42
ATOM     42  N   UNL     1      13.821   9.348 -26.546  0.00  0.00    +0.000 NA
ATOM     43  H   UNL     1      14.172   8.404 -26.396  0.00  0.00    +0.000 HD
ATOM     44  H   UNL     1      14.486   9.975 -26.079  0.00  0.00    +0.000 HD
ENDBRANCH  38  42
BRANCH  39  45
ATOM     45  O   UNL     1      11.400   9.221 -27.985  0.00  0.00    +0.000 OA
ATOM     46  H   UNL     1      10.575   9.717 -28.118  0.00  0.00    +0.000 HD
ENDBRANCH  39  45
ENDBRANCH  34  36
ENDBRANCH   3  34
TORSDOF 11
ENDMDL
MODEL 7
REMARK VINA RESULT:      -6.4     17.081     19.273
REMARK  Name = 
REMARK  13 active torsions:
REMARK  status: ('A' for Active; 'I' for Inactive)
REMARK    1  A    between atoms: O_1  and  C_13
REMARK    2  A    between atoms: O_1  and  C_19
REMARK    3  A    between atoms: O_3  and  C_14
REMARK    4  A    between atoms: O_4  and  C_22
REMARK    5  A    between atoms: O_5  and  C_24
REMARK    6  A    between atoms: O_6  and  C_26
REMARK    7  A    between atoms: O_8  and  C_30
REMARK    8  A    between atoms: O_11  and  C_35
REMARK    9  A    between atoms: O_11  and  C_39
REMARK   10  A    between atoms: N_12  and  C_21
REMARK   11  A    between atoms: C_14  and  C_25
REMARK   12  A    between atoms: C_23  and  C_29
REMARK   13  A    between atoms: C_25  and  C_30
REMARK                            x       y       z     vdW  Elec       q    Type
REMARK                         _______ _______ _______ _____ _____    ______ ____
ROOT
ATOM      1  O   UNL     1      -4.963 -17.467 -17.642  0.00  0.00    +0.000 OA
ATOM      2  O   UNL     1      -2.780 -14.188 -21.212  0.00  0.00    +0.000 OA
ATOM      3  C   UNL     1      -9.047 -15.515 -20.054  0.00  0.00    +0.000 C 
ATOM      4  C   UNL     1      -9.328 -13.694 -21.793  0.00  0.00    +0.000 C 
ATOM      5  C   UNL     1      -9.771 -15.088 -21.331  0.00  0.00    +0.000 C 
ATOM      6  C   UNL     1      -7.817 -13.667 -22.065  0.00  0.00    +0.000 C 
ATOM      7  C   UNL     1      -7.542 -15.384 -20.187  0.00  0.00    +0.000 A 
ATOM      8  C   UNL     1      -6.970 -14.487 -21.109  0.00  0.00    +0.000 A 
ATOM      9  C   UNL     1      -6.694 -16.126 -19.343  0.00  0.00    +0.000 A 
ATOM     10  C   UNL     1      -5.569 -14.378 -21.178  0.00  0.00    +0.000 A 
ATOM     11  C   UNL     1      -5.293 -16.002 -19.411  0.00  0.00    +0.000 A 
ATOM     12  C   UNL     1      -4.733 -15.126 -20.334  0.00  0.00    +0.000 A 
ATOM     13  C   UNL     1      -4.422 -16.782 -18.504  0.00  0.00    +0.000 C 
ATOM     14  C   UNL     1      -3.267 -14.988 -20.419  0.00  0.00    +0.000 C 
ATOM     15  C   UNL     1      -2.947 -16.700 -18.635  0.00  0.00    +0.000 A 
ATOM     16  C   UNL     1      -2.397 -15.814 -19.562  0.00  0.00    +0.000 A 
ATOM     17  C   UNL     1      -2.080 -17.477 -17.850  0.00  0.00    +0.000 A 
ATOM     18  C   UNL     1      -1.005 -15.700 -19.705  0.00  0.00    +0.000 A 
ATOM     19  C   UNL     1      -0.692 -17.381 -18.012  0.00  0.00    +0.000 A 
ATOM     20  C   UNL     1      -0.155 -16.484 -18.931  0.00  0.00    +0.000 A 
ENDROOT
BRANCH   4  21
ATOM     21  O   UNL     1      -9.667 -12.707 -20.811  0.00  0.00    +0.000 OA
ATOM     22  H   UNL     1      -9.538 -13.120 -19.931  0.00  0.00    +0.000 HD
ENDBRANCH   4  21
BRANCH   9  23
ATOM     23  O   UNL     1      -7.297 -16.979 -18.449  0.00  0.00    +0.000 OA
ATOM     24  H   UNL     1      -7.337 -16.537 -17.569  0.00  0.00    +0.000 HD
ENDBRANCH   9  23
BRANCH  10  25
ATOM     25  O   UNL     1      -5.065 -13.507 -22.114  0.00  0.00    +0.000 OA
ATOM     26  H   UNL     1      -5.065 -13.950 -22.994  0.00  0.00    +0.000 HD
ENDBRANCH  10  25
BRANCH   4  28
ATOM     27  O   UNL     1      -9.481 -12.915 -24.100  0.00  0.00    +0.000 OA
ATOM     28  C   UNL     1     -10.067 -13.314 -23.088  0.00  0.00    +0.000 C 
BRANCH  28  29
ATOM     29  C   UNL     1     -11.590 -13.427 -23.082  0.00  0.00    +0.000 C 
BRANCH  29  30
ATOM     30  O   UNL     1     -12.186 -12.334 -22.393  0.00  0.00    +0.000 OA
ATOM     31  H   UNL     1     -12.023 -11.543 -22.947  0.00  0.00    +0.000 HD
ENDBRANCH  29  30
ENDBRANCH  28  29
ENDBRANCH   4  28
BRANCH  17  32
ATOM     32  O   UNL     1      -2.542 -18.427 -16.980  0.00  0.00    +0.000 OA
ATOM     33  C   UNL     1      -2.089 -18.156 -15.651  0.00  0.00    +0.000 C 
ENDBRANCH  17  32
BRANCH   3  34
ATOM     34  O   UNL     1      -9.434 -14.633 -18.987  0.00  0.00    +0.000 OA
BRANCH  34  36
ATOM     35  O   UNL     1     -11.703 -14.057 -18.722  0.00  0.00    +0.000 OA
ATOM     36  C   UNL     1     -10.686 -15.004 -18.402  0.00  0.00    +0.000 C 
ATOM     37  C   UNL     1     -10.505 -15.169 -16.892  0.00  0.00    +0.000 C 
ATOM     38  C   UNL     1     -10.275 -13.815 -16.216  0.00  0.00    +0.000 C 
ATOM     39  C   UNL     1     -11.412 -12.846 -16.597  0.00  0.00    +0.000 C 
ATOM     40  C   UNL     1     -11.504 -12.766 -18.133  0.00  0.00    +0.000 C 
ATOM     41  C   UNL     1     -12.653 -11.881 -18.605  0.00  0.00    +0.000 C 
BRANCH  38  42
ATOM     42  N   UNL     1     -10.198 -13.970 -14.752  0.00  0.00    +0.000 NA
ATOM     43  H   UNL     1     -10.844 -14.694 -14.443  0.00  0.00    +0.000 HD
ATOM     44  H   UNL     1     -10.538 -13.094 -14.342  0.00  0.00    +0.000 HD
ENDBRANCH  38  42
BRANCH  39  45
ATOM     45  O   UNL     1     -12.636 -13.335 -16.017  0.00  0.00    +0.000 OA
ATOM     46  H   UNL     1     -13.362 -12.793 -16.367  0.00  0.00    +0.000 HD
ENDBRANCH  39  45
ENDBRANCH  34  36
ENDBRANCH   3  34
TORSDOF 11
ENDMDL
MODEL 8
REMARK VINA RESULT:      -6.3      4.801     10.814
REMARK  Name = 
REMARK  13 active torsions:
REMARK  status: ('A' for Active; 'I' for Inactive)
REMARK    1  A    between atoms: O_1  and  C_13
REMARK    2  A    between atoms: O_1  and  C_19
REMARK    3  A    between atoms: O_3  and  C_14
REMARK    4  A    between atoms: O_4  and  C_22
REMARK    5  A    between atoms: O_5  and  C_24
REMARK    6  A    between atoms: O_6  and  C_26
REMARK    7  A    between atoms: O_8  and  C_30
REMARK    8  A    between atoms: O_11  and  C_35
REMARK    9  A    between atoms: O_11  and  C_39
REMARK   10  A    between atoms: N_12  and  C_21
REMARK   11  A    between atoms: C_14  and  C_25
REMARK   12  A    between atoms: C_23  and  C_29
REMARK   13  A    between atoms: C_25  and  C_30
REMARK                            x       y       z     vdW  Elec       q    Type
REMARK                         _______ _______ _______ _____ _____    ______ ____
ROOT
ATOM      1  O   UNL     1      -6.298  -0.897 -22.560  0.00  0.00    +0.000 OA
ATOM      2  O   UNL     1      -5.921  -2.102 -17.396  0.00  0.00    +0.000 OA
ATOM      3  C   UNL     1      -1.342  -0.051 -21.543  0.00  0.00    +0.000 C 
ATOM      4  C   UNL     1       0.016  -0.058 -19.404  0.00  0.00    +0.000 C 
ATOM      5  C   UNL     1      -0.021  -0.454 -20.886  0.00  0.00    +0.000 C 
ATOM      6  C   UNL     1      -1.129  -0.730 -18.633  0.00  0.00    +0.000 C 
ATOM      7  C   UNL     1      -2.539  -0.558 -20.763  0.00  0.00    +0.000 A 
ATOM      8  C   UNL     1      -2.443  -0.841 -19.387  0.00  0.00    +0.000 A 
ATOM      9  C   UNL     1      -3.785  -0.700 -21.401  0.00  0.00    +0.000 A 
ATOM     10  C   UNL     1      -3.586  -1.282 -18.697  0.00  0.00    +0.000 A 
ATOM     11  C   UNL     1      -4.929  -1.131 -20.700  0.00  0.00    +0.000 A 
ATOM     12  C   UNL     1      -4.825  -1.423 -19.345  0.00  0.00    +0.000 A 
ATOM     13  C   UNL     1      -6.232  -1.259 -21.390  0.00  0.00    +0.000 C 
ATOM     14  C   UNL     1      -6.013  -1.879 -18.599  0.00  0.00    +0.000 C 
ATOM     15  C   UNL     1      -7.411  -1.785 -20.661  0.00  0.00    +0.000 A 
ATOM     16  C   UNL     1      -7.295  -2.071 -19.299  0.00  0.00    +0.000 A 
ATOM     17  C   UNL     1      -8.649  -1.997 -21.289  0.00  0.00    +0.000 A 
ATOM     18  C   UNL     1      -8.394  -2.558 -18.574  0.00  0.00    +0.000 A 
ATOM     19  C   UNL     1      -9.736  -2.507 -20.570  0.00  0.00    +0.000 A 
ATOM     20  C   UNL     1      -9.612  -2.777 -19.210  0.00  0.00    +0.000 A 
ENDROOT
BRANCH   4  21
ATOM     21  O   UNL     1      -0.066   1.366 -19.261  0.00  0.00    +0.000 OA
ATOM     22  H   UNL     1      -0.724   1.684 -19.916  0.00  0.00    +0.000 HD
ENDBRANCH   4  21
BRANCH   9  23
ATOM     23  O   UNL     1      -3.836  -0.399 -22.742  0.00  0.00    +0.000 OA
ATOM     24  H   UNL     1      -3.773  -1.239 -23.256  0.00  0.00    +0.000 HD
ENDBRANCH   9  23
BRANCH  10  25
ATOM     25  O   UNL     1      -3.428  -1.569 -17.363  0.00  0.00    +0.000 OA
ATOM     26  H   UNL     1      -2.467  -1.651 -17.167  0.00  0.00    +0.000 HD
ENDBRANCH  10  25
BRANCH   4  28
ATOM     27  O   UNL     1       2.080   0.274 -18.145  0.00  0.00    +0.000 OA
ATOM     28  C   UNL     1       1.352  -0.497 -18.780  0.00  0.00    +0.000 C 
BRANCH  28  29
ATOM     29  C   UNL     1       1.777  -1.948 -18.991  0.00  0.00    +0.000 C 
BRANCH  29  30
ATOM     30  O   UNL     1       2.198  -2.546 -17.770  0.00  0.00    +0.000 OA
ATOM     31  H   UNL     1       1.547  -3.252 -17.575  0.00  0.00    +0.000 HD
ENDBRANCH  29  30
ENDBRANCH  28  29
ENDBRANCH   4  28
BRANCH  17  32
ATOM     32  O   UNL     1      -8.820  -1.820 -22.636  0.00  0.00    +0.000 OA
ATOM     33  C   UNL     1      -9.980  -1.027 -22.897  0.00  0.00    +0.000 C 
ENDBRANCH  17  32
BRANCH   3  34
ATOM     34  O   UNL     1      -1.439   1.383 -21.543  0.00  0.00    +0.000 OA
BRANCH  34  36
ATOM     35  O   UNL     1      -0.068   1.994 -23.358  0.00  0.00    +0.000 OA
ATOM     36  C   UNL     1      -1.404   1.931 -22.864  0.00  0.00    +0.000 C 
ATOM     37  C   UNL     1      -2.083   3.302 -22.856  0.00  0.00    +0.000 C 
ATOM     38  C   UNL     1      -1.232   4.331 -22.107  0.00  0.00    +0.000 C 
ATOM     39  C   UNL     1       0.193   4.352 -22.697  0.00  0.00    +0.000 C 
ATOM     40  C   UNL     1       0.769   2.924 -22.659  0.00  0.00    +0.000 C 
ATOM     41  C   UNL     1       2.155   2.835 -23.290  0.00  0.00    +0.000 C 
BRANCH  38  42
ATOM     42  N   UNL     1      -1.844   5.670 -22.187  0.00  0.00    +0.000 NA
ATOM     43  H   UNL     1      -2.745   5.670 -21.714  0.00  0.00    +0.000 HD
ATOM     44  H   UNL     1      -2.043   5.847 -23.177  0.00  0.00    +0.000 HD
ENDBRANCH  38  42
BRANCH  39  45
ATOM     45  O   UNL     1       0.117   4.859 -24.043  0.00  0.00    +0.000 OA
ATOM     46  H   UNL     1       0.963   5.293 -24.240  0.00  0.00    +0.000 HD
ENDBRANCH  39  45
ENDBRANCH  34  36
ENDBRANCH   3  34
TORSDOF 11
ENDMDL
MODEL 9
REMARK VINA RESULT:      -6.3      4.972     11.230
REMARK  Name = 
REMARK  13 active torsions:
REMARK  status: ('A' for Active; 'I' for Inactive)
REMARK    1  A    between atoms: O_1  and  C_13
REMARK    2  A    between atoms: O_1  and  C_19
REMARK    3  A    between atoms: O_3  and  C_14
REMARK    4  A    between atoms: O_4  and  C_22
REMARK    5  A    between atoms: O_5  and  C_24
REMARK    6  A    between atoms: O_6  and  C_26
REMARK    7  A    between atoms: O_8  and  C_30
REMARK    8  A    between atoms: O_11  and  C_35
REMARK    9  A    between atoms: O_11  and  C_39
REMARK   10  A    between atoms: N_12  and  C_21
REMARK   11  A    between atoms: C_14  and  C_25
REMARK   12  A    between atoms: C_23  and  C_29
REMARK   13  A    between atoms: C_25  and  C_30
REMARK                            x       y       z     vdW  Elec       q    Type
REMARK                         _______ _______ _______ _____ _____    ______ ____
ROOT
ATOM      1  O   UNL     1      -6.961   0.797 -21.772  0.00  0.00    +0.000 OA
ATOM      2  O   UNL     1      -7.102  -3.450 -18.577  0.00  0.00    +0.000 OA
ATOM      3  C   UNL     1      -1.996  -0.135 -20.883  0.00  0.00    +0.000 C 
ATOM      4  C   UNL     1      -0.780  -1.749 -19.353  0.00  0.00    +0.000 C 
ATOM      5  C   UNL     1      -0.817  -1.100 -20.743  0.00  0.00    +0.000 C 
ATOM      6  C   UNL     1      -2.075  -2.529 -19.083  0.00  0.00    +0.000 C 
ATOM      7  C   UNL     1      -3.309  -0.787 -20.496  0.00  0.00    +0.000 A 
ATOM      8  C   UNL     1      -3.343  -1.889 -19.620  0.00  0.00    +0.000 A 
ATOM      9  C   UNL     1      -4.524  -0.257 -20.970  0.00  0.00    +0.000 A 
ATOM     10  C   UNL     1      -4.586  -2.445 -19.267  0.00  0.00    +0.000 A 
ATOM     11  C   UNL     1      -5.765  -0.812 -20.602  0.00  0.00    +0.000 A 
ATOM     12  C   UNL     1      -5.792  -1.909 -19.749  0.00  0.00    +0.000 A 
ATOM     13  C   UNL     1      -7.030  -0.229 -21.102  0.00  0.00    +0.000 C 
ATOM     14  C   UNL     1      -7.084  -2.503 -19.357  0.00  0.00    +0.000 C 
ATOM     15  C   UNL     1      -8.326  -0.866 -20.769  0.00  0.00    +0.000 A 
ATOM     16  C   UNL     1      -8.341  -1.965 -19.908  0.00  0.00    +0.000 A 
ATOM     17  C   UNL     1      -9.547  -0.397 -21.280  0.00  0.00    +0.000 A 
ATOM     18  C   UNL     1      -9.551  -2.586 -19.560  0.00  0.00    +0.000 A 
ATOM     19  C   UNL     1     -10.750  -1.033 -20.952  0.00  0.00    +0.000 A 
ATOM     20  C   UNL     1     -10.753  -2.120 -20.083  0.00  0.00    +0.000 A 
ENDROOT
BRANCH   4  21
ATOM     21  O   UNL     1      -0.585  -0.755 -18.339  0.00  0.00    +0.000 OA
ATOM     22  H   UNL     1      -1.224  -0.948 -17.620  0.00  0.00    +0.000 HD
ENDBRANCH   4  21
BRANCH   9  23
ATOM     23  O   UNL     1      -4.443   0.827 -21.812  0.00  0.00    +0.000 OA
ATOM     24  H   UNL     1      -3.741   1.434 -21.479  0.00  0.00    +0.000 HD
ENDBRANCH   9  23
BRANCH  10  25
ATOM     25  O   UNL     1      -4.558  -3.535 -18.431  0.00  0.00    +0.000 OA
ATOM     26  H   UNL     1      -4.838  -4.331 -18.938  0.00  0.00    +0.000 HD
ENDBRANCH  10  25
BRANCH   4  28
ATOM     27  O   UNL     1       0.271  -3.950 -19.319  0.00  0.00    +0.000 OA
ATOM     28  C   UNL     1       0.407  -2.723 -19.264  0.00  0.00    +0.000 C 
BRANCH  28  29
ATOM     29  C   UNL     1       1.796  -2.116 -19.079  0.00  0.00    +0.000 C 
BRANCH  29  30
ATOM     30  O   UNL     1       2.222  -2.202 -17.724  0.00  0.00    +0.000 OA
ATOM     31  H   UNL     1       1.874  -3.052 -17.384  0.00  0.00    +0.000 HD
ENDBRANCH  29  30
ENDBRANCH  28  29
ENDBRANCH   4  28
BRANCH  17  32
ATOM     32  O   UNL     1      -9.608   0.622 -22.194  0.00  0.00    +0.000 OA
ATOM     33  C   UNL     1     -10.964   0.885 -22.564  0.00  0.00    +0.000 C 
ENDBRANCH  17  32
BRANCH   3  34
ATOM     34  O   UNL     1      -1.806   0.960 -19.970  0.00  0.00    +0.000 OA
BRANCH  34  36
ATOM     35  O   UNL     1      -1.589   2.119 -22.009  0.00  0.00    +0.000 OA
ATOM     36  C   UNL     1      -1.895   2.230 -20.621  0.00  0.00    +0.000 C 
ATOM     37  C   UNL     1      -0.977   3.225 -19.906  0.00  0.00    +0.000 C 
ATOM     38  C   UNL     1       0.496   2.889 -20.153  0.00  0.00    +0.000 C 
ATOM     39  C   UNL     1       0.756   2.792 -21.670  0.00  0.00    +0.000 C 
ATOM     40  C   UNL     1      -0.225   1.772 -22.281  0.00  0.00    +0.000 C 
ATOM     41  C   UNL     1      -0.088   1.663 -23.795  0.00  0.00    +0.000 C 
BRANCH  38  42
ATOM     42  N   UNL     1       1.372   3.905 -19.543  0.00  0.00    +0.000 NA
ATOM     43  H   UNL     1       1.013   4.837 -19.738  0.00  0.00    +0.000 HD
ATOM     44  H   UNL     1       2.277   3.843 -20.022  0.00  0.00    +0.000 HD
ENDBRANCH  38  42
BRANCH  39  45
ATOM     45  O   UNL     1       0.584   4.102 -22.242  0.00  0.00    +0.000 OA
ATOM     46  H   UNL     1       0.730   4.751 -21.534  0.00  0.00    +0.000 HD
ENDBRANCH  39  45
ENDBRANCH  34  36
ENDBRANCH   3  34
TORSDOF 11
ENDMDL
