MODEL 1
REMARK VINA RESULT:      -6.1      0.000      0.000
REMARK  Name = Dronabinol.pdbqt.pdb
REMARK  3 active torsions:
REMARK  status: ('A' for Active; 'I' for Inactive)
REMARK    1  A    between atoms: C_13  and  O_18
REMARK    2  A    between atoms: C_16  and  C_20
REMARK    3  A    between atoms: C_21  and  C_22
REMARK                            x       y       z     vdW  Elec       q    Type
REMARK                         _______ _______ _______ _____ _____    ______ ____
ROOT
ATOM      1  O   UNL     1      -1.918   1.730   4.025  0.00  0.00    +0.000 OA
ATOM      2  C   UNL     1      -3.946   0.424   3.517  0.00  0.00    +0.000 A 
ATOM      3  C   UNL     1      -3.486   0.361   2.108  0.00  0.00    +0.000 A 
ATOM      4  C   UNL     1      -2.947   0.861   4.554  0.00  0.00    +0.000 C 
ATOM      5  C   UNL     1      -5.243  -0.171   3.703  0.00  0.00    +0.000 A 
ATOM      6  C   UNL     1      -2.151   0.836   1.750  0.00  0.00    +0.000 A 
ATOM      7  C   UNL     1      -6.099  -0.774   2.573  0.00  0.00    +0.000 A 
ATOM      8  C   UNL     1      -4.462  -0.240   1.224  0.00  0.00    +0.000 A 
ATOM      9  C   UNL     1      -5.652  -0.790   1.209  0.00  0.00    +0.000 A 
ATOM     10  C   UNL     1      -1.438   1.502   2.758  0.00  0.00    +0.000 A 
ATOM     11  C   UNL     1      -3.676   1.681   5.654  0.00  0.00    +0.000 C 
ATOM     12  C   UNL     1      -2.264  -0.392   5.178  0.00  0.00    +0.000 C 
ATOM     13  C   UNL     1      -1.551   0.694   0.493  0.00  0.00    +0.000 A 
ATOM     14  C   UNL     1      -0.176   2.040   2.499  0.00  0.00    +0.000 A 
ATOM     15  C   UNL     1      -6.611  -0.501   0.098  0.00  0.00    +0.000 C 
ATOM     16  C   UNL     1       0.403   1.890   1.244  0.00  0.00    +0.000 A 
ATOM     17  C   UNL     1      -0.280   1.215   0.240  0.00  0.00    +0.000 A 
ENDROOT
BRANCH  13  18
ATOM     18  O   UNL     1      -2.197   0.032  -0.513  0.00  0.00    +0.000 OA
ATOM     19  H   UNL     1      -2.542  -0.813  -0.173  0.00  0.00    +0.000 HD
ENDBRANCH  13  18
BRANCH  16  20
ATOM     20  C   UNL     1       1.701   2.418   0.992  0.00  0.00    +0.000 C 
ATOM     21  C   UNL     1       3.102   2.974   0.714  0.00  0.00    +0.000 C 
BRANCH  21  22
ATOM     22  C   UNL     1       4.503   3.522   0.428  0.00  0.00    +0.000 C 
ATOM     23  C   UNL     1       5.904   4.071   0.138  0.00  0.00    +0.000 C 
ATOM     24  C   UNL     1       7.304   4.622  -0.154  0.00  0.00    +0.000 C 
ENDBRANCH  21  22
ENDBRANCH  16  20
TORSDOF 3
ENDMDL
MODEL 2
REMARK VINA RESULT:      -5.9      7.943     11.878
REMARK  Name = Dronabinol.pdbqt.pdb
REMARK  3 active torsions:
REMARK  status: ('A' for Active; 'I' for Inactive)
REMARK    1  A    between atoms: C_13  and  O_18
REMARK    2  A    between atoms: C_16  and  C_20
REMARK    3  A    between atoms: C_21  and  C_22
REMARK                            x       y       z     vdW  Elec       q    Type
REMARK                         _______ _______ _______ _____ _____    ______ ____
ROOT
ATOM      1  O   UNL     1     -12.515  -4.552   1.619  0.00  0.00    +0.000 OA
ATOM      2  C   UNL     1     -14.089  -5.945   0.331  0.00  0.00    +0.000 A 
ATOM      3  C   UNL     1     -13.365  -5.532  -0.896  0.00  0.00    +0.000 A 
ATOM      4  C   UNL     1     -13.421  -5.680   1.654  0.00  0.00    +0.000 C 
ATOM      5  C   UNL     1     -15.244  -6.755   0.047  0.00  0.00    +0.000 A 
ATOM      6  C   UNL     1     -12.117  -4.781  -0.793  0.00  0.00    +0.000 A 
ATOM      7  C   UNL     1     -15.723  -7.129  -1.369  0.00  0.00    +0.000 A 
ATOM      8  C   UNL     1     -14.007  -5.993  -2.108  0.00  0.00    +0.000 A 
ATOM      9  C   UNL     1     -15.030  -6.687  -2.545  0.00  0.00    +0.000 A 
ATOM     10  C   UNL     1     -11.765  -4.333   0.490  0.00  0.00    +0.000 A 
ATOM     11  C   UNL     1     -14.502  -5.328   2.712  0.00  0.00    +0.000 C 
ATOM     12  C   UNL     1     -12.623  -6.942   2.095  0.00  0.00    +0.000 C 
ATOM     13  C   UNL     1     -11.271  -4.464  -1.864  0.00  0.00    +0.000 A 
ATOM     14  C   UNL     1     -10.618  -3.560   0.683  0.00  0.00    +0.000 A 
ATOM     15  C   UNL     1     -15.798  -6.238  -3.748  0.00  0.00    +0.000 C 
ATOM     16  C   UNL     1      -9.791  -3.256  -0.393  0.00  0.00    +0.000 A 
ATOM     17  C   UNL     1     -10.113  -3.709  -1.667  0.00  0.00    +0.000 A 
ENDROOT
BRANCH  13  18
ATOM     18  O   UNL     1     -11.559  -4.898  -3.127  0.00  0.00    +0.000 OA
ATOM     19  H   UNL     1     -10.879  -4.570  -3.742  0.00  0.00    +0.000 HD
ENDBRANCH  13  18
BRANCH  16  20
ATOM     20  C   UNL     1      -8.609  -2.490  -0.187  0.00  0.00    +0.000 C 
ATOM     21  C   UNL     1      -7.336  -1.669   0.049  0.00  0.00    +0.000 C 
BRANCH  21  22
ATOM     22  C   UNL     1      -6.063  -0.853   0.293  0.00  0.00    +0.000 C 
ATOM     23  C   UNL     1      -4.788  -0.040   0.541  0.00  0.00    +0.000 C 
ATOM     24  C   UNL     1      -3.512   0.770   0.788  0.00  0.00    +0.000 C 
ENDBRANCH  21  22
ENDBRANCH  16  20
TORSDOF 3
ENDMDL
MODEL 3
REMARK VINA RESULT:      -5.8     22.531     24.262
REMARK  Name = Dronabinol.pdbqt.pdb
REMARK  3 active torsions:
REMARK  status: ('A' for Active; 'I' for Inactive)
REMARK    1  A    between atoms: C_13  and  O_18
REMARK    2  A    between atoms: C_16  and  C_20
REMARK    3  A    between atoms: C_21  and  C_22
REMARK                            x       y       z     vdW  Elec       q    Type
REMARK                         _______ _______ _______ _____ _____    ______ ____
ROOT
ATOM      1  O   UNL     1      -4.641  15.202 -15.786  0.00  0.00    +0.000 OA
ATOM      2  C   UNL     1      -4.555  17.028 -14.132  0.00  0.00    +0.000 A 
ATOM      3  C   UNL     1      -3.168  17.299 -14.586  0.00  0.00    +0.000 A 
ATOM      4  C   UNL     1      -5.409  16.145 -15.001  0.00  0.00    +0.000 C 
ATOM      5  C   UNL     1      -4.944  17.852 -13.019  0.00  0.00    +0.000 A 
ATOM      6  C   UNL     1      -2.636  16.618 -15.763  0.00  0.00    +0.000 A 
ATOM      7  C   UNL     1      -4.027  18.879 -12.328  0.00  0.00    +0.000 A 
ATOM      8  C   UNL     1      -2.498  18.296 -13.779  0.00  0.00    +0.000 A 
ATOM      9  C   UNL     1      -2.676  19.099 -12.757  0.00  0.00    +0.000 A 
ATOM     10  C   UNL     1      -3.429  15.592 -16.300  0.00  0.00    +0.000 A 
ATOM     11  C   UNL     1      -6.344  15.291 -14.102  0.00  0.00    +0.000 C 
ATOM     12  C   UNL     1      -6.249  17.027 -15.971  0.00  0.00    +0.000 C 
ATOM     13  C   UNL     1      -1.406  16.897 -16.372  0.00  0.00    +0.000 A 
ATOM     14  C   UNL     1      -2.982  14.846 -17.391  0.00  0.00    +0.000 A 
ATOM     15  C   UNL     1      -1.589  19.303 -11.750  0.00  0.00    +0.000 C 
ATOM     16  C   UNL     1      -1.757  15.137 -17.983  0.00  0.00    +0.000 A 
ATOM     17  C   UNL     1      -0.968  16.163 -17.478  0.00  0.00    +0.000 A 
ENDROOT
BRANCH  13  18
ATOM     18  O   UNL     1      -0.609  17.902 -15.901  0.00  0.00    +0.000 OA
ATOM     19  H   UNL     1      -1.168  18.644 -15.609  0.00  0.00    +0.000 HD
ENDBRANCH  13  18
BRANCH  16  20
ATOM     20  C   UNL     1      -1.318  14.391 -19.113  0.00  0.00    +0.000 C 
ATOM     21  C   UNL     1      -0.857  13.588 -20.335  0.00  0.00    +0.000 C 
BRANCH  21  22
ATOM     22  C   UNL     1      -0.406  12.790 -21.562  0.00  0.00    +0.000 C 
ATOM     23  C   UNL     1       0.043  11.995 -22.792  0.00  0.00    +0.000 C 
ATOM     24  C   UNL     1       0.493  11.202 -24.023  0.00  0.00    +0.000 C 
ENDBRANCH  21  22
ENDBRANCH  16  20
TORSDOF 3
ENDMDL
MODEL 4
REMARK VINA RESULT:      -5.8      6.749     13.180
REMARK  Name = Dronabinol.pdbqt.pdb
REMARK  3 active torsions:
REMARK  status: ('A' for Active; 'I' for Inactive)
REMARK    1  A    between atoms: C_13  and  O_18
REMARK    2  A    between atoms: C_16  and  C_20
REMARK    3  A    between atoms: C_21  and  C_22
REMARK                            x       y       z     vdW  Elec       q    Type
REMARK                         _______ _______ _______ _____ _____    ______ ____
ROOT
ATOM      1  O   UNL     1     -10.928  -2.113  -1.389  0.00  0.00    +0.000 OA
ATOM      2  C   UNL     1      -8.570  -1.842  -0.723  0.00  0.00    +0.000 A 
ATOM      3  C   UNL     1      -8.991  -0.675   0.091  0.00  0.00    +0.000 A 
ATOM      4  C   UNL     1      -9.648  -2.767  -1.220  0.00  0.00    +0.000 C 
ATOM      5  C   UNL     1      -7.143  -2.031  -0.722  0.00  0.00    +0.000 A 
ATOM      6  C   UNL     1     -10.411  -0.385   0.277  0.00  0.00    +0.000 A 
ATOM      7  C   UNL     1      -6.139  -1.113   0.000  0.00  0.00    +0.000 A 
ATOM      8  C   UNL     1      -7.873   0.043   0.665  0.00  0.00    +0.000 A 
ATOM      9  C   UNL     1      -6.565   0.034   0.751  0.00  0.00    +0.000 A 
ATOM     10  C   UNL     1     -11.306  -1.144  -0.492  0.00  0.00    +0.000 A 
ATOM     11  C   UNL     1      -9.254  -3.306  -2.623  0.00  0.00    +0.000 C 
ATOM     12  C   UNL     1      -9.823  -3.946  -0.218  0.00  0.00    +0.000 C 
ATOM     13  C   UNL     1     -10.932   0.590   1.136  0.00  0.00    +0.000 A 
ATOM     14  C   UNL     1     -12.680  -0.905  -0.425  0.00  0.00    +0.000 A 
ATOM     15  C   UNL     1      -5.788   1.310   0.681  0.00  0.00    +0.000 C 
ATOM     16  C   UNL     1     -13.179   0.068   0.434  0.00  0.00    +0.000 A 
ATOM     17  C   UNL     1     -12.308   0.816   1.217  0.00  0.00    +0.000 A 
ENDROOT
BRANCH  13  18
ATOM     18  O   UNL     1     -10.102   1.339   1.922  0.00  0.00    +0.000 OA
ATOM     19  H   UNL     1      -9.396   0.769   2.277  0.00  0.00    +0.000 HD
ENDBRANCH  13  18
BRANCH  16  20
ATOM     20  C   UNL     1     -14.583   0.291   0.518  0.00  0.00    +0.000 C 
ATOM     21  C   UNL     1     -16.096   0.521   0.599  0.00  0.00    +0.000 C 
BRANCH  21  22
ATOM     22  C   UNL     1     -17.610   0.741   0.674  0.00  0.00    +0.000 C 
ATOM     23  C   UNL     1     -19.123   0.967   0.750  0.00  0.00    +0.000 C 
ATOM     24  C   UNL     1     -20.637   1.194   0.824  0.00  0.00    +0.000 C 
ENDBRANCH  21  22
ENDBRANCH  16  20
TORSDOF 3
ENDMDL
MODEL 5
REMARK VINA RESULT:      -5.7     20.708     21.623
REMARK  Name = Dronabinol.pdbqt.pdb
REMARK  3 active torsions:
REMARK  status: ('A' for Active; 'I' for Inactive)
REMARK    1  A    between atoms: C_13  and  O_18
REMARK    2  A    between atoms: C_16  and  C_20
REMARK    3  A    between atoms: C_21  and  C_22
REMARK                            x       y       z     vdW  Elec       q    Type
REMARK                         _______ _______ _______ _____ _____    ______ ____
ROOT
ATOM      1  O   UNL     1       2.537  -2.922 -18.968  0.00  0.00    +0.000 OA
ATOM      2  C   UNL     1       0.112  -2.706 -19.355  0.00  0.00    +0.000 A 
ATOM      3  C   UNL     1       0.272  -1.241 -19.190  0.00  0.00    +0.000 A 
ATOM      4  C   UNL     1       1.360  -3.522 -19.559  0.00  0.00    +0.000 C 
ATOM      5  C   UNL     1      -1.263  -3.099 -19.519  0.00  0.00    +0.000 A 
ATOM      6  C   UNL     1       1.607  -0.654 -19.102  0.00  0.00    +0.000 A 
ATOM      7  C   UNL     1      -2.459  -2.128 -19.487  0.00  0.00    +0.000 A 
ATOM      8  C   UNL     1      -0.992  -0.536 -19.181  0.00  0.00    +0.000 A 
ATOM      9  C   UNL     1      -2.286  -0.718 -19.287  0.00  0.00    +0.000 A 
ATOM     10  C   UNL     1       2.676  -1.556 -18.997  0.00  0.00    +0.000 A 
ATOM     11  C   UNL     1       1.190  -4.902 -18.867  0.00  0.00    +0.000 C 
ATOM     12  C   UNL     1       1.613  -3.710 -21.084  0.00  0.00    +0.000 C 
ATOM     13  C   UNL     1       1.889   0.718 -19.094  0.00  0.00    +0.000 A 
ATOM     14  C   UNL     1       3.985  -1.093 -18.853  0.00  0.00    +0.000 A 
ATOM     15  C   UNL     1      -3.237   0.042 -18.417  0.00  0.00    +0.000 C 
ATOM     16  C   UNL     1       4.247   0.273 -18.847  0.00  0.00    +0.000 A 
ATOM     17  C   UNL     1       3.201   1.181 -18.971  0.00  0.00    +0.000 A 
ENDROOT
BRANCH  13  18
ATOM     18  O   UNL     1       0.884   1.634 -19.217  0.00  0.00    +0.000 OA
ATOM     19  H   UNL     1       1.180   2.362 -19.793  0.00  0.00    +0.000 HD
ENDBRANCH  13  18
BRANCH  16  20
ATOM     20  C   UNL     1       5.586   0.741 -18.727  0.00  0.00    +0.000 C 
ATOM     21  C   UNL     1       7.032   1.236 -18.608  0.00  0.00    +0.000 C 
BRANCH  21  22
ATOM     22  C   UNL     1       8.478   1.725 -18.498  0.00  0.00    +0.000 C 
ATOM     23  C   UNL     1       9.924   2.220 -18.388  0.00  0.00    +0.000 C 
ATOM     24  C   UNL     1      11.370   2.716 -18.276  0.00  0.00    +0.000 C 
ENDBRANCH  21  22
ENDBRANCH  16  20
TORSDOF 3
ENDMDL
MODEL 6
REMARK VINA RESULT:      -5.5     23.160     24.595
REMARK  Name = Dronabinol.pdbqt.pdb
REMARK  3 active torsions:
REMARK  status: ('A' for Active; 'I' for Inactive)
REMARK    1  A    between atoms: C_13  and  O_18
REMARK    2  A    between atoms: C_16  and  C_20
REMARK    3  A    between atoms: C_21  and  C_22
REMARK                            x       y       z     vdW  Elec       q    Type
REMARK                         _______ _______ _______ _____ _____    ______ ____
ROOT
ATOM      1  O   UNL     1      -2.102  15.879 -16.344  0.00  0.00    +0.000 OA
ATOM      2  C   UNL     1      -4.395  16.287 -15.536  0.00  0.00    +0.000 A 
ATOM      3  C   UNL     1      -4.886  15.795 -16.846  0.00  0.00    +0.000 A 
ATOM      4  C   UNL     1      -2.958  16.011 -15.185  0.00  0.00    +0.000 C 
ATOM      5  C   UNL     1      -5.457  16.769 -14.692  0.00  0.00    +0.000 A 
ATOM      6  C   UNL     1      -3.957  15.185 -17.795  0.00  0.00    +0.000 A 
ATOM      7  C   UNL     1      -6.942  16.819 -15.098  0.00  0.00    +0.000 A 
ATOM      8  C   UNL     1      -6.316  15.953 -17.006  0.00  0.00    +0.000 A 
ATOM      9  C   UNL     1      -7.392  16.374 -16.386  0.00  0.00    +0.000 A 
ATOM     10  C   UNL     1      -2.595  15.268 -17.471  0.00  0.00    +0.000 A 
ATOM     11  C   UNL     1      -2.391  17.205 -14.368  0.00  0.00    +0.000 C 
ATOM     12  C   UNL     1      -2.870  14.697 -14.353  0.00  0.00    +0.000 C 
ATOM     13  C   UNL     1      -4.321  14.554 -18.992  0.00  0.00    +0.000 A 
ATOM     14  C   UNL     1      -1.626  14.763 -18.341  0.00  0.00    +0.000 A 
ATOM     15  C   UNL     1      -8.446  17.139 -17.122  0.00  0.00    +0.000 C 
ATOM     16  C   UNL     1      -2.006  14.140 -19.525  0.00  0.00    +0.000 A 
ATOM     17  C   UNL     1      -3.352  14.031 -19.851  0.00  0.00    +0.000 A 
ENDROOT
BRANCH  13  18
ATOM     18  O   UNL     1      -5.636  14.428 -19.339  0.00  0.00    +0.000 OA
ATOM     19  H   UNL     1      -5.711  14.401 -20.310  0.00  0.00    +0.000 HD
ENDBRANCH  13  18
BRANCH  16  20
ATOM     20  C   UNL     1      -1.016  13.603 -20.395  0.00  0.00    +0.000 C 
ATOM     21  C   UNL     1       0.056  13.018 -21.323  0.00  0.00    +0.000 C 
BRANCH  21  22
ATOM     22  C   UNL     1       1.128  12.425 -22.241  0.00  0.00    +0.000 C 
ATOM     23  C   UNL     1       2.197  11.833 -23.165  0.00  0.00    +0.000 C 
ATOM     24  C   UNL     1       3.267  11.242 -24.090  0.00  0.00    +0.000 C 
ENDBRANCH  21  22
ENDBRANCH  16  20
TORSDOF 3
ENDMDL
MODEL 7
REMARK VINA RESULT:      -5.4     23.330     25.575
REMARK  Name = Dronabinol.pdbqt.pdb
REMARK  3 active torsions:
REMARK  status: ('A' for Active; 'I' for Inactive)
REMARK    1  A    between atoms: C_13  and  O_18
REMARK    2  A    between atoms: C_16  and  C_20
REMARK    3  A    between atoms: C_21  and  C_22
REMARK                            x       y       z     vdW  Elec       q    Type
REMARK                         _______ _______ _______ _____ _____    ______ ____
ROOT
ATOM      1  O   UNL     1       0.128  17.470 -18.527  0.00  0.00    +0.000 OA
ATOM      2  C   UNL     1      -0.847  17.826 -16.292  0.00  0.00    +0.000 A 
ATOM      3  C   UNL     1      -1.674  16.615 -16.519  0.00  0.00    +0.000 A 
ATOM      4  C   UNL     1       0.317  18.056 -17.218  0.00  0.00    +0.000 C 
ATOM      5  C   UNL     1      -1.163  18.487 -15.053  0.00  0.00    +0.000 A 
ATOM      6  C   UNL     1      -1.427  15.768 -17.684  0.00  0.00    +0.000 A 
ATOM      7  C   UNL     1      -2.263  18.034 -14.075  0.00  0.00    +0.000 A 
ATOM      8  C   UNL     1      -2.647  16.395 -15.472  0.00  0.00    +0.000 A 
ATOM      9  C   UNL     1      -3.079  16.881 -14.333  0.00  0.00    +0.000 A 
ATOM     10  C   UNL     1      -0.518  16.262 -18.631  0.00  0.00    +0.000 A 
ATOM     11  C   UNL     1       0.490  19.582 -17.454  0.00  0.00    +0.000 C 
ATOM     12  C   UNL     1       1.608  17.457 -16.588  0.00  0.00    +0.000 C 
ATOM     13  C   UNL     1      -2.036  14.530 -17.927  0.00  0.00    +0.000 A 
ATOM     14  C   UNL     1      -0.257  15.551 -19.804  0.00  0.00    +0.000 A 
ATOM     15  C   UNL     1      -4.542  16.909 -14.022  0.00  0.00    +0.000 C 
ATOM     16  C   UNL     1      -0.871  14.324 -20.028  0.00  0.00    +0.000 A 
ATOM     17  C   UNL     1      -1.759  13.809 -19.091  0.00  0.00    +0.000 A 
ENDROOT
BRANCH  13  18
ATOM     18  O   UNL     1      -2.910  13.997 -17.023  0.00  0.00    +0.000 OA
ATOM     19  H   UNL     1      -3.795  14.378 -17.168  0.00  0.00    +0.000 HD
ENDBRANCH  13  18
BRANCH  16  20
ATOM     20  C   UNL     1      -0.582  13.590 -21.213  0.00  0.00    +0.000 C 
ATOM     21  C   UNL     1      -0.269  12.788 -22.482  0.00  0.00    +0.000 C 
BRANCH  21  22
ATOM     22  C   UNL     1       0.040  11.977 -23.744  0.00  0.00    +0.000 C 
ATOM     23  C   UNL     1       0.347  11.162 -25.004  0.00  0.00    +0.000 C 
ATOM     24  C   UNL     1       0.651  10.347 -26.265  0.00  0.00    +0.000 C 
ENDBRANCH  21  22
ENDBRANCH  16  20
TORSDOF 3
ENDMDL
MODEL 8
REMARK VINA RESULT:      -5.4     24.780     26.847
REMARK  Name = Dronabinol.pdbqt.pdb
REMARK  3 active torsions:
REMARK  status: ('A' for Active; 'I' for Inactive)
REMARK    1  A    between atoms: C_13  and  O_18
REMARK    2  A    between atoms: C_16  and  C_20
REMARK    3  A    between atoms: C_21  and  C_22
REMARK                            x       y       z     vdW  Elec       q    Type
REMARK                         _______ _______ _______ _____ _____    ______ ____
ROOT
ATOM      1  O   UNL     1      -3.831  15.353 -19.919  0.00  0.00    +0.000 OA
ATOM      2  C   UNL     1      -3.221  15.442 -17.533  0.00  0.00    +0.000 A 
ATOM      3  C   UNL     1      -4.658  15.653 -17.230  0.00  0.00    +0.000 A 
ATOM      4  C   UNL     1      -2.866  14.962 -18.914  0.00  0.00    +0.000 C 
ATOM      5  C   UNL     1      -2.390  15.518 -16.360  0.00  0.00    +0.000 A 
ATOM      6  C   UNL     1      -5.657  15.521 -18.287  0.00  0.00    +0.000 A 
ATOM      7  C   UNL     1      -2.906  15.827 -14.942  0.00  0.00    +0.000 A 
ATOM      8  C   UNL     1      -4.901  15.938 -15.832  0.00  0.00    +0.000 A 
ATOM      9  C   UNL     1      -4.296  16.067 -14.675  0.00  0.00    +0.000 A 
ATOM     10  C   UNL     1      -5.165  15.373 -19.593  0.00  0.00    +0.000 A 
ATOM     11  C   UNL     1      -1.516  15.598 -19.347  0.00  0.00    +0.000 C 
ATOM     12  C   UNL     1      -2.756  13.409 -18.912  0.00  0.00    +0.000 C 
ATOM     13  C   UNL     1      -7.044  15.550 -18.098  0.00  0.00    +0.000 A 
ATOM     14  C   UNL     1      -6.040  15.294 -20.677  0.00  0.00    +0.000 A 
ATOM     15  C   UNL     1      -4.706  17.141 -13.717  0.00  0.00    +0.000 C 
ATOM     16  C   UNL     1      -7.415  15.325 -20.470  0.00  0.00    +0.000 A 
ATOM     17  C   UNL     1      -7.920  15.450 -19.181  0.00  0.00    +0.000 A 
ENDROOT
BRANCH  13  18
ATOM     18  O   UNL     1      -7.571  15.669 -16.843  0.00  0.00    +0.000 OA
ATOM     19  H   UNL     1      -8.322  16.289 -16.867  0.00  0.00    +0.000 HD
ENDBRANCH  13  18
BRANCH  16  20
ATOM     20  C   UNL     1      -8.304  15.217 -21.577  0.00  0.00    +0.000 C 
ATOM     21  C   UNL     1      -9.259  15.086 -22.768  0.00  0.00    +0.000 C 
BRANCH  21  22
ATOM     22  C   UNL     1     -10.214  14.946 -23.957  0.00  0.00    +0.000 C 
ATOM     23  C   UNL     1     -11.167  14.806 -25.149  0.00  0.00    +0.000 C 
ATOM     24  C   UNL     1     -12.117  14.665 -26.343  0.00  0.00    +0.000 C 
ENDBRANCH  21  22
ENDBRANCH  16  20
TORSDOF 3
ENDMDL
MODEL 9
REMARK VINA RESULT:      -5.4     22.299     27.264
REMARK  Name = Dronabinol.pdbqt.pdb
REMARK  3 active torsions:
REMARK  status: ('A' for Active; 'I' for Inactive)
REMARK    1  A    between atoms: C_13  and  O_18
REMARK    2  A    between atoms: C_16  and  C_20
REMARK    3  A    between atoms: C_21  and  C_22
REMARK                            x       y       z     vdW  Elec       q    Type
REMARK                         _______ _______ _______ _____ _____    ______ ____
ROOT
ATOM      1  O   UNL     1      15.222  11.168 -17.511  0.00  0.00    +0.000 OA
ATOM      2  C   UNL     1      14.186  10.635 -15.339  0.00  0.00    +0.000 A 
ATOM      3  C   UNL     1      12.865  10.742 -16.005  0.00  0.00    +0.000 A 
ATOM      4  C   UNL     1      15.402  10.539 -16.221  0.00  0.00    +0.000 C 
ATOM      5  C   UNL     1      14.075  10.412 -13.922  0.00  0.00    +0.000 A 
ATOM      6  C   UNL     1      12.785  10.878 -17.458  0.00  0.00    +0.000 A 
ATOM      7  C   UNL     1      12.744  10.332 -13.151  0.00  0.00    +0.000 A 
ATOM      8  C   UNL     1      11.759  10.647 -15.077  0.00  0.00    +0.000 A 
ATOM      9  C   UNL     1      11.477  10.476 -13.808  0.00  0.00    +0.000 A 
ATOM     10  C   UNL     1      13.999  11.084 -18.130  0.00  0.00    +0.000 A 
ATOM     11  C   UNL     1      16.586  11.282 -15.544  0.00  0.00    +0.000 C 
ATOM     12  C   UNL     1      15.763   9.041 -16.446  0.00  0.00    +0.000 C 
ATOM     13  C   UNL     1      11.605  10.839 -18.211  0.00  0.00    +0.000 A 
ATOM     14  C   UNL     1      14.021  11.281 -19.512  0.00  0.00    +0.000 A 
ATOM     15  C   UNL     1      10.376  11.255 -13.160  0.00  0.00    +0.000 C 
ATOM     16  C   UNL     1      12.839  11.239 -20.243  0.00  0.00    +0.000 A 
ATOM     17  C   UNL     1      11.630  11.016 -19.596  0.00  0.00    +0.000 A 
ENDROOT
BRANCH  13  18
ATOM     18  O   UNL     1      10.401  10.618 -17.604  0.00  0.00    +0.000 OA
ATOM     19  H   UNL     1      10.386   9.715 -17.238  0.00  0.00    +0.000 HD
ENDBRANCH  13  18
BRANCH  16  20
ATOM     20  C   UNL     1      12.870  11.413 -21.656  0.00  0.00    +0.000 C 
ATOM     21  C   UNL     1      12.909  11.613 -23.175  0.00  0.00    +0.000 C 
BRANCH  21  22
ATOM     22  C   UNL     1      12.955  11.820 -24.692  0.00  0.00    +0.000 C 
ATOM     23  C   UNL     1      13.007  12.026 -26.209  0.00  0.00    +0.000 C 
ATOM     24  C   UNL     1      13.059  12.229 -27.727  0.00  0.00    +0.000 C 
ENDBRANCH  21  22
ENDBRANCH  16  20
TORSDOF 3
ENDMDL
