MODEL 1
REMARK VINA RESULT:      -6.1      0.000      0.000
REMARK  Name = Ellipticine.pdbqt.pdb
REMARK  0 active torsions:
REMARK  status: ('A' for Active; 'I' for Inactive)
REMARK                            x       y       z     vdW  Elec       q    Type
REMARK                         _______ _______ _______ _____ _____    ______ ____
ROOT
ATOM      1  N   UNL     1      12.264   1.978 -19.137  0.00  0.00    +0.000 N 
ATOM      2  N   UNL     1       7.645   3.070 -23.462  0.00  0.00    +0.000 NA
ATOM      3  C   UNL     1      10.033   2.057 -19.322  0.00  0.00    +0.000 A 
ATOM      4  C   UNL     1      11.232   2.204 -20.025  0.00  0.00    +0.000 A 
ATOM      5  C   UNL     1       8.814   2.242 -20.024  0.00  0.00    +0.000 A 
ATOM      6  C   UNL     1      10.388   1.732 -17.965  0.00  0.00    +0.000 A 
ATOM      7  C   UNL     1      11.283   2.524 -21.391  0.00  0.00    +0.000 A 
ATOM      8  C   UNL     1      10.072   2.707 -22.085  0.00  0.00    +0.000 A 
ATOM      9  C   UNL     1       8.845   2.565 -21.400  0.00  0.00    +0.000 A 
ATOM     10  C   UNL     1      11.778   1.692 -17.887  0.00  0.00    +0.000 A 
ATOM     11  C   UNL     1       7.497   2.091 -19.293  0.00  0.00    +0.000 C 
ATOM     12  C   UNL     1       9.648   1.469 -16.796  0.00  0.00    +0.000 A 
ATOM     13  C   UNL     1      12.635   2.658 -22.051  0.00  0.00    +0.000 C 
ATOM     14  C   UNL     1      12.470   1.403 -16.706  0.00  0.00    +0.000 A 
ATOM     15  C   UNL     1      10.045   3.029 -23.450  0.00  0.00    +0.000 A 
ATOM     16  C   UNL     1       7.684   2.760 -22.148  0.00  0.00    +0.000 A 
ATOM     17  C   UNL     1      10.319   1.178 -15.605  0.00  0.00    +0.000 A 
ATOM     18  C   UNL     1      11.707   1.147 -15.566  0.00  0.00    +0.000 A 
ATOM     19  C   UNL     1       8.829   3.198 -24.086  0.00  0.00    +0.000 A 
ATOM     20  H   UNL     1      13.246   2.022 -19.386  0.00  0.00    +0.000 HD
ENDROOT
TORSDOF 0
ENDMDL
MODEL 2
REMARK VINA RESULT:      -6.1     23.951     26.474
REMARK  Name = Ellipticine.pdbqt.pdb
REMARK  0 active torsions:
REMARK  status: ('A' for Active; 'I' for Inactive)
REMARK                            x       y       z     vdW  Elec       q    Type
REMARK                         _______ _______ _______ _____ _____    ______ ____
ROOT
ATOM      1  N   UNL     1     -13.680   9.584  -9.598  0.00  0.00    +0.000 N 
ATOM      2  N   UNL     1      -9.908   4.581  -8.193  0.00  0.00    +0.000 NA
ATOM      3  C   UNL     1     -12.512   8.704  -7.900  0.00  0.00    +0.000 A 
ATOM      4  C   UNL     1     -12.865   8.530  -9.242  0.00  0.00    +0.000 A 
ATOM      5  C   UNL     1     -11.668   7.739  -7.295  0.00  0.00    +0.000 A 
ATOM      6  C   UNL     1     -13.154   9.916  -7.461  0.00  0.00    +0.000 A 
ATOM      7  C   UNL     1     -12.420   7.444 -10.013  0.00  0.00    +0.000 A 
ATOM      8  C   UNL     1     -11.582   6.487  -9.410  0.00  0.00    +0.000 A 
ATOM      9  C   UNL     1     -11.211   6.638  -8.056  0.00  0.00    +0.000 A 
ATOM     10  C   UNL     1     -13.869  10.434  -8.539  0.00  0.00    +0.000 A 
ATOM     11  C   UNL     1     -11.267   7.897  -5.844  0.00  0.00    +0.000 C 
ATOM     12  C   UNL     1     -13.190  10.617  -6.239  0.00  0.00    +0.000 A 
ATOM     13  C   UNL     1     -12.863   7.354 -11.455  0.00  0.00    +0.000 C 
ATOM     14  C   UNL     1     -14.618  11.613  -8.464  0.00  0.00    +0.000 A 
ATOM     15  C   UNL     1     -11.100   5.377 -10.118  0.00  0.00    +0.000 A 
ATOM     16  C   UNL     1     -10.379   5.655  -7.522  0.00  0.00    +0.000 A 
ATOM     17  C   UNL     1     -13.931  11.797  -6.143  0.00  0.00    +0.000 A 
ATOM     18  C   UNL     1     -14.632  12.284  -7.239  0.00  0.00    +0.000 A 
ATOM     19  C   UNL     1     -10.280   4.465  -9.480  0.00  0.00    +0.000 A 
ATOM     20  H   UNL     1     -14.081   9.704 -10.521  0.00  0.00    +0.000 HD
ENDROOT
TORSDOF 0
ENDMDL
MODEL 3
REMARK VINA RESULT:      -6.0      4.687      6.656
REMARK  Name = Ellipticine.pdbqt.pdb
REMARK  0 active torsions:
REMARK  status: ('A' for Active; 'I' for Inactive)
REMARK                            x       y       z     vdW  Elec       q    Type
REMARK                         _______ _______ _______ _____ _____    ______ ____
ROOT
ATOM      1  N   UNL     1       7.535  -0.706 -19.569  0.00  0.00    +0.000 N 
ATOM      2  N   UNL     1       1.280  -1.721 -18.529  0.00  0.00    +0.000 NA
ATOM      3  C   UNL     1       5.686   0.360 -18.887  0.00  0.00    +0.000 A 
ATOM      4  C   UNL     1       6.186  -0.869 -19.329  0.00  0.00    +0.000 A 
ATOM      5  C   UNL     1       4.306   0.451 -18.571  0.00  0.00    +0.000 A 
ATOM      6  C   UNL     1       6.798   1.274 -18.871  0.00  0.00    +0.000 A 
ATOM      7  C   UNL     1       5.385  -2.012 -19.474  0.00  0.00    +0.000 A 
ATOM      8  C   UNL     1       4.016  -1.919 -19.160  0.00  0.00    +0.000 A 
ATOM      9  C   UNL     1       3.483  -0.691 -18.711  0.00  0.00    +0.000 A 
ATOM     10  C   UNL     1       7.927   0.580 -19.299  0.00  0.00    +0.000 A 
ATOM     11  C   UNL     1       3.732   1.766 -18.089  0.00  0.00    +0.000 C 
ATOM     12  C   UNL     1       6.942   2.634 -18.528  0.00  0.00    +0.000 A 
ATOM     13  C   UNL     1       6.030  -3.288 -19.960  0.00  0.00    +0.000 C 
ATOM     14  C   UNL     1       9.192   1.168 -19.405  0.00  0.00    +0.000 A 
ATOM     15  C   UNL     1       3.154  -3.020 -19.280  0.00  0.00    +0.000 A 
ATOM     16  C   UNL     1       2.120  -0.669 -18.417  0.00  0.00    +0.000 A 
ATOM     17  C   UNL     1       8.197   3.241 -18.626  0.00  0.00    +0.000 A 
ATOM     18  C   UNL     1       9.301   2.516 -19.058  0.00  0.00    +0.000 A 
ATOM     19  C   UNL     1       1.817  -2.876 -18.959  0.00  0.00    +0.000 A 
ATOM     20  H   UNL     1       8.145  -1.445 -19.900  0.00  0.00    +0.000 HD
ENDROOT
TORSDOF 0
ENDMDL
MODEL 4
REMARK VINA RESULT:      -6.0      1.395      5.561
REMARK  Name = Ellipticine.pdbqt.pdb
REMARK  0 active torsions:
REMARK  status: ('A' for Active; 'I' for Inactive)
REMARK                            x       y       z     vdW  Elec       q    Type
REMARK                         _______ _______ _______ _____ _____    ______ ____
ROOT
ATOM      1  N   UNL     1      10.965   2.748 -21.881  0.00  0.00    +0.000 N 
ATOM      2  N   UNL     1      10.516   0.963 -15.729  0.00  0.00    +0.000 NA
ATOM      3  C   UNL     1       9.441   2.216 -20.327  0.00  0.00    +0.000 A 
ATOM      4  C   UNL     1      10.811   2.363 -20.565  0.00  0.00    +0.000 A 
ATOM      5  C   UNL     1       9.021   1.821 -19.031  0.00  0.00    +0.000 A 
ATOM      6  C   UNL     1       8.773   2.531 -21.563  0.00  0.00    +0.000 A 
ATOM      7  C   UNL     1      11.785   2.138 -19.580  0.00  0.00    +0.000 A 
ATOM      8  C   UNL     1      11.366   1.746 -18.295  0.00  0.00    +0.000 A 
ATOM      9  C   UNL     1       9.989   1.590 -18.026  0.00  0.00    +0.000 A 
ATOM     10  C   UNL     1       9.748   2.856 -22.503  0.00  0.00    +0.000 A 
ATOM     11  C   UNL     1       7.545   1.652 -18.739  0.00  0.00    +0.000 C 
ATOM     12  C   UNL     1       7.422   2.567 -21.964  0.00  0.00    +0.000 A 
ATOM     13  C   UNL     1      13.238   2.327 -19.947  0.00  0.00    +0.000 C 
ATOM     14  C   UNL     1       9.449   3.215 -23.822  0.00  0.00    +0.000 A 
ATOM     15  C   UNL     1      12.283   1.504 -17.261  0.00  0.00    +0.000 A 
ATOM     16  C   UNL     1       9.643   1.200 -16.732  0.00  0.00    +0.000 A 
ATOM     17  C   UNL     1       7.102   2.924 -23.276  0.00  0.00    +0.000 A 
ATOM     18  C   UNL     1       8.102   3.242 -24.187  0.00  0.00    +0.000 A 
ATOM     19  C   UNL     1      11.820   1.121 -16.016  0.00  0.00    +0.000 A 
ATOM     20  H   UNL     1      11.862   2.925 -22.318  0.00  0.00    +0.000 HD
ENDROOT
TORSDOF 0
ENDMDL
MODEL 5
REMARK VINA RESULT:      -5.9     24.191     26.208
REMARK  Name = Ellipticine.pdbqt.pdb
REMARK  0 active torsions:
REMARK  status: ('A' for Active; 'I' for Inactive)
REMARK                            x       y       z     vdW  Elec       q    Type
REMARK                         _______ _______ _______ _____ _____    ______ ____
ROOT
ATOM      1  N   UNL     1     -12.325   8.339  -8.186  0.00  0.00    +0.000 N 
ATOM      2  N   UNL     1     -16.335   8.553 -13.197  0.00  0.00    +0.000 NA
ATOM      3  C   UNL     1     -12.992   7.112  -9.937  0.00  0.00    +0.000 A 
ATOM      4  C   UNL     1     -13.168   8.333  -9.278  0.00  0.00    +0.000 A 
ATOM      5  C   UNL     1     -13.758   6.862 -11.105  0.00  0.00    +0.000 A 
ATOM      6  C   UNL     1     -12.001   6.381  -9.192  0.00  0.00    +0.000 A 
ATOM      7  C   UNL     1     -14.066   9.317  -9.720  0.00  0.00    +0.000 A 
ATOM      8  C   UNL     1     -14.824   9.066 -10.879  0.00  0.00    +0.000 A 
ATOM      9  C   UNL     1     -14.667   7.843 -11.565  0.00  0.00    +0.000 A 
ATOM     10  C   UNL     1     -11.610   7.171  -8.114  0.00  0.00    +0.000 A 
ATOM     11  C   UNL     1     -13.592   5.551 -11.844  0.00  0.00    +0.000 C 
ATOM     12  C   UNL     1     -11.403   5.114  -9.341  0.00  0.00    +0.000 A 
ATOM     13  C   UNL     1     -14.176  10.600  -8.929  0.00  0.00    +0.000 C 
ATOM     14  C   UNL     1     -10.654   6.767  -7.176  0.00  0.00    +0.000 A 
ATOM     15  C   UNL     1     -15.741  10.003 -11.379  0.00  0.00    +0.000 A 
ATOM     16  C   UNL     1     -15.449   7.659 -12.705  0.00  0.00    +0.000 A 
ATOM     17  C   UNL     1     -10.446   4.690  -8.416  0.00  0.00    +0.000 A 
ATOM     18  C   UNL     1     -10.080   5.506  -7.353  0.00  0.00    +0.000 A 
ATOM     19  C   UNL     1     -16.462   9.708 -12.521  0.00  0.00    +0.000 A 
ATOM     20  H   UNL     1     -12.251   9.110  -7.532  0.00  0.00    +0.000 HD
ENDROOT
TORSDOF 0
ENDMDL
MODEL 6
REMARK VINA RESULT:      -5.9     14.121     18.496
REMARK  Name = Ellipticine.pdbqt.pdb
REMARK  0 active torsions:
REMARK  status: ('A' for Active; 'I' for Inactive)
REMARK                            x       y       z     vdW  Elec       q    Type
REMARK                         _______ _______ _______ _____ _____    ______ ____
ROOT
ATOM      1  N   UNL     1      10.758  -5.866  -6.574  0.00  0.00    +0.000 N 
ATOM      2  N   UNL     1      11.757  -9.884  -1.666  0.00  0.00    +0.000 NA
ATOM      3  C   UNL     1      12.023  -7.619  -5.987  0.00  0.00    +0.000 A 
ATOM      4  C   UNL     1      11.013  -6.755  -5.551  0.00  0.00    +0.000 A 
ATOM      5  C   UNL     1      12.467  -8.637  -5.103  0.00  0.00    +0.000 A 
ATOM      6  C   UNL     1      12.366  -7.209  -7.323  0.00  0.00    +0.000 A 
ATOM      7  C   UNL     1      10.422  -6.851  -4.281  0.00  0.00    +0.000 A 
ATOM      8  C   UNL     1      10.865  -7.861  -3.406  0.00  0.00    +0.000 A 
ATOM      9  C   UNL     1      11.882  -8.748  -3.820  0.00  0.00    +0.000 A 
ATOM     10  C   UNL     1      11.563  -6.120  -7.654  0.00  0.00    +0.000 A 
ATOM     11  C   UNL     1      13.558  -9.589  -5.543  0.00  0.00    +0.000 C 
ATOM     12  C   UNL     1      13.291  -7.670  -8.281  0.00  0.00    +0.000 A 
ATOM     13  C   UNL     1       9.339  -5.864  -3.914  0.00  0.00    +0.000 C 
ATOM     14  C   UNL     1      11.632  -5.466  -8.889  0.00  0.00    +0.000 A 
ATOM     15  C   UNL     1      10.320  -8.017  -2.122  0.00  0.00    +0.000 A 
ATOM     16  C   UNL     1      12.273  -9.724  -2.904  0.00  0.00    +0.000 A 
ATOM     17  C   UNL     1      13.377  -7.031  -9.520  0.00  0.00    +0.000 A 
ATOM     18  C   UNL     1      12.559  -5.947  -9.815  0.00  0.00    +0.000 A 
ATOM     19  C   UNL     1      10.789  -9.025  -1.301  0.00  0.00    +0.000 A 
ATOM     20  H   UNL     1      10.066  -5.127  -6.522  0.00  0.00    +0.000 HD
ENDROOT
TORSDOF 0
ENDMDL
MODEL 7
REMARK VINA RESULT:      -5.9     24.383     27.004
REMARK  Name = Ellipticine.pdbqt.pdb
REMARK  0 active torsions:
REMARK  status: ('A' for Active; 'I' for Inactive)
REMARK                            x       y       z     vdW  Elec       q    Type
REMARK                         _______ _______ _______ _____ _____    ______ ____
ROOT
ATOM      1  N   UNL     1     -13.516   8.667 -10.220  0.00  0.00    +0.000 N 
ATOM      2  N   UNL     1     -12.482  10.934  -4.302  0.00  0.00    +0.000 NA
ATOM      3  C   UNL     1     -12.348   8.219  -8.362  0.00  0.00    +0.000 A 
ATOM      4  C   UNL     1     -13.258   9.110  -8.939  0.00  0.00    +0.000 A 
ATOM      5  C   UNL     1     -11.921   8.461  -7.031  0.00  0.00    +0.000 A 
ATOM      6  C   UNL     1     -12.069   7.215  -9.355  0.00  0.00    +0.000 A 
ATOM      7  C   UNL     1     -13.765  10.230  -8.262  0.00  0.00    +0.000 A 
ATOM      8  C   UNL     1     -13.339  10.468  -6.941  0.00  0.00    +0.000 A 
ATOM      9  C   UNL     1     -12.421   9.585  -6.333  0.00  0.00    +0.000 A 
ATOM     10  C   UNL     1     -12.809   7.525 -10.493  0.00  0.00    +0.000 A 
ATOM     11  C   UNL     1     -10.937   7.516  -6.375  0.00  0.00    +0.000 C 
ATOM     12  C   UNL     1     -11.249   6.069  -9.385  0.00  0.00    +0.000 A 
ATOM     13  C   UNL     1     -14.743  11.127  -8.983  0.00  0.00    +0.000 C 
ATOM     14  C   UNL     1     -12.777   6.753 -11.660  0.00  0.00    +0.000 A 
ATOM     15  C   UNL     1     -13.803  11.567  -6.203  0.00  0.00    +0.000 A 
ATOM     16  C   UNL     1     -12.042   9.880  -5.023  0.00  0.00    +0.000 A 
ATOM     17  C   UNL     1     -11.202   5.285 -10.539  0.00  0.00    +0.000 A 
ATOM     18  C   UNL     1     -11.955   5.624 -11.656  0.00  0.00    +0.000 A 
ATOM     19  C   UNL     1     -13.355  11.757  -4.909  0.00  0.00    +0.000 A 
ATOM     20  H   UNL     1     -14.146   9.132 -10.864  0.00  0.00    +0.000 HD
ENDROOT
TORSDOF 0
ENDMDL
MODEL 8
REMARK VINA RESULT:      -5.8     19.428     21.394
REMARK  Name = Ellipticine.pdbqt.pdb
REMARK  0 active torsions:
REMARK  status: ('A' for Active; 'I' for Inactive)
REMARK                            x       y       z     vdW  Elec       q    Type
REMARK                         _______ _______ _______ _____ _____    ______ ____
ROOT
ATOM      1  N   UNL     1      -1.762  17.186 -15.749  0.00  0.00    +0.000 N 
ATOM      2  N   UNL     1      -6.489  18.039 -11.488  0.00  0.00    +0.000 NA
ATOM      3  C   UNL     1      -3.777  16.378 -15.197  0.00  0.00    +0.000 A 
ATOM      4  C   UNL     1      -2.806  17.327 -14.859  0.00  0.00    +0.000 A 
ATOM      5  C   UNL     1      -4.962  16.322 -14.420  0.00  0.00    +0.000 A 
ATOM      6  C   UNL     1      -3.268  15.657 -16.334  0.00  0.00    +0.000 A 
ATOM      7  C   UNL     1      -2.954  18.222 -13.789  0.00  0.00    +0.000 A 
ATOM      8  C   UNL     1      -4.131  18.164 -13.019  0.00  0.00    +0.000 A 
ATOM      9  C   UNL     1      -5.128  17.217 -13.337  0.00  0.00    +0.000 A 
ATOM     10  C   UNL     1      -2.018  16.184 -16.649  0.00  0.00    +0.000 A 
ATOM     11  C   UNL     1      -6.033  15.307 -14.758  0.00  0.00    +0.000 C 
ATOM     12  C   UNL     1      -3.764  14.600 -17.124  0.00  0.00    +0.000 A 
ATOM     13  C   UNL     1      -1.841  19.206 -13.513  0.00  0.00    +0.000 C 
ATOM     14  C   UNL     1      -1.235  15.715 -17.709  0.00  0.00    +0.000 A 
ATOM     15  C   UNL     1      -4.348  19.028 -11.935  0.00  0.00    +0.000 A 
ATOM     16  C   UNL     1      -6.269  17.214 -12.534  0.00  0.00    +0.000 A 
ATOM     17  C   UNL     1      -2.998  14.116 -18.188  0.00  0.00    +0.000 A 
ATOM     18  C   UNL     1      -1.755  14.667 -18.472  0.00  0.00    +0.000 A 
ATOM     19  C   UNL     1      -5.521  18.930 -11.210  0.00  0.00    +0.000 A 
ATOM     20  H   UNL     1      -0.921  17.753 -15.731  0.00  0.00    +0.000 HD
ENDROOT
TORSDOF 0
ENDMDL
MODEL 9
REMARK VINA RESULT:      -5.8     20.412     22.943
REMARK  Name = Ellipticine.pdbqt.pdb
REMARK  0 active torsions:
REMARK  status: ('A' for Active; 'I' for Inactive)
REMARK                            x       y       z     vdW  Elec       q    Type
REMARK                         _______ _______ _______ _____ _____    ______ ____
ROOT
ATOM      1  N   UNL     1       1.711 -17.480 -12.265  0.00  0.00    +0.000 N 
ATOM      2  N   UNL     1       5.847 -17.666  -7.357  0.00  0.00    +0.000 NA
ATOM      3  C   UNL     1       3.656 -16.596 -11.591  0.00  0.00    +0.000 A 
ATOM      4  C   UNL     1       2.632 -17.481 -11.239  0.00  0.00    +0.000 A 
ATOM      5  C   UNL     1       4.735 -16.420 -10.687  0.00  0.00    +0.000 A 
ATOM      6  C   UNL     1       3.308 -16.058 -12.880  0.00  0.00    +0.000 A 
ATOM      7  C   UNL     1       2.627 -18.202 -10.034  0.00  0.00    +0.000 A 
ATOM      8  C   UNL     1       3.699 -18.026  -9.139  0.00  0.00    +0.000 A 
ATOM      9  C   UNL     1       4.746 -17.138  -9.468  0.00  0.00    +0.000 A 
ATOM     10  C   UNL     1       2.098 -16.628 -13.267  0.00  0.00    +0.000 A 
ATOM     11  C   UNL     1       5.860 -15.470 -11.037  0.00  0.00    +0.000 C 
ATOM     12  C   UNL     1       3.920 -15.136 -13.753  0.00  0.00    +0.000 A 
ATOM     13  C   UNL     1       1.469 -19.132  -9.755  0.00  0.00    +0.000 C 
ATOM     14  C   UNL     1       1.463 -16.327 -14.478  0.00  0.00    +0.000 A 
ATOM     15  C   UNL     1       3.760 -18.712  -7.916  0.00  0.00    +0.000 A 
ATOM     16  C   UNL     1       5.776 -17.011  -8.537  0.00  0.00    +0.000 A 
ATOM     17  C   UNL     1       3.303 -14.821 -14.966  0.00  0.00    +0.000 A 
ATOM     18  C   UNL     1       2.095 -15.410 -15.319  0.00  0.00    +0.000 A 
ATOM     19  C   UNL     1       4.835 -18.504  -7.072  0.00  0.00    +0.000 A 
ATOM     20  H   UNL     1       0.864 -18.037 -12.268  0.00  0.00    +0.000 HD
ENDROOT
TORSDOF 0
ENDMDL
