MODEL 1
REMARK VINA RESULT:      -6.8      0.000      0.000
REMARK  Name = Enterolactone.pdbqt.pdb
REMARK  2 active torsions:
REMARK  status: ('A' for Active; 'I' for Inactive)
REMARK    1  A    between atoms: C_10  and  O_14
REMARK    2  A    between atoms: C_19  and  O_23
REMARK                            x       y       z     vdW  Elec       q    Type
REMARK                         _______ _______ _______ _____ _____    ______ ____
ROOT
ATOM      1  O   UNL     1      14.439   1.483 -22.890  0.00  0.00    +0.000 OA
ATOM      2  O   UNL     1      15.095  -0.739 -23.152  0.00  0.00    +0.000 OA
ATOM      3  C   UNL     1      13.002   1.243 -21.020  0.00  0.00    +0.000 C 
ATOM      4  C   UNL     1      13.555  -0.042 -21.375  0.00  0.00    +0.000 C 
ATOM      5  C   UNL     1      13.629   2.022 -21.994  0.00  0.00    +0.000 C 
ATOM      6  C   UNL     1      14.463   0.128 -22.578  0.00  0.00    +0.000 C 
ATOM      7  C   UNL     1      12.472   1.603 -19.767  0.00  0.00    +0.000 C 
ATOM      8  C   UNL     1      11.932   1.948 -18.494  0.00  0.00    +0.000 C 
ATOM      9  C   UNL     1      12.440   1.352 -17.342  0.00  0.00    +0.000 C 
ATOM     10  C   UNL     1      11.897   1.689 -16.106  0.00  0.00    +0.000 C 
ATOM     11  C   UNL     1      10.858   2.609 -16.009  0.00  0.00    +0.000 C 
ATOM     12  C   UNL     1      10.354   3.201 -17.164  0.00  0.00    +0.000 C 
ATOM     13  C   UNL     1      10.891   2.870 -18.407  0.00  0.00    +0.000 C 
ATOM     14  C   UNL     1      13.355  -1.250 -20.670  0.00  0.00    +0.000 C 
ATOM     15  C   UNL     1      13.153  -2.464 -19.950  0.00  0.00    +0.000 C 
ATOM     16  C   UNL     1      11.903  -2.747 -19.408  0.00  0.00    +0.000 C 
ATOM     17  C   UNL     1      11.723  -3.930 -18.698  0.00  0.00    +0.000 C 
ATOM     18  C   UNL     1      12.770  -4.828 -18.524  0.00  0.00    +0.000 C 
ATOM     19  C   UNL     1      14.019  -4.538 -19.071  0.00  0.00    +0.000 C 
ATOM     20  C   UNL     1      14.212  -3.356 -19.784  0.00  0.00    +0.000 C 
ENDROOT
BRANCH  10  21
ATOM     21  O   UNL     1      12.372   1.124 -14.958  0.00  0.00    +0.000 OA
ATOM     22  H   UNL     1      12.018   0.220 -14.888  0.00  0.00    +0.000 HD
ENDBRANCH  10  21
BRANCH  17  23
ATOM     23  O   UNL     1      10.511  -4.238 -18.152  0.00  0.00    +0.000 OA
ATOM     24  H   UNL     1       9.817  -3.787 -18.665  0.00  0.00    +0.000 HD
ENDBRANCH  17  23
TORSDOF 2
ENDMDL
MODEL 2
REMARK VINA RESULT:      -6.5      1.043      5.677
REMARK  Name = Enterolactone.pdbqt.pdb
REMARK  2 active torsions:
REMARK  status: ('A' for Active; 'I' for Inactive)
REMARK    1  A    between atoms: C_10  and  O_14
REMARK    2  A    between atoms: C_19  and  O_23
REMARK                            x       y       z     vdW  Elec       q    Type
REMARK                         _______ _______ _______ _____ _____    ______ ____
ROOT
ATOM      1  O   UNL     1      12.582   1.550 -23.250  0.00  0.00    +0.000 OA
ATOM      2  O   UNL     1      11.818   3.416 -22.080  0.00  0.00    +0.000 OA
ATOM      3  C   UNL     1      12.895   0.058 -21.435  0.00  0.00    +0.000 C 
ATOM      4  C   UNL     1      12.401   1.322 -20.943  0.00  0.00    +0.000 C 
ATOM      5  C   UNL     1      12.932   0.357 -22.797  0.00  0.00    +0.000 C 
ATOM      6  C   UNL     1      12.216   2.267 -22.116  0.00  0.00    +0.000 C 
ATOM      7  C   UNL     1      12.805  -1.182 -20.776  0.00  0.00    +0.000 C 
ATOM      8  C   UNL     1      12.713  -2.428 -20.090  0.00  0.00    +0.000 C 
ATOM      9  C   UNL     1      11.635  -2.674 -19.243  0.00  0.00    +0.000 C 
ATOM     10  C   UNL     1      11.562  -3.891 -18.572  0.00  0.00    +0.000 C 
ATOM     11  C   UNL     1      12.548  -4.858 -18.736  0.00  0.00    +0.000 C 
ATOM     12  C   UNL     1      13.623  -4.606 -19.584  0.00  0.00    +0.000 C 
ATOM     13  C   UNL     1      13.706  -3.391 -20.261  0.00  0.00    +0.000 C 
ATOM     14  C   UNL     1      12.061   1.612 -19.603  0.00  0.00    +0.000 C 
ATOM     15  C   UNL     1      11.715   1.895 -18.250  0.00  0.00    +0.000 C 
ATOM     16  C   UNL     1      12.496   1.388 -17.215  0.00  0.00    +0.000 C 
ATOM     17  C   UNL     1      12.142   1.662 -15.898  0.00  0.00    +0.000 C 
ATOM     18  C   UNL     1      11.022   2.432 -15.604  0.00  0.00    +0.000 C 
ATOM     19  C   UNL     1      10.245   2.937 -16.644  0.00  0.00    +0.000 C 
ATOM     20  C   UNL     1      10.590   2.669 -17.968  0.00  0.00    +0.000 C 
ENDROOT
BRANCH  10  21
ATOM     21  O   UNL     1      10.519  -4.164 -17.735  0.00  0.00    +0.000 OA
ATOM     22  H   UNL     1      10.806  -4.833 -17.089  0.00  0.00    +0.000 HD
ENDBRANCH  10  21
BRANCH  17  23
ATOM     23  O   UNL     1      12.884   1.180 -14.860  0.00  0.00    +0.000 OA
ATOM     24  H   UNL     1      12.343   0.540 -14.364  0.00  0.00    +0.000 HD
ENDBRANCH  17  23
TORSDOF 2
ENDMDL
MODEL 3
REMARK VINA RESULT:      -6.2     12.534     14.384
REMARK  Name = Enterolactone.pdbqt.pdb
REMARK  2 active torsions:
REMARK  status: ('A' for Active; 'I' for Inactive)
REMARK    1  A    between atoms: C_10  and  O_14
REMARK    2  A    between atoms: C_19  and  O_23
REMARK                            x       y       z     vdW  Elec       q    Type
REMARK                         _______ _______ _______ _____ _____    ______ ____
ROOT
ATOM      1  O   UNL     1      -1.105   2.575 -23.376  0.00  0.00    +0.000 OA
ATOM      2  O   UNL     1      -3.335   1.939 -23.138  0.00  0.00    +0.000 OA
ATOM      3  C   UNL     1      -0.287   1.917 -21.250  0.00  0.00    +0.000 C 
ATOM      4  C   UNL     1      -1.693   1.605 -21.347  0.00  0.00    +0.000 C 
ATOM      5  C   UNL     1      -0.101   2.464 -22.520  0.00  0.00    +0.000 C 
ATOM      6  C   UNL     1      -2.201   2.042 -22.708  0.00  0.00    +0.000 C 
ATOM      7  C   UNL     1       0.637   1.325 -20.369  0.00  0.00    +0.000 C 
ATOM      8  C   UNL     1       1.557   0.721 -19.463  0.00  0.00    +0.000 C 
ATOM      9  C   UNL     1       1.369  -0.599 -19.063  0.00  0.00    +0.000 C 
ATOM     10  C   UNL     1       2.269  -1.174 -18.170  0.00  0.00    +0.000 C 
ATOM     11  C   UNL     1       3.348  -0.448 -17.676  0.00  0.00    +0.000 C 
ATOM     12  C   UNL     1       3.531   0.872 -18.081  0.00  0.00    +0.000 C 
ATOM     13  C   UNL     1       2.635   1.457 -18.974  0.00  0.00    +0.000 C 
ATOM     14  C   UNL     1      -2.458   0.927 -20.371  0.00  0.00    +0.000 C 
ATOM     15  C   UNL     1      -3.221   0.237 -19.385  0.00  0.00    +0.000 C 
ATOM     16  C   UNL     1      -3.001   0.495 -18.035  0.00  0.00    +0.000 C 
ATOM     17  C   UNL     1      -3.746  -0.193 -17.081  0.00  0.00    +0.000 C 
ATOM     18  C   UNL     1      -4.701  -1.130 -17.459  0.00  0.00    +0.000 C 
ATOM     19  C   UNL     1      -4.916  -1.383 -18.812  0.00  0.00    +0.000 C 
ATOM     20  C   UNL     1      -4.176  -0.700 -19.776  0.00  0.00    +0.000 C 
ENDROOT
BRANCH  10  21
ATOM     21  O   UNL     1       2.113  -2.466 -17.758  0.00  0.00    +0.000 OA
ATOM     22  H   UNL     1       2.720  -2.629 -17.015  0.00  0.00    +0.000 HD
ENDBRANCH  10  21
BRANCH  17  23
ATOM     23  O   UNL     1      -3.555   0.035 -15.750  0.00  0.00    +0.000 OA
ATOM     24  H   UNL     1      -2.609   0.212 -15.599  0.00  0.00    +0.000 HD
ENDBRANCH  17  23
TORSDOF 2
ENDMDL
MODEL 4
REMARK VINA RESULT:      -6.0     10.431     12.402
REMARK  Name = Enterolactone.pdbqt.pdb
REMARK  2 active torsions:
REMARK  status: ('A' for Active; 'I' for Inactive)
REMARK    1  A    between atoms: C_10  and  O_14
REMARK    2  A    between atoms: C_19  and  O_23
REMARK                            x       y       z     vdW  Elec       q    Type
REMARK                         _______ _______ _______ _____ _____    ______ ____
ROOT
ATOM      1  O   UNL     1       1.286  -5.138 -20.681  0.00  0.00    +0.000 OA
ATOM      2  O   UNL     1       3.561  -4.642 -20.785  0.00  0.00    +0.000 OA
ATOM      3  C   UNL     1       0.527  -3.225 -19.505  0.00  0.00    +0.000 C 
ATOM      4  C   UNL     1       1.954  -3.138 -19.704  0.00  0.00    +0.000 C 
ATOM      5  C   UNL     1       0.295  -4.443 -20.144  0.00  0.00    +0.000 C 
ATOM      6  C   UNL     1       2.423  -4.374 -20.448  0.00  0.00    +0.000 C 
ATOM      7  C   UNL     1      -0.345  -2.149 -19.250  0.00  0.00    +0.000 C 
ATOM      8  C   UNL     1      -1.211  -1.049 -18.985  0.00  0.00    +0.000 C 
ATOM      9  C   UNL     1      -0.914   0.208 -19.507  0.00  0.00    +0.000 C 
ATOM     10  C   UNL     1      -1.762   1.276 -19.231  0.00  0.00    +0.000 C 
ATOM     11  C   UNL     1      -2.897   1.104 -18.446  0.00  0.00    +0.000 C 
ATOM     12  C   UNL     1      -3.189  -0.155 -17.928  0.00  0.00    +0.000 C 
ATOM     13  C   UNL     1      -2.346  -1.233 -18.197  0.00  0.00    +0.000 C 
ATOM     14  C   UNL     1       2.773  -2.044 -19.344  0.00  0.00    +0.000 C 
ATOM     15  C   UNL     1       3.591  -0.935 -18.982  0.00  0.00    +0.000 C 
ATOM     16  C   UNL     1       3.352  -0.257 -17.790  0.00  0.00    +0.000 C 
ATOM     17  C   UNL     1       4.152   0.831 -17.454  0.00  0.00    +0.000 C 
ATOM     18  C   UNL     1       5.180   1.248 -18.291  0.00  0.00    +0.000 C 
ATOM     19  C   UNL     1       5.415   0.565 -19.483  0.00  0.00    +0.000 C 
ATOM     20  C   UNL     1       4.620  -0.527 -19.830  0.00  0.00    +0.000 C 
ENDROOT
BRANCH  10  21
ATOM     21  O   UNL     1      -1.499   2.520 -19.727  0.00  0.00    +0.000 OA
ATOM     22  H   UNL     1      -2.344   2.954 -19.939  0.00  0.00    +0.000 HD
ENDBRANCH  10  21
BRANCH  17  23
ATOM     23  O   UNL     1       3.943   1.518 -16.294  0.00  0.00    +0.000 OA
ATOM     24  H   UNL     1       3.780   2.453 -16.513  0.00  0.00    +0.000 HD
ENDBRANCH  17  23
TORSDOF 2
ENDMDL
MODEL 5
REMARK VINA RESULT:      -5.6     12.492     15.240
REMARK  Name = Enterolactone.pdbqt.pdb
REMARK  2 active torsions:
REMARK  status: ('A' for Active; 'I' for Inactive)
REMARK    1  A    between atoms: C_10  and  O_14
REMARK    2  A    between atoms: C_19  and  O_23
REMARK                            x       y       z     vdW  Elec       q    Type
REMARK                         _______ _______ _______ _____ _____    ______ ____
ROOT
ATOM      1  O   UNL     1       8.993  -4.750  -5.705  0.00  0.00    +0.000 OA
ATOM      2  O   UNL     1       8.840  -6.726  -4.477  0.00  0.00    +0.000 OA
ATOM      3  C   UNL     1      11.293  -4.825  -6.272  0.00  0.00    +0.000 C 
ATOM      4  C   UNL     1      10.948  -5.989  -5.491  0.00  0.00    +0.000 C 
ATOM      5  C   UNL     1      10.039  -4.215  -6.314  0.00  0.00    +0.000 C 
ATOM      6  C   UNL     1       9.476  -5.919  -5.130  0.00  0.00    +0.000 C 
ATOM      7  C   UNL     1      12.396  -4.701  -7.137  0.00  0.00    +0.000 C 
ATOM      8  C   UNL     1      13.523  -4.591  -8.003  0.00  0.00    +0.000 C 
ATOM      9  C   UNL     1      14.005  -5.721  -8.659  0.00  0.00    +0.000 C 
ATOM     10  C   UNL     1      15.113  -5.602  -9.493  0.00  0.00    +0.000 C 
ATOM     11  C   UNL     1      15.739  -4.374  -9.679  0.00  0.00    +0.000 C 
ATOM     12  C   UNL     1      15.252  -3.248  -9.021  0.00  0.00    +0.000 C 
ATOM     13  C   UNL     1      14.143  -3.356  -8.183  0.00  0.00    +0.000 C 
ATOM     14  C   UNL     1      11.812  -7.063  -5.184  0.00  0.00    +0.000 C 
ATOM     15  C   UNL     1      12.689  -8.146  -4.882  0.00  0.00    +0.000 C 
ATOM     16  C   UNL     1      14.024  -7.892  -4.579  0.00  0.00    +0.000 C 
ATOM     17  C   UNL     1      14.872  -8.959  -4.297  0.00  0.00    +0.000 C 
ATOM     18  C   UNL     1      14.404 -10.268  -4.316  0.00  0.00    +0.000 C 
ATOM     19  C   UNL     1      13.067 -10.515  -4.619  0.00  0.00    +0.000 C 
ATOM     20  C   UNL     1      12.208  -9.454  -4.904  0.00  0.00    +0.000 C 
ENDROOT
BRANCH  10  21
ATOM     21  O   UNL     1      15.611  -6.690 -10.150  0.00  0.00    +0.000 OA
ATOM     22  H   UNL     1      16.245  -7.141  -9.566  0.00  0.00    +0.000 HD
ENDBRANCH  10  21
BRANCH  17  23
ATOM     23  O   UNL     1      16.185  -8.745  -3.997  0.00  0.00    +0.000 OA
ATOM     24  H   UNL     1      16.726  -9.028  -4.757  0.00  0.00    +0.000 HD
ENDBRANCH  17  23
TORSDOF 2
ENDMDL
MODEL 6
REMARK VINA RESULT:      -5.6     18.541     20.781
REMARK  Name = Enterolactone.pdbqt.pdb
REMARK  2 active torsions:
REMARK  status: ('A' for Active; 'I' for Inactive)
REMARK    1  A    between atoms: C_10  and  O_14
REMARK    2  A    between atoms: C_19  and  O_23
REMARK                            x       y       z     vdW  Elec       q    Type
REMARK                         _______ _______ _______ _____ _____    ______ ____
ROOT
ATOM      1  O   UNL     1       9.700 -17.817 -11.374  0.00  0.00    +0.000 OA
ATOM      2  O   UNL     1       9.530 -18.633  -9.197  0.00  0.00    +0.000 OA
ATOM      3  C   UNL     1       7.402 -17.455 -11.830  0.00  0.00    +0.000 C 
ATOM      4  C   UNL     1       7.555 -17.968 -10.490  0.00  0.00    +0.000 C 
ATOM      5  C   UNL     1       8.747 -17.416 -12.200  0.00  0.00    +0.000 C 
ATOM      6  C   UNL     1       9.029 -18.204 -10.219  0.00  0.00    +0.000 C 
ATOM      7  C   UNL     1       6.300 -16.730 -12.322  0.00  0.00    +0.000 C 
ATOM      8  C   UNL     1       5.173 -16.005 -12.806  0.00  0.00    +0.000 C 
ATOM      9  C   UNL     1       4.446 -15.195 -11.936  0.00  0.00    +0.000 C 
ATOM     10  C   UNL     1       3.341 -14.500 -12.419  0.00  0.00    +0.000 C 
ATOM     11  C   UNL     1       2.956 -14.605 -13.751  0.00  0.00    +0.000 C 
ATOM     12  C   UNL     1       3.687 -15.417 -14.615  0.00  0.00    +0.000 C 
ATOM     13  C   UNL     1       4.795 -16.117 -14.143  0.00  0.00    +0.000 C 
ATOM     14  C   UNL     1       6.516 -18.145  -9.549  0.00  0.00    +0.000 C 
ATOM     15  C   UNL     1       5.463 -18.314  -8.604  0.00  0.00    +0.000 C 
ATOM     16  C   UNL     1       4.221 -18.778  -9.027  0.00  0.00    +0.000 C 
ATOM     17  C   UNL     1       3.198 -18.929  -8.096  0.00  0.00    +0.000 C 
ATOM     18  C   UNL     1       3.401 -18.623  -6.755  0.00  0.00    +0.000 C 
ATOM     19  C   UNL     1       4.646 -18.160  -6.338  0.00  0.00    +0.000 C 
ATOM     20  C   UNL     1       5.679 -18.004  -7.262  0.00  0.00    +0.000 C 
ENDROOT
BRANCH  10  21
ATOM     21  O   UNL     1       2.608 -13.698 -11.594  0.00  0.00    +0.000 OA
ATOM     22  H   UNL     1       1.832 -14.197 -11.285  0.00  0.00    +0.000 HD
ENDBRANCH  10  21
BRANCH  17  23
ATOM     23  O   UNL     1       1.968 -19.380  -8.477  0.00  0.00    +0.000 OA
ATOM     24  H   UNL     1       2.024 -20.341  -8.626  0.00  0.00    +0.000 HD
ENDBRANCH  17  23
TORSDOF 2
ENDMDL
MODEL 7
REMARK VINA RESULT:      -5.6     18.509     20.978
REMARK  Name = Enterolactone.pdbqt.pdb
REMARK  2 active torsions:
REMARK  status: ('A' for Active; 'I' for Inactive)
REMARK    1  A    between atoms: C_10  and  O_14
REMARK    2  A    between atoms: C_19  and  O_23
REMARK                            x       y       z     vdW  Elec       q    Type
REMARK                         _______ _______ _______ _____ _____    ______ ____
ROOT
ATOM      1  O   UNL     1       9.390 -18.358 -11.021  0.00  0.00    +0.000 OA
ATOM      2  O   UNL     1       8.970 -17.371 -13.091  0.00  0.00    +0.000 OA
ATOM      3  C   UNL     1       7.387 -17.769  -9.899  0.00  0.00    +0.000 C 
ATOM      4  C   UNL     1       7.355 -17.258 -11.248  0.00  0.00    +0.000 C 
ATOM      5  C   UNL     1       8.634 -18.394  -9.935  0.00  0.00    +0.000 C 
ATOM      6  C   UNL     1       8.647 -17.636 -11.948  0.00  0.00    +0.000 C 
ATOM      7  C   UNL     1       6.272 -18.008  -9.074  0.00  0.00    +0.000 C 
ATOM      8  C   UNL     1       5.132 -18.236  -8.249  0.00  0.00    +0.000 C 
ATOM      9  C   UNL     1       3.918 -18.597  -8.830  0.00  0.00    +0.000 C 
ATOM     10  C   UNL     1       2.810 -18.806  -8.015  0.00  0.00    +0.000 C 
ATOM     11  C   UNL     1       2.900 -18.660  -6.634  0.00  0.00    +0.000 C 
ATOM     12  C   UNL     1       4.116 -18.299  -6.060  0.00  0.00    +0.000 C 
ATOM     13  C   UNL     1       5.233 -18.086  -6.867  0.00  0.00    +0.000 C 
ATOM     14  C   UNL     1       6.267 -16.590 -11.853  0.00  0.00    +0.000 C 
ATOM     15  C   UNL     1       5.163 -15.921 -12.458  0.00  0.00    +0.000 C 
ATOM     16  C   UNL     1       4.408 -15.019 -11.714  0.00  0.00    +0.000 C 
ATOM     17  C   UNL     1       3.326 -14.381 -12.314  0.00  0.00    +0.000 C 
ATOM     18  C   UNL     1       2.992 -14.634 -13.639  0.00  0.00    +0.000 C 
ATOM     19  C   UNL     1       3.752 -15.537 -14.379  0.00  0.00    +0.000 C 
ATOM     20  C   UNL     1       4.838 -16.182 -13.789  0.00  0.00    +0.000 C 
ENDROOT
BRANCH  10  21
ATOM     21  O   UNL     1       1.607 -19.161  -8.552  0.00  0.00    +0.000 OA
ATOM     22  H   UNL     1       1.545 -20.132  -8.561  0.00  0.00    +0.000 HD
ENDBRANCH  10  21
BRANCH  17  23
ATOM     23  O   UNL     1       2.564 -13.493 -11.612  0.00  0.00    +0.000 OA
ATOM     24  H   UNL     1       1.739 -13.936 -11.346  0.00  0.00    +0.000 HD
ENDBRANCH  17  23
TORSDOF 2
ENDMDL
MODEL 8
REMARK VINA RESULT:      -5.6      6.354      8.444
REMARK  Name = Enterolactone.pdbqt.pdb
REMARK  2 active torsions:
REMARK  status: ('A' for Active; 'I' for Inactive)
REMARK    1  A    between atoms: C_10  and  O_14
REMARK    2  A    between atoms: C_19  and  O_23
REMARK                            x       y       z     vdW  Elec       q    Type
REMARK                         _______ _______ _______ _____ _____    ______ ____
ROOT
ATOM      1  O   UNL     1       1.813  -1.680 -18.154  0.00  0.00    +0.000 OA
ATOM      2  O   UNL     1       1.991  -3.813 -19.079  0.00  0.00    +0.000 OA
ATOM      3  C   UNL     1       4.024  -0.912 -18.528  0.00  0.00    +0.000 C 
ATOM      4  C   UNL     1       3.884  -2.254 -19.042  0.00  0.00    +0.000 C 
ATOM      5  C   UNL     1       2.724  -0.725 -18.057  0.00  0.00    +0.000 C 
ATOM      6  C   UNL     1       2.467  -2.732 -18.785  0.00  0.00    +0.000 C 
ATOM      7  C   UNL     1       4.997   0.029 -18.915  0.00  0.00    +0.000 C 
ATOM      8  C   UNL     1       5.995   0.966 -19.313  0.00  0.00    +0.000 C 
ATOM      9  C   UNL     1       6.493   0.935 -20.614  0.00  0.00    +0.000 C 
ATOM     10  C   UNL     1       7.475   1.849 -20.986  0.00  0.00    +0.000 C 
ATOM     11  C   UNL     1       7.960   2.786 -20.081  0.00  0.00    +0.000 C 
ATOM     12  C   UNL     1       7.457   2.811 -18.782  0.00  0.00    +0.000 C 
ATOM     13  C   UNL     1       6.474   1.901 -18.398  0.00  0.00    +0.000 C 
ATOM     14  C   UNL     1       4.873  -2.977 -19.746  0.00  0.00    +0.000 C 
ATOM     15  C   UNL     1       5.874  -3.697 -20.459  0.00  0.00    +0.000 C 
ATOM     16  C   UNL     1       7.207  -3.598 -20.072  0.00  0.00    +0.000 C 
ATOM     17  C   UNL     1       8.176  -4.299 -20.784  0.00  0.00    +0.000 C 
ATOM     18  C   UNL     1       7.830  -5.092 -21.873  0.00  0.00    +0.000 C 
ATOM     19  C   UNL     1       6.494  -5.187 -22.255  0.00  0.00    +0.000 C 
ATOM     20  C   UNL     1       5.514  -4.490 -21.549  0.00  0.00    +0.000 C 
ENDROOT
BRANCH  10  21
ATOM     21  O   UNL     1       7.985   1.846 -22.252  0.00  0.00    +0.000 OA
ATOM     22  H   UNL     1       7.526   2.528 -22.773  0.00  0.00    +0.000 HD
ENDBRANCH  10  21
BRANCH  17  23
ATOM     23  O   UNL     1       9.492  -4.222 -20.432  0.00  0.00    +0.000 OA
ATOM     24  H   UNL     1       9.990  -3.845 -21.179  0.00  0.00    +0.000 HD
ENDBRANCH  17  23
TORSDOF 2
ENDMDL
MODEL 9
REMARK VINA RESULT:      -5.1     13.804     16.542
REMARK  Name = Enterolactone.pdbqt.pdb
REMARK  2 active torsions:
REMARK  status: ('A' for Active; 'I' for Inactive)
REMARK    1  A    between atoms: C_10  and  O_14
REMARK    2  A    between atoms: C_19  and  O_23
REMARK                            x       y       z     vdW  Elec       q    Type
REMARK                         _______ _______ _______ _____ _____    ______ ____
ROOT
ATOM      1  O   UNL     1      14.437 -11.115  -3.901  0.00  0.00    +0.000 OA
ATOM      2  O   UNL     1      16.470 -10.437  -4.817  0.00  0.00    +0.000 OA
ATOM      3  C   UNL     1      13.227  -9.087  -4.103  0.00  0.00    +0.000 C 
ATOM      4  C   UNL     1      14.558  -8.912  -4.631  0.00  0.00    +0.000 C 
ATOM      5  C   UNL     1      13.318 -10.429  -3.731  0.00  0.00    +0.000 C 
ATOM      6  C   UNL     1      15.321 -10.215  -4.484  0.00  0.00    +0.000 C 
ATOM      7  C   UNL     1      12.100  -8.302  -4.411  0.00  0.00    +0.000 C 
ATOM      8  C   UNL     1      10.972  -7.491  -4.729  0.00  0.00    +0.000 C 
ATOM      9  C   UNL     1      10.875  -6.902  -5.988  0.00  0.00    +0.000 C 
ATOM     10  C   UNL     1       9.773  -6.104  -6.281  0.00  0.00    +0.000 C 
ATOM     11  C   UNL     1       8.774  -5.889  -5.338  0.00  0.00    +0.000 C 
ATOM     12  C   UNL     1       8.877  -6.480  -4.081  0.00  0.00    +0.000 C 
ATOM     13  C   UNL     1       9.976  -7.282  -3.776  0.00  0.00    +0.000 C 
ATOM     14  C   UNL     1      15.051  -7.747  -5.260  0.00  0.00    +0.000 C 
ATOM     15  C   UNL     1      15.538  -6.570  -5.899  0.00  0.00    +0.000 C 
ATOM     16  C   UNL     1      15.177  -5.317  -5.412  0.00  0.00    +0.000 C 
ATOM     17  C   UNL     1      15.651  -4.176  -6.051  0.00  0.00    +0.000 C 
ATOM     18  C   UNL     1      16.477  -4.271  -7.166  0.00  0.00    +0.000 C 
ATOM     19  C   UNL     1      16.835  -5.528  -7.648  0.00  0.00    +0.000 C 
ATOM     20  C   UNL     1      16.366  -6.679  -7.016  0.00  0.00    +0.000 C 
ENDROOT
BRANCH  10  21
ATOM     21  O   UNL     1       9.647  -5.513  -7.505  0.00  0.00    +0.000 OA
ATOM     22  H   UNL     1       9.884  -4.573  -7.421  0.00  0.00    +0.000 HD
ENDBRANCH  10  21
BRANCH  17  23
ATOM     23  O   UNL     1      15.315  -2.933  -5.600  0.00  0.00    +0.000 OA
ATOM     24  H   UNL     1      15.166  -2.983  -4.639  0.00  0.00    +0.000 HD
ENDBRANCH  17  23
TORSDOF 2
ENDMDL
