MODEL 1
REMARK VINA RESULT:      -7.6      0.000      0.000
REMARK  Name = 
REMARK  12 active torsions:
REMARK  status: ('A' for Active; 'I' for Inactive)
REMARK    1  A    between atoms: O_2  and  C_12
REMARK    2  A    between atoms: O_2  and  C_24
REMARK    3  A    between atoms: O_3  and  C_18
REMARK    4  A    between atoms: O_4  and  C_23
REMARK    5  A    between atoms: O_5  and  C_25
REMARK    6  A    between atoms: O_6  and  C_26
REMARK    7  A    between atoms: O_8  and  C_27
REMARK    8  A    between atoms: O_9  and  C_31
REMARK    9  A    between atoms: O_10  and  C_32
REMARK   10  A    between atoms: O_11  and  C_33
REMARK   11  A    between atoms: C_13  and  C_16
REMARK   12  A    between atoms: C_24  and  C_28
REMARK                            x       y       z     vdW  Elec       q    Type
REMARK                         _______ _______ _______ _____ _____    ______ ____
ROOT
ATOM      1  O   UNL     1       6.685  -0.490 -19.575  0.00  0.00    +0.000 OA
ATOM      2  C   UNL     1       7.338   1.872 -19.263  0.00  0.00    +0.000 C 
ATOM      3  C   UNL     1       7.242   0.669 -20.218  0.00  0.00    +0.000 C 
ATOM      4  C   UNL     1       5.925   2.248 -18.818  0.00  0.00    +0.000 C 
ATOM      5  C   UNL     1       5.113   1.024 -18.477  0.00  0.00    +0.000 A 
ATOM      6  C   UNL     1       5.532  -0.252 -18.875  0.00  0.00    +0.000 A 
ATOM      7  C   UNL     1       3.908   1.142 -17.774  0.00  0.00    +0.000 A 
ATOM      8  C   UNL     1       4.789  -1.385 -18.538  0.00  0.00    +0.000 A 
ATOM      9  C   UNL     1       3.152   0.019 -17.443  0.00  0.00    +0.000 A 
ATOM     10  C   UNL     1       3.603  -1.238 -17.825  0.00  0.00    +0.000 A 
ENDROOT
BRANCH   3  11
ATOM     11  C   UNL     1       8.601   0.305 -20.801  0.00  0.00    +0.000 A 
ATOM     12  C   UNL     1       9.370   1.291 -21.451  0.00  0.00    +0.000 A 
ATOM     13  C   UNL     1       9.124  -0.995 -20.672  0.00  0.00    +0.000 A 
ATOM     14  C   UNL     1      10.382  -1.291 -21.188  0.00  0.00    +0.000 A 
ATOM     15  C   UNL     1      10.629   0.978 -21.967  0.00  0.00    +0.000 A 
ATOM     16  C   UNL     1      11.133  -0.311 -21.834  0.00  0.00    +0.000 A 
BRANCH  14  17
ATOM     17  O   UNL     1      10.927  -2.542 -21.079  0.00  0.00    +0.000 OA
ATOM     18  H   UNL     1      11.120  -2.711 -20.141  0.00  0.00    +0.000 HD
ENDBRANCH  14  17
BRANCH  15  19
ATOM     19  O   UNL     1      11.376   1.930 -22.600  0.00  0.00    +0.000 OA
ATOM     20  H   UNL     1      12.080   2.237 -22.010  0.00  0.00    +0.000 HD
ENDBRANCH  15  19
BRANCH  16  21
ATOM     21  O   UNL     1      12.365  -0.638 -22.329  0.00  0.00    +0.000 OA
ATOM     22  H   UNL     1      12.739  -1.257 -21.673  0.00  0.00    +0.000 HD
ENDBRANCH  16  21
ENDBRANCH   3  11
BRANCH   7  23
ATOM     23  O   UNL     1       3.481   2.388 -17.412  0.00  0.00    +0.000 OA
ATOM     24  H   UNL     1       3.779   3.028 -18.080  0.00  0.00    +0.000 HD
ENDBRANCH   7  23
BRANCH  10  25
ATOM     25  O   UNL     1       2.842  -2.315 -17.482  0.00  0.00    +0.000 OA
ATOM     26  H   UNL     1       2.041  -2.002 -17.028  0.00  0.00    +0.000 HD
ENDBRANCH  10  25
BRANCH   2  27
ATOM     27  O   UNL     1       8.118   1.508 -18.097  0.00  0.00    +0.000 OA
BRANCH  27  29
ATOM     28  O   UNL     1       9.382   3.422 -18.177  0.00  0.00    +0.000 OA
ATOM     29  C   UNL     1       9.210   2.262 -17.843  0.00  0.00    +0.000 C 
BRANCH  29  30
ATOM     30  C   UNL     1      10.220   1.453 -17.114  0.00  0.00    +0.000 A 
ATOM     31  C   UNL     1      10.183   0.059 -17.270  0.00  0.00    +0.000 A 
ATOM     32  C   UNL     1      11.195   2.050 -16.296  0.00  0.00    +0.000 A 
ATOM     33  C   UNL     1      12.119   1.250 -15.627  0.00  0.00    +0.000 A 
ATOM     34  C   UNL     1      11.111  -0.724 -16.593  0.00  0.00    +0.000 A 
ATOM     35  C   UNL     1      12.072  -0.134 -15.772  0.00  0.00    +0.000 A 
BRANCH  33  36
ATOM     36  O   UNL     1      13.072   1.813 -14.827  0.00  0.00    +0.000 OA
ATOM     37  H   UNL     1      13.752   1.155 -14.618  0.00  0.00    +0.000 HD
ENDBRANCH  33  36
BRANCH  34  38
ATOM     38  O   UNL     1      11.118  -2.087 -16.703  0.00  0.00    +0.000 OA
ATOM     39  H   UNL     1      11.921  -2.430 -16.271  0.00  0.00    +0.000 HD
ENDBRANCH  34  38
BRANCH  35  40
ATOM     40  O   UNL     1      12.970  -0.935 -15.120  0.00  0.00    +0.000 OA
ATOM     41  H   UNL     1      12.764  -1.842 -15.420  0.00  0.00    +0.000 HD
ENDBRANCH  35  40
ENDBRANCH  29  30
ENDBRANCH  27  29
ENDBRANCH   2  27
TORSDOF 12
ENDMDL
MODEL 2
REMARK VINA RESULT:      -7.0     12.332     18.246
REMARK  Name = 
REMARK  12 active torsions:
REMARK  status: ('A' for Active; 'I' for Inactive)
REMARK    1  A    between atoms: O_2  and  C_12
REMARK    2  A    between atoms: O_2  and  C_24
REMARK    3  A    between atoms: O_3  and  C_18
REMARK    4  A    between atoms: O_4  and  C_23
REMARK    5  A    between atoms: O_5  and  C_25
REMARK    6  A    between atoms: O_6  and  C_26
REMARK    7  A    between atoms: O_8  and  C_27
REMARK    8  A    between atoms: O_9  and  C_31
REMARK    9  A    between atoms: O_10  and  C_32
REMARK   10  A    between atoms: O_11  and  C_33
REMARK   11  A    between atoms: C_13  and  C_16
REMARK   12  A    between atoms: C_24  and  C_28
REMARK                            x       y       z     vdW  Elec       q    Type
REMARK                         _______ _______ _______ _____ _____    ______ ____
ROOT
ATOM      1  O   UNL     1      -5.715  -1.371 -20.639  0.00  0.00    +0.000 OA
ATOM      2  C   UNL     1      -7.164  -2.708 -19.149  0.00  0.00    +0.000 C 
ATOM      3  C   UNL     1      -6.372  -2.639 -20.466  0.00  0.00    +0.000 C 
ATOM      4  C   UNL     1      -6.182  -2.556 -17.988  0.00  0.00    +0.000 C 
ATOM      5  C   UNL     1      -5.178  -1.464 -18.257  0.00  0.00    +0.000 A 
ATOM      6  C   UNL     1      -5.003  -0.949 -19.548  0.00  0.00    +0.000 A 
ATOM      7  C   UNL     1      -4.381  -0.958 -17.222  0.00  0.00    +0.000 A 
ATOM      8  C   UNL     1      -4.088   0.078 -19.788  0.00  0.00    +0.000 A 
ATOM      9  C   UNL     1      -3.457   0.058 -17.454  0.00  0.00    +0.000 A 
ATOM     10  C   UNL     1      -3.321   0.571 -18.737  0.00  0.00    +0.000 A 
ENDROOT
BRANCH   3  11
ATOM     11  C   UNL     1      -7.265  -2.899 -21.672  0.00  0.00    +0.000 A 
ATOM     12  C   UNL     1      -7.868  -4.162 -21.836  0.00  0.00    +0.000 A 
ATOM     13  C   UNL     1      -7.530  -1.888 -22.614  0.00  0.00    +0.000 A 
ATOM     14  C   UNL     1      -8.374  -2.146 -23.690  0.00  0.00    +0.000 A 
ATOM     15  C   UNL     1      -8.711  -4.407 -22.922  0.00  0.00    +0.000 A 
ATOM     16  C   UNL     1      -8.962  -3.399 -23.847  0.00  0.00    +0.000 A 
BRANCH  14  17
ATOM     17  O   UNL     1      -8.661  -1.187 -24.624  0.00  0.00    +0.000 OA
ATOM     18  H   UNL     1      -9.404  -0.652 -24.296  0.00  0.00    +0.000 HD
ENDBRANCH  14  17
BRANCH  15  19
ATOM     19  O   UNL     1      -9.295  -5.630 -23.085  0.00  0.00    +0.000 OA
ATOM     20  H   UNL     1     -10.157  -5.641 -22.644  0.00  0.00    +0.000 HD
ENDBRANCH  15  19
BRANCH  16  21
ATOM     21  O   UNL     1      -9.787  -3.616 -24.916  0.00  0.00    +0.000 OA
ATOM     22  H   UNL     1     -10.313  -2.797 -24.994  0.00  0.00    +0.000 HD
ENDBRANCH  16  21
ENDBRANCH   3  11
BRANCH   7  23
ATOM     23  O   UNL     1      -4.528  -1.481 -15.968  0.00  0.00    +0.000 OA
ATOM     24  H   UNL     1      -5.412  -1.255 -15.636  0.00  0.00    +0.000 HD
ENDBRANCH   7  23
BRANCH  10  25
ATOM     25  O   UNL     1      -2.410   1.568 -18.929  0.00  0.00    +0.000 OA
ATOM     26  H   UNL     1      -1.665   1.433 -18.318  0.00  0.00    +0.000 HD
ENDBRANCH  10  25
BRANCH   2  27
ATOM     27  O   UNL     1      -8.123  -1.621 -19.099  0.00  0.00    +0.000 OA
BRANCH  27  29
ATOM     28  O   UNL     1      -9.703  -2.029 -17.485  0.00  0.00    +0.000 OA
ATOM     29  C   UNL     1      -9.360  -1.929 -18.651  0.00  0.00    +0.000 C 
BRANCH  29  30
ATOM     30  C   UNL     1     -10.264  -2.175 -19.803  0.00  0.00    +0.000 A 
ATOM     31  C   UNL     1     -10.724  -3.485 -20.010  0.00  0.00    +0.000 A 
ATOM     32  C   UNL     1     -10.665  -1.139 -20.663  0.00  0.00    +0.000 A 
ATOM     33  C   UNL     1     -11.511  -1.419 -21.735  0.00  0.00    +0.000 A 
ATOM     34  C   UNL     1     -11.565  -3.746 -21.085  0.00  0.00    +0.000 A 
ATOM     35  C   UNL     1     -11.954  -2.721 -21.947  0.00  0.00    +0.000 A 
BRANCH  33  36
ATOM     36  O   UNL     1     -11.909  -0.424 -22.582  0.00  0.00    +0.000 OA
ATOM     37  H   UNL     1     -11.201  -0.233 -23.215  0.00  0.00    +0.000 HD
ENDBRANCH  33  36
BRANCH  34  38
ATOM     38  O   UNL     1     -12.038  -5.005 -21.338  0.00  0.00    +0.000 OA
ATOM     39  H   UNL     1     -11.297  -5.563 -21.635  0.00  0.00    +0.000 HD
ENDBRANCH  34  38
BRANCH  35  40
ATOM     40  O   UNL     1     -12.783  -3.015 -22.996  0.00  0.00    +0.000 OA
ATOM     41  H   UNL     1     -12.199  -3.392 -23.682  0.00  0.00    +0.000 HD
ENDBRANCH  35  40
ENDBRANCH  29  30
ENDBRANCH  27  29
ENDBRANCH   2  27
TORSDOF 12
ENDMDL
MODEL 3
REMARK VINA RESULT:      -6.9     12.365     18.161
REMARK  Name = 
REMARK  12 active torsions:
REMARK  status: ('A' for Active; 'I' for Inactive)
REMARK    1  A    between atoms: O_2  and  C_12
REMARK    2  A    between atoms: O_2  and  C_24
REMARK    3  A    between atoms: O_3  and  C_18
REMARK    4  A    between atoms: O_4  and  C_23
REMARK    5  A    between atoms: O_5  and  C_25
REMARK    6  A    between atoms: O_6  and  C_26
REMARK    7  A    between atoms: O_8  and  C_27
REMARK    8  A    between atoms: O_9  and  C_31
REMARK    9  A    between atoms: O_10  and  C_32
REMARK   10  A    between atoms: O_11  and  C_33
REMARK   11  A    between atoms: C_13  and  C_16
REMARK   12  A    between atoms: C_24  and  C_28
REMARK                            x       y       z     vdW  Elec       q    Type
REMARK                         _______ _______ _______ _____ _____    ______ ____
ROOT
ATOM      1  O   UNL     1      -5.707  -1.241 -20.787  0.00  0.00    +0.000 OA
ATOM      2  C   UNL     1      -7.057  -2.568 -19.199  0.00  0.00    +0.000 C 
ATOM      3  C   UNL     1      -6.308  -2.524 -20.543  0.00  0.00    +0.000 C 
ATOM      4  C   UNL     1      -6.047  -2.331 -18.077  0.00  0.00    +0.000 C 
ATOM      5  C   UNL     1      -5.095  -1.214 -18.422  0.00  0.00    +0.000 A 
ATOM      6  C   UNL     1      -4.979  -0.747 -19.737  0.00  0.00    +0.000 A 
ATOM      7  C   UNL     1      -4.287  -0.636 -17.435  0.00  0.00    +0.000 A 
ATOM      8  C   UNL     1      -4.113   0.303 -20.048  0.00  0.00    +0.000 A 
ATOM      9  C   UNL     1      -3.410   0.404 -17.737  0.00  0.00    +0.000 A 
ATOM     10  C   UNL     1      -3.334   0.868 -19.044  0.00  0.00    +0.000 A 
ENDROOT
BRANCH   3  11
ATOM     11  C   UNL     1      -7.226  -2.868 -21.708  0.00  0.00    +0.000 A 
ATOM     12  C   UNL     1      -7.505  -1.898 -22.690  0.00  0.00    +0.000 A 
ATOM     13  C   UNL     1      -7.779  -4.156 -21.845  0.00  0.00    +0.000 A 
ATOM     14  C   UNL     1      -8.590  -4.451 -22.936  0.00  0.00    +0.000 A 
ATOM     15  C   UNL     1      -8.323  -2.207 -23.778  0.00  0.00    +0.000 A 
ATOM     16  C   UNL     1      -8.864  -3.483 -23.899  0.00  0.00    +0.000 A 
BRANCH  14  17
ATOM     17  O   UNL     1      -9.141  -5.692 -23.106  0.00  0.00    +0.000 OA
ATOM     18  H   UNL     1      -9.530  -5.974 -22.260  0.00  0.00    +0.000 HD
ENDBRANCH  14  17
BRANCH  15  19
ATOM     19  O   UNL     1      -8.597  -1.268 -24.731  0.00  0.00    +0.000 OA
ATOM     20  H   UNL     1      -7.888  -0.607 -24.749  0.00  0.00    +0.000 HD
ENDBRANCH  15  19
BRANCH  16  21
ATOM     21  O   UNL     1      -9.665  -3.808 -24.959  0.00  0.00    +0.000 OA
ATOM     22  H   UNL     1      -9.141  -3.570 -25.748  0.00  0.00    +0.000 HD
ENDBRANCH  16  21
ENDBRANCH   3  11
BRANCH   7  23
ATOM     23  O   UNL     1      -4.375  -1.111 -16.157  0.00  0.00    +0.000 OA
ATOM     24  H   UNL     1      -4.020  -0.441 -15.548  0.00  0.00    +0.000 HD
ENDBRANCH   7  23
BRANCH  10  25
ATOM     25  O   UNL     1      -2.469   1.889 -19.304  0.00  0.00    +0.000 OA
ATOM     26  H   UNL     1      -1.616   1.515 -19.583  0.00  0.00    +0.000 HD
ENDBRANCH  10  25
BRANCH   2  27
ATOM     27  O   UNL     1      -8.055  -1.518 -19.163  0.00  0.00    +0.000 OA
BRANCH  27  29
ATOM     28  O   UNL     1      -9.579  -1.916 -17.493  0.00  0.00    +0.000 OA
ATOM     29  C   UNL     1      -9.267  -1.856 -18.671  0.00  0.00    +0.000 C 
BRANCH  29  30
ATOM     30  C   UNL     1     -10.187  -2.190 -19.788  0.00  0.00    +0.000 A 
ATOM     31  C   UNL     1     -10.505  -1.176 -20.705  0.00  0.00    +0.000 A 
ATOM     32  C   UNL     1     -10.723  -3.480 -19.944  0.00  0.00    +0.000 A 
ATOM     33  C   UNL     1     -11.586  -3.746 -21.005  0.00  0.00    +0.000 A 
ATOM     34  C   UNL     1     -11.369  -1.458 -21.756  0.00  0.00    +0.000 A 
ATOM     35  C   UNL     1     -11.912  -2.735 -21.905  0.00  0.00    +0.000 A 
BRANCH  33  36
ATOM     36  O   UNL     1     -12.118  -4.993 -21.170  0.00  0.00    +0.000 OA
ATOM     37  H   UNL     1     -11.975  -5.291 -22.080  0.00  0.00    +0.000 HD
ENDBRANCH  33  36
BRANCH  34  38
ATOM     38  O   UNL     1     -11.718  -0.507 -22.675  0.00  0.00    +0.000 OA
ATOM     39  H   UNL     1     -12.045  -0.953 -23.477  0.00  0.00    +0.000 HD
ENDBRANCH  34  38
BRANCH  35  40
ATOM     40  O   UNL     1     -12.760  -2.977 -22.951  0.00  0.00    +0.000 OA
ATOM     41  H   UNL     1     -12.219  -3.453 -23.610  0.00  0.00    +0.000 HD
ENDBRANCH  35  40
ENDBRANCH  29  30
ENDBRANCH  27  29
ENDBRANCH   2  27
TORSDOF 12
ENDMDL
MODEL 4
REMARK VINA RESULT:      -6.9      7.993     12.006
REMARK  Name = 
REMARK  12 active torsions:
REMARK  status: ('A' for Active; 'I' for Inactive)
REMARK    1  A    between atoms: O_2  and  C_12
REMARK    2  A    between atoms: O_2  and  C_24
REMARK    3  A    between atoms: O_3  and  C_18
REMARK    4  A    between atoms: O_4  and  C_23
REMARK    5  A    between atoms: O_5  and  C_25
REMARK    6  A    between atoms: O_6  and  C_26
REMARK    7  A    between atoms: O_8  and  C_27
REMARK    8  A    between atoms: O_9  and  C_31
REMARK    9  A    between atoms: O_10  and  C_32
REMARK   10  A    between atoms: O_11  and  C_33
REMARK   11  A    between atoms: C_13  and  C_16
REMARK   12  A    between atoms: C_24  and  C_28
REMARK                            x       y       z     vdW  Elec       q    Type
REMARK                         _______ _______ _______ _____ _____    ______ ____
ROOT
ATOM      1  O   UNL     1      -0.318   0.955 -21.771  0.00  0.00    +0.000 OA
ATOM      2  C   UNL     1      -1.053   1.686 -19.528  0.00  0.00    +0.000 C 
ATOM      3  C   UNL     1       0.046   1.031 -20.382  0.00  0.00    +0.000 C 
ATOM      4  C   UNL     1      -1.250   3.122 -20.013  0.00  0.00    +0.000 C 
ATOM      5  C   UNL     1      -1.263   3.195 -21.520  0.00  0.00    +0.000 A 
ATOM      6  C   UNL     1      -0.798   2.126 -22.297  0.00  0.00    +0.000 A 
ATOM      7  C   UNL     1      -1.719   4.346 -22.173  0.00  0.00    +0.000 A 
ATOM      8  C   UNL     1      -0.832   2.189 -23.691  0.00  0.00    +0.000 A 
ATOM      9  C   UNL     1      -1.746   4.424 -23.564  0.00  0.00    +0.000 A 
ATOM     10  C   UNL     1      -1.305   3.340 -24.312  0.00  0.00    +0.000 A 
ENDROOT
BRANCH   3  11
ATOM     11  C   UNL     1       0.386  -0.367 -19.884  0.00  0.00    +0.000 A 
ATOM     12  C   UNL     1      -0.309  -1.480 -20.396  0.00  0.00    +0.000 A 
ATOM     13  C   UNL     1       1.412  -0.576 -18.943  0.00  0.00    +0.000 A 
ATOM     14  C   UNL     1       1.721  -1.867 -18.529  0.00  0.00    +0.000 A 
ATOM     15  C   UNL     1       0.010  -2.771 -19.968  0.00  0.00    +0.000 A 
ATOM     16  C   UNL     1       1.024  -2.962 -19.036  0.00  0.00    +0.000 A 
BRANCH  14  17
ATOM     17  O   UNL     1       2.715  -2.112 -17.620  0.00  0.00    +0.000 OA
ATOM     18  H   UNL     1       3.469  -1.533 -17.827  0.00  0.00    +0.000 HD
ENDBRANCH  14  17
BRANCH  15  19
ATOM     19  O   UNL     1      -0.664  -3.851 -20.460  0.00  0.00    +0.000 OA
ATOM     20  H   UNL     1      -0.172  -4.661 -20.258  0.00  0.00    +0.000 HD
ENDBRANCH  15  19
BRANCH  16  21
ATOM     21  O   UNL     1       1.356  -4.217 -18.607  0.00  0.00    +0.000 OA
ATOM     22  H   UNL     1       0.938  -4.297 -17.728  0.00  0.00    +0.000 HD
ENDBRANCH  16  21
ENDBRANCH   3  11
BRANCH   7  23
ATOM     23  O   UNL     1      -2.143   5.402 -21.418  0.00  0.00    +0.000 OA
ATOM     24  H   UNL     1      -2.099   5.154 -20.479  0.00  0.00    +0.000 HD
ENDBRANCH   7  23
BRANCH  10  25
ATOM     25  O   UNL     1      -1.349   3.448 -25.671  0.00  0.00    +0.000 OA
ATOM     26  H   UNL     1      -0.483   3.758 -25.989  0.00  0.00    +0.000 HD
ENDBRANCH  10  25
BRANCH   2  27
ATOM     27  O   UNL     1      -2.296   0.959 -19.693  0.00  0.00    +0.000 OA
BRANCH  27  29
ATOM     28  O   UNL     1      -3.114   1.521 -17.623  0.00  0.00    +0.000 OA
ATOM     29  C   UNL     1      -3.033   0.765 -18.577  0.00  0.00    +0.000 C 
BRANCH  29  30
ATOM     30  C   UNL     1      -3.722  -0.548 -18.652  0.00  0.00    +0.000 A 
ATOM     31  C   UNL     1      -3.068  -1.667 -18.114  0.00  0.00    +0.000 A 
ATOM     32  C   UNL     1      -4.995  -0.683 -19.233  0.00  0.00    +0.000 A 
ATOM     33  C   UNL     1      -5.601  -1.938 -19.285  0.00  0.00    +0.000 A 
ATOM     34  C   UNL     1      -3.686  -2.910 -18.178  0.00  0.00    +0.000 A 
ATOM     35  C   UNL     1      -4.944  -3.048 -18.764  0.00  0.00    +0.000 A 
BRANCH  33  36
ATOM     36  O   UNL     1      -6.836  -2.087 -19.848  0.00  0.00    +0.000 OA
ATOM     37  H   UNL     1      -6.974  -3.015 -20.090  0.00  0.00    +0.000 HD
ENDBRANCH  33  36
BRANCH  34  38
ATOM     38  O   UNL     1      -3.091  -4.035 -17.674  0.00  0.00    +0.000 OA
ATOM     39  H   UNL     1      -2.126  -3.906 -17.680  0.00  0.00    +0.000 HD
ENDBRANCH  34  38
BRANCH  35  40
ATOM     40  O   UNL     1      -5.522  -4.287 -18.810  0.00  0.00    +0.000 OA
ATOM     41  H   UNL     1      -5.099  -4.790 -18.087  0.00  0.00    +0.000 HD
ENDBRANCH  35  40
ENDBRANCH  29  30
ENDBRANCH  27  29
ENDBRANCH   2  27
TORSDOF 12
ENDMDL
MODEL 5
REMARK VINA RESULT:      -6.8      6.236     10.189
REMARK  Name = 
REMARK  12 active torsions:
REMARK  status: ('A' for Active; 'I' for Inactive)
REMARK    1  A    between atoms: O_2  and  C_12
REMARK    2  A    between atoms: O_2  and  C_24
REMARK    3  A    between atoms: O_3  and  C_18
REMARK    4  A    between atoms: O_4  and  C_23
REMARK    5  A    between atoms: O_5  and  C_25
REMARK    6  A    between atoms: O_6  and  C_26
REMARK    7  A    between atoms: O_8  and  C_27
REMARK    8  A    between atoms: O_9  and  C_31
REMARK    9  A    between atoms: O_10  and  C_32
REMARK   10  A    between atoms: O_11  and  C_33
REMARK   11  A    between atoms: C_13  and  C_16
REMARK   12  A    between atoms: C_24  and  C_28
REMARK                            x       y       z     vdW  Elec       q    Type
REMARK                         _______ _______ _______ _____ _____    ______ ____
ROOT
ATOM      1  O   UNL     1      -3.371   0.920 -20.586  0.00  0.00    +0.000 OA
ATOM      2  C   UNL     1      -1.686   0.261 -18.903  0.00  0.00    +0.000 C 
ATOM      3  C   UNL     1      -2.373   1.404 -19.671  0.00  0.00    +0.000 C 
ATOM      4  C   UNL     1      -2.742  -0.459 -18.066  0.00  0.00    +0.000 C 
ATOM      5  C   UNL     1      -4.011  -0.678 -18.852  0.00  0.00    +0.000 A 
ATOM      6  C   UNL     1      -4.248   0.019 -20.044  0.00  0.00    +0.000 A 
ATOM      7  C   UNL     1      -4.990  -1.566 -18.392  0.00  0.00    +0.000 A 
ATOM      8  C   UNL     1      -5.414  -0.203 -20.781  0.00  0.00    +0.000 A 
ATOM      9  C   UNL     1      -6.162  -1.786 -19.113  0.00  0.00    +0.000 A 
ATOM     10  C   UNL     1      -6.362  -1.103 -20.306  0.00  0.00    +0.000 A 
ENDROOT
BRANCH   3  11
ATOM     11  C   UNL     1      -1.365   2.247 -20.441  0.00  0.00    +0.000 A 
ATOM     12  C   UNL     1      -0.374   2.965 -19.742  0.00  0.00    +0.000 A 
ATOM     13  C   UNL     1      -1.381   2.298 -21.848  0.00  0.00    +0.000 A 
ATOM     14  C   UNL     1      -0.429   3.053 -22.525  0.00  0.00    +0.000 A 
ATOM     15  C   UNL     1       0.573   3.721 -20.436  0.00  0.00    +0.000 A 
ATOM     16  C   UNL     1       0.544   3.763 -21.826  0.00  0.00    +0.000 A 
BRANCH  14  17
ATOM     17  O   UNL     1      -0.408   3.123 -23.893  0.00  0.00    +0.000 OA
ATOM     18  H   UNL     1       0.107   2.370 -24.230  0.00  0.00    +0.000 HD
ENDBRANCH  14  17
BRANCH  15  19
ATOM     19  O   UNL     1       1.532   4.419 -19.761  0.00  0.00    +0.000 OA
ATOM     20  H   UNL     1       2.119   4.861 -20.394  0.00  0.00    +0.000 HD
ENDBRANCH  15  19
BRANCH  16  21
ATOM     21  O   UNL     1       1.465   4.494 -22.525  0.00  0.00    +0.000 OA
ATOM     22  H   UNL     1       1.915   3.844 -23.096  0.00  0.00    +0.000 HD
ENDBRANCH  16  21
ENDBRANCH   3  11
BRANCH   7  23
ATOM     23  O   UNL     1      -4.776  -2.223 -17.213  0.00  0.00    +0.000 OA
ATOM     24  H   UNL     1      -4.042  -1.792 -16.743  0.00  0.00    +0.000 HD
ENDBRANCH   7  23
BRANCH  10  25
ATOM     25  O   UNL     1      -7.517  -1.344 -20.988  0.00  0.00    +0.000 OA
ATOM     26  H   UNL     1      -7.356  -2.046 -21.642  0.00  0.00    +0.000 HD
ENDBRANCH  10  25
BRANCH   2  27
ATOM     27  O   UNL     1      -1.108  -0.679 -19.842  0.00  0.00    +0.000 OA
BRANCH  27  29
ATOM     28  O   UNL     1      -0.181  -2.616 -19.030  0.00  0.00    +0.000 OA
ATOM     29  C   UNL     1      -0.099  -1.450 -19.380  0.00  0.00    +0.000 C 
BRANCH  29  30
ATOM     30  C   UNL     1       1.152  -0.653 -19.316  0.00  0.00    +0.000 A 
ATOM     31  C   UNL     1       1.577   0.000 -20.483  0.00  0.00    +0.000 A 
ATOM     32  C   UNL     1       1.895  -0.537 -18.128  0.00  0.00    +0.000 A 
ATOM     33  C   UNL     1       3.066   0.218 -18.117  0.00  0.00    +0.000 A 
ATOM     34  C   UNL     1       2.749   0.746 -20.454  0.00  0.00    +0.000 A 
ATOM     35  C   UNL     1       3.494   0.852 -19.280  0.00  0.00    +0.000 A 
BRANCH  33  36
ATOM     36  O   UNL     1       3.802   0.339 -16.973  0.00  0.00    +0.000 OA
ATOM     37  H   UNL     1       4.580  -0.235 -17.023  0.00  0.00    +0.000 HD
ENDBRANCH  33  36
BRANCH  34  38
ATOM     38  O   UNL     1       3.214   1.398 -21.564  0.00  0.00    +0.000 OA
ATOM     39  H   UNL     1       3.978   1.945 -21.307  0.00  0.00    +0.000 HD
ENDBRANCH  34  38
BRANCH  35  40
ATOM     40  O   UNL     1       4.643   1.595 -19.288  0.00  0.00    +0.000 OA
ATOM     41  H   UNL     1       5.001   1.497 -20.192  0.00  0.00    +0.000 HD
ENDBRANCH  35  40
ENDBRANCH  29  30
ENDBRANCH  27  29
ENDBRANCH   2  27
TORSDOF 12
ENDMDL
MODEL 6
REMARK VINA RESULT:      -6.6      1.718      2.112
REMARK  Name = 
REMARK  12 active torsions:
REMARK  status: ('A' for Active; 'I' for Inactive)
REMARK    1  A    between atoms: O_2  and  C_12
REMARK    2  A    between atoms: O_2  and  C_24
REMARK    3  A    between atoms: O_3  and  C_18
REMARK    4  A    between atoms: O_4  and  C_23
REMARK    5  A    between atoms: O_5  and  C_25
REMARK    6  A    between atoms: O_6  and  C_26
REMARK    7  A    between atoms: O_8  and  C_27
REMARK    8  A    between atoms: O_9  and  C_31
REMARK    9  A    between atoms: O_10  and  C_32
REMARK   10  A    between atoms: O_11  and  C_33
REMARK   11  A    between atoms: C_13  and  C_16
REMARK   12  A    between atoms: C_24  and  C_28
REMARK                            x       y       z     vdW  Elec       q    Type
REMARK                         _______ _______ _______ _____ _____    ______ ____
ROOT
ATOM      1  O   UNL     1       8.457  -0.845 -20.765  0.00  0.00    +0.000 OA
ATOM      2  C   UNL     1       8.060   1.498 -20.085  0.00  0.00    +0.000 C 
ATOM      3  C   UNL     1       8.748   0.531 -21.065  0.00  0.00    +0.000 C 
ATOM      4  C   UNL     1       6.547   1.325 -20.220  0.00  0.00    +0.000 C 
ATOM      5  C   UNL     1       6.166  -0.132 -20.301  0.00  0.00    +0.000 A 
ATOM      6  C   UNL     1       7.128  -1.114 -20.570  0.00  0.00    +0.000 A 
ATOM      7  C   UNL     1       4.835  -0.531 -20.131  0.00  0.00    +0.000 A 
ATOM      8  C   UNL     1       6.775  -2.464 -20.622  0.00  0.00    +0.000 A 
ATOM      9  C   UNL     1       4.470  -1.874 -20.193  0.00  0.00    +0.000 A 
ATOM     10  C   UNL     1       5.447  -2.832 -20.434  0.00  0.00    +0.000 A 
ENDROOT
BRANCH   3  11
ATOM     11  C   UNL     1      10.258   0.725 -21.078  0.00  0.00    +0.000 A 
ATOM     12  C   UNL     1      10.796   2.022 -21.194  0.00  0.00    +0.000 A 
ATOM     13  C   UNL     1      11.134  -0.368 -20.938  0.00  0.00    +0.000 A 
ATOM     14  C   UNL     1      12.509  -0.157 -20.922  0.00  0.00    +0.000 A 
ATOM     15  C   UNL     1      12.179   2.218 -21.180  0.00  0.00    +0.000 A 
ATOM     16  C   UNL     1      13.032   1.128 -21.044  0.00  0.00    +0.000 A 
BRANCH  14  17
ATOM     17  O   UNL     1      13.393  -1.193 -20.783  0.00  0.00    +0.000 OA
ATOM     18  H   UNL     1      12.902  -2.028 -20.867  0.00  0.00    +0.000 HD
ENDBRANCH  14  17
BRANCH  15  19
ATOM     19  O   UNL     1      12.703   3.473 -21.296  0.00  0.00    +0.000 OA
ATOM     20  H   UNL     1      13.670   3.426 -21.267  0.00  0.00    +0.000 HD
ENDBRANCH  15  19
BRANCH  16  21
ATOM     21  O   UNL     1      14.389   1.298 -21.023  0.00  0.00    +0.000 OA
ATOM     22  H   UNL     1      14.535   2.177 -21.422  0.00  0.00    +0.000 HD
ENDBRANCH  16  21
ENDBRANCH   3  11
BRANCH   7  23
ATOM     23  O   UNL     1       3.889   0.428 -19.900  0.00  0.00    +0.000 OA
ATOM     24  H   UNL     1       4.336   1.262 -19.680  0.00  0.00    +0.000 HD
ENDBRANCH   7  23
BRANCH  10  25
ATOM     25  O   UNL     1       5.056  -4.137 -20.485  0.00  0.00    +0.000 OA
ATOM     26  H   UNL     1       4.427  -4.248 -21.218  0.00  0.00    +0.000 HD
ENDBRANCH  10  25
BRANCH   2  27
ATOM     27  O   UNL     1       8.451   1.175 -18.727  0.00  0.00    +0.000 OA
BRANCH  27  29
ATOM     28  O   UNL     1       9.200   3.282 -18.208  0.00  0.00    +0.000 OA
ATOM     29  C   UNL     1       9.251   2.067 -18.103  0.00  0.00    +0.000 C 
BRANCH  29  30
ATOM     30  C   UNL     1      10.254   1.350 -17.276  0.00  0.00    +0.000 A 
ATOM     31  C   UNL     1      10.311  -0.049 -17.377  0.00  0.00    +0.000 A 
ATOM     32  C   UNL     1      11.134   2.036 -16.421  0.00  0.00    +0.000 A 
ATOM     33  C   UNL     1      12.056   1.319 -15.660  0.00  0.00    +0.000 A 
ATOM     34  C   UNL     1      11.235  -0.746 -16.609  0.00  0.00    +0.000 A 
ATOM     35  C   UNL     1      12.101  -0.069 -15.750  0.00  0.00    +0.000 A 
BRANCH  33  36
ATOM     36  O   UNL     1      12.917   1.969 -14.822  0.00  0.00    +0.000 OA
ATOM     37  H   UNL     1      13.129   1.400 -14.067  0.00  0.00    +0.000 HD
ENDBRANCH  33  36
BRANCH  34  38
ATOM     38  O   UNL     1      11.331  -2.110 -16.662  0.00  0.00    +0.000 OA
ATOM     39  H   UNL     1      12.122  -2.387 -16.167  0.00  0.00    +0.000 HD
ENDBRANCH  34  38
BRANCH  35  40
ATOM     40  O   UNL     1      12.997  -0.789 -15.009  0.00  0.00    +0.000 OA
ATOM     41  H   UNL     1      13.059  -1.654 -15.456  0.00  0.00    +0.000 HD
ENDBRANCH  35  40
ENDBRANCH  29  30
ENDBRANCH  27  29
ENDBRANCH   2  27
TORSDOF 12
ENDMDL
MODEL 7
REMARK VINA RESULT:      -6.4     23.329     26.224
REMARK  Name = 
REMARK  12 active torsions:
REMARK  status: ('A' for Active; 'I' for Inactive)
REMARK    1  A    between atoms: O_2  and  C_12
REMARK    2  A    between atoms: O_2  and  C_24
REMARK    3  A    between atoms: O_3  and  C_18
REMARK    4  A    between atoms: O_4  and  C_23
REMARK    5  A    between atoms: O_5  and  C_25
REMARK    6  A    between atoms: O_6  and  C_26
REMARK    7  A    between atoms: O_8  and  C_27
REMARK    8  A    between atoms: O_9  and  C_31
REMARK    9  A    between atoms: O_10  and  C_32
REMARK   10  A    between atoms: O_11  and  C_33
REMARK   11  A    between atoms: C_13  and  C_16
REMARK   12  A    between atoms: C_24  and  C_28
REMARK                            x       y       z     vdW  Elec       q    Type
REMARK                         _______ _______ _______ _____ _____    ______ ____
ROOT
ATOM      1  O   UNL     1     -13.392   7.505  -9.637  0.00  0.00    +0.000 OA
ATOM      2  C   UNL     1     -13.015   5.083  -9.955  0.00  0.00    +0.000 C 
ATOM      3  C   UNL     1     -13.138   6.472 -10.605  0.00  0.00    +0.000 C 
ATOM      4  C   UNL     1     -11.819   5.101  -9.003  0.00  0.00    +0.000 C 
ATOM      5  C   UNL     1     -11.787   6.369  -8.186  0.00  0.00    +0.000 A 
ATOM      6  C   UNL     1     -12.559   7.480  -8.550  0.00  0.00    +0.000 A 
ATOM      7  C   UNL     1     -10.963   6.469  -7.058  0.00  0.00    +0.000 A 
ATOM      8  C   UNL     1     -12.543   8.644  -7.778  0.00  0.00    +0.000 A 
ATOM      9  C   UNL     1     -10.931   7.630  -6.288  0.00  0.00    +0.000 A 
ATOM     10  C   UNL     1     -11.727   8.708  -6.654  0.00  0.00    +0.000 A 
ENDROOT
BRANCH   3  11
ATOM     11  C   UNL     1     -14.238   6.503 -11.659  0.00  0.00    +0.000 A 
ATOM     12  C   UNL     1     -14.219   5.573 -12.716  0.00  0.00    +0.000 A 
ATOM     13  C   UNL     1     -15.298   7.425 -11.578  0.00  0.00    +0.000 A 
ATOM     14  C   UNL     1     -16.305   7.409 -12.538  0.00  0.00    +0.000 A 
ATOM     15  C   UNL     1     -15.235   5.571 -13.674  0.00  0.00    +0.000 A 
ATOM     16  C   UNL     1     -16.276   6.489 -13.583  0.00  0.00    +0.000 A 
BRANCH  14  17
ATOM     17  O   UNL     1     -17.356   8.286 -12.491  0.00  0.00    +0.000 OA
ATOM     18  H   UNL     1     -17.629   8.387 -11.563  0.00  0.00    +0.000 HD
ENDBRANCH  14  17
BRANCH  15  19
ATOM     19  O   UNL     1     -15.219   4.673 -14.702  0.00  0.00    +0.000 OA
ATOM     20  H   UNL     1     -15.746   3.896 -14.464  0.00  0.00    +0.000 HD
ENDBRANCH  15  19
BRANCH  16  21
ATOM     21  O   UNL     1     -17.283   6.503 -14.509  0.00  0.00    +0.000 OA
ATOM     22  H   UNL     1     -17.393   7.445 -14.741  0.00  0.00    +0.000 HD
ENDBRANCH  16  21
ENDBRANCH   3  11
BRANCH   7  23
ATOM     23  O   UNL     1     -10.185   5.398  -6.720  0.00  0.00    +0.000 OA
ATOM     24  H   UNL     1     -10.763   4.661  -6.459  0.00  0.00    +0.000 HD
ENDBRANCH   7  23
BRANCH  10  25
ATOM     25  O   UNL     1     -11.674   9.827  -5.877  0.00  0.00    +0.000 OA
ATOM     26  H   UNL     1     -12.230  10.515  -6.280  0.00  0.00    +0.000 HD
ENDBRANCH  10  25
BRANCH   2  27
ATOM     27  O   UNL     1     -14.215   4.792  -9.196  0.00  0.00    +0.000 OA
BRANCH  27  29
ATOM     28  O   UNL     1     -14.341   2.510  -8.984  0.00  0.00    +0.000 OA
ATOM     29  C   UNL     1     -14.771   3.576  -9.392  0.00  0.00    +0.000 C 
BRANCH  29  30
ATOM     30  C   UNL     1     -15.991   3.710 -10.229  0.00  0.00    +0.000 A 
ATOM     31  C   UNL     1     -16.130   2.852 -11.331  0.00  0.00    +0.000 A 
ATOM     32  C   UNL     1     -16.989   4.654  -9.935  0.00  0.00    +0.000 A 
ATOM     33  C   UNL     1     -18.114   4.747 -10.752  0.00  0.00    +0.000 A 
ATOM     34  C   UNL     1     -17.257   2.960 -12.136  0.00  0.00    +0.000 A 
ATOM     35  C   UNL     1     -18.244   3.905 -11.853  0.00  0.00    +0.000 A 
BRANCH  33  36
ATOM     36  O   UNL     1     -19.093   5.660 -10.482  0.00  0.00    +0.000 OA
ATOM     37  H   UNL     1     -18.708   6.428 -10.035  0.00  0.00    +0.000 HD
ENDBRANCH  33  36
BRANCH  34  38
ATOM     38  O   UNL     1     -17.442   2.154 -13.226  0.00  0.00    +0.000 OA
ATOM     39  H   UNL     1     -18.389   1.938 -13.296  0.00  0.00    +0.000 HD
ENDBRANCH  34  38
BRANCH  35  40
ATOM     40  O   UNL     1     -19.340   3.983 -12.667  0.00  0.00    +0.000 OA
ATOM     41  H   UNL     1     -19.057   3.584 -13.512  0.00  0.00    +0.000 HD
ENDBRANCH  35  40
ENDBRANCH  29  30
ENDBRANCH  27  29
ENDBRANCH   2  27
TORSDOF 12
ENDMDL
MODEL 8
REMARK VINA RESULT:      -6.2      3.390      6.587
REMARK  Name = 
REMARK  12 active torsions:
REMARK  status: ('A' for Active; 'I' for Inactive)
REMARK    1  A    between atoms: O_2  and  C_12
REMARK    2  A    between atoms: O_2  and  C_24
REMARK    3  A    between atoms: O_3  and  C_18
REMARK    4  A    between atoms: O_4  and  C_23
REMARK    5  A    between atoms: O_5  and  C_25
REMARK    6  A    between atoms: O_6  and  C_26
REMARK    7  A    between atoms: O_8  and  C_27
REMARK    8  A    between atoms: O_9  and  C_31
REMARK    9  A    between atoms: O_10  and  C_32
REMARK   10  A    between atoms: O_11  and  C_33
REMARK   11  A    between atoms: C_13  and  C_16
REMARK   12  A    between atoms: C_24  and  C_28
REMARK                            x       y       z     vdW  Elec       q    Type
REMARK                         _______ _______ _______ _____ _____    ______ ____
ROOT
ATOM      1  O   UNL     1      13.066  -2.820 -20.756  0.00  0.00    +0.000 OA
ATOM      2  C   UNL     1      10.596  -2.767 -20.756  0.00  0.00    +0.000 C 
ATOM      3  C   UNL     1      11.903  -2.280 -21.406  0.00  0.00    +0.000 C 
ATOM      4  C   UNL     1      10.521  -4.286 -20.904  0.00  0.00    +0.000 C 
ATOM      5  C   UNL     1      11.849  -4.933 -20.604  0.00  0.00    +0.000 A 
ATOM      6  C   UNL     1      13.025  -4.175 -20.554  0.00  0.00    +0.000 A 
ATOM      7  C   UNL     1      11.936  -6.314 -20.391  0.00  0.00    +0.000 A 
ATOM      8  C   UNL     1      14.250  -4.775 -20.253  0.00  0.00    +0.000 A 
ATOM      9  C   UNL     1      13.154  -6.925 -20.102  0.00  0.00    +0.000 A 
ATOM     10  C   UNL     1      14.303  -6.147 -20.031  0.00  0.00    +0.000 A 
ENDROOT
BRANCH   3  11
ATOM     11  C   UNL     1      11.999  -0.760 -21.404  0.00  0.00    +0.000 A 
ATOM     12  C   UNL     1      13.204  -0.135 -21.029  0.00  0.00    +0.000 A 
ATOM     13  C   UNL     1      10.911   0.039 -21.805  0.00  0.00    +0.000 A 
ATOM     14  C   UNL     1      11.037   1.424 -21.822  0.00  0.00    +0.000 A 
ATOM     15  C   UNL     1      13.315   1.257 -21.049  0.00  0.00    +0.000 A 
ATOM     16  C   UNL     1      12.232   2.034 -21.445  0.00  0.00    +0.000 A 
BRANCH  14  17
ATOM     17  O   UNL     1      10.004   2.235 -22.211  0.00  0.00    +0.000 OA
ATOM     18  H   UNL     1       9.212   1.684 -22.331  0.00  0.00    +0.000 HD
ENDBRANCH  14  17
BRANCH  15  19
ATOM     19  O   UNL     1      14.481   1.865 -20.684  0.00  0.00    +0.000 OA
ATOM     20  H   UNL     1      15.155   1.194 -20.499  0.00  0.00    +0.000 HD
ENDBRANCH  15  19
BRANCH  16  21
ATOM     21  O   UNL     1      12.320   3.398 -21.475  0.00  0.00    +0.000 OA
ATOM     22  H   UNL     1      12.168   3.676 -20.551  0.00  0.00    +0.000 HD
ENDBRANCH  16  21
ENDBRANCH   3  11
BRANCH   7  23
ATOM     23  O   UNL     1      10.795  -7.062 -20.470  0.00  0.00    +0.000 OA
ATOM     24  H   UNL     1      10.065  -6.490 -20.761  0.00  0.00    +0.000 HD
ENDBRANCH   7  23
BRANCH  10  25
ATOM     25  O   UNL     1      15.478  -6.775 -19.743  0.00  0.00    +0.000 OA
ATOM     26  H   UNL     1      16.195  -6.119 -19.753  0.00  0.00    +0.000 HD
ENDBRANCH  10  25
BRANCH   2  27
ATOM     27  O   UNL     1      10.599  -2.432 -19.345  0.00  0.00    +0.000 OA
BRANCH  27  29
ATOM     28  O   UNL     1       8.577  -1.344 -19.351  0.00  0.00    +0.000 OA
ATOM     29  C   UNL     1       9.721  -1.484 -18.950  0.00  0.00    +0.000 C 
BRANCH  29  30
ATOM     30  C   UNL     1      10.365  -0.584 -17.960  0.00  0.00    +0.000 A 
ATOM     31  C   UNL     1      11.204  -1.162 -16.993  0.00  0.00    +0.000 A 
ATOM     32  C   UNL     1      10.161   0.806 -17.981  0.00  0.00    +0.000 A 
ATOM     33  C   UNL     1      10.784   1.610 -17.028  0.00  0.00    +0.000 A 
ATOM     34  C   UNL     1      11.813  -0.345 -16.049  0.00  0.00    +0.000 A 
ATOM     35  C   UNL     1      11.603   1.034 -16.061  0.00  0.00    +0.000 A 
BRANCH  33  36
ATOM     36  O   UNL     1      10.595   2.963 -17.032  0.00  0.00    +0.000 OA
ATOM     37  H   UNL     1      11.392   3.402 -17.363  0.00  0.00    +0.000 HD
ENDBRANCH  33  36
BRANCH  34  38
ATOM     38  O   UNL     1      12.635  -0.855 -15.081  0.00  0.00    +0.000 OA
ATOM     39  H   UNL     1      12.225  -0.700 -14.211  0.00  0.00    +0.000 HD
ENDBRANCH  34  38
BRANCH  35  40
ATOM     40  O   UNL     1      12.219   1.807 -15.116  0.00  0.00    +0.000 OA
ATOM     41  H   UNL     1      12.119   2.725 -15.435  0.00  0.00    +0.000 HD
ENDBRANCH  35  40
ENDBRANCH  29  30
ENDBRANCH  27  29
ENDBRANCH   2  27
TORSDOF 12
ENDMDL
MODEL 9
REMARK VINA RESULT:      -6.2     11.816     17.222
REMARK  Name = 
REMARK  12 active torsions:
REMARK  status: ('A' for Active; 'I' for Inactive)
REMARK    1  A    between atoms: O_2  and  C_12
REMARK    2  A    between atoms: O_2  and  C_24
REMARK    3  A    between atoms: O_3  and  C_18
REMARK    4  A    between atoms: O_4  and  C_23
REMARK    5  A    between atoms: O_5  and  C_25
REMARK    6  A    between atoms: O_6  and  C_26
REMARK    7  A    between atoms: O_8  and  C_27
REMARK    8  A    between atoms: O_9  and  C_31
REMARK    9  A    between atoms: O_10  and  C_32
REMARK   10  A    between atoms: O_11  and  C_33
REMARK   11  A    between atoms: C_13  and  C_16
REMARK   12  A    between atoms: C_24  and  C_28
REMARK                            x       y       z     vdW  Elec       q    Type
REMARK                         _______ _______ _______ _____ _____    ______ ____
ROOT
ATOM      1  O   UNL     1      -6.747  -1.261 -19.374  0.00  0.00    +0.000 OA
ATOM      2  C   UNL     1      -6.614  -0.675 -21.771  0.00  0.00    +0.000 C 
ATOM      3  C   UNL     1      -5.870  -1.144 -20.508  0.00  0.00    +0.000 C 
ATOM      4  C   UNL     1      -7.664  -1.725 -22.130  0.00  0.00    +0.000 C 
ATOM      5  C   UNL     1      -8.401  -2.205 -20.905  0.00  0.00    +0.000 A 
ATOM      6  C   UNL     1      -7.903  -1.954 -19.620  0.00  0.00    +0.000 A 
ATOM      7  C   UNL     1      -9.589  -2.936 -21.029  0.00  0.00    +0.000 A 
ATOM      8  C   UNL     1      -8.600  -2.381 -18.488  0.00  0.00    +0.000 A 
ATOM      9  C   UNL     1     -10.286  -3.377 -19.906  0.00  0.00    +0.000 A 
ATOM     10  C   UNL     1      -9.786  -3.091 -18.642  0.00  0.00    +0.000 A 
ENDROOT
BRANCH   3  11
ATOM     11  C   UNL     1      -4.724  -0.208 -20.151  0.00  0.00    +0.000 A 
ATOM     12  C   UNL     1      -4.449   0.078 -18.799  0.00  0.00    +0.000 A 
ATOM     13  C   UNL     1      -3.905   0.355 -21.148  0.00  0.00    +0.000 A 
ATOM     14  C   UNL     1      -2.846   1.183 -20.790  0.00  0.00    +0.000 A 
ATOM     15  C   UNL     1      -3.384   0.913 -18.455  0.00  0.00    +0.000 A 
ATOM     16  C   UNL     1      -2.585   1.464 -19.451  0.00  0.00    +0.000 A 
BRANCH  14  17
ATOM     17  O   UNL     1      -2.024   1.745 -21.730  0.00  0.00    +0.000 OA
ATOM     18  H   UNL     1      -2.082   1.215 -22.544  0.00  0.00    +0.000 HD
ENDBRANCH  14  17
BRANCH  15  19
ATOM     19  O   UNL     1      -3.117   1.194 -17.146  0.00  0.00    +0.000 OA
ATOM     20  H   UNL     1      -2.354   0.676 -16.851  0.00  0.00    +0.000 HD
ENDBRANCH  15  19
BRANCH  16  21
ATOM     21  O   UNL     1      -1.535   2.282 -19.136  0.00  0.00    +0.000 OA
ATOM     22  H   UNL     1      -1.724   3.118 -19.603  0.00  0.00    +0.000 HD
ENDBRANCH  16  21
ENDBRANCH   3  11
BRANCH   7  23
ATOM     23  O   UNL     1     -10.061  -3.210 -22.281  0.00  0.00    +0.000 OA
ATOM     24  H   UNL     1     -10.465  -2.406 -22.647  0.00  0.00    +0.000 HD
ENDBRANCH   7  23
BRANCH  10  25
ATOM     25  O   UNL     1     -10.494  -3.534 -17.565  0.00  0.00    +0.000 OA
ATOM     26  H   UNL     1     -11.254  -2.944 -17.424  0.00  0.00    +0.000 HD
ENDBRANCH  10  25
BRANCH   2  27
ATOM     27  O   UNL     1      -7.279   0.585 -21.505  0.00  0.00    +0.000 OA
BRANCH  27  29
ATOM     28  O   UNL     1      -6.898   1.419 -23.609  0.00  0.00    +0.000 OA
ATOM     29  C   UNL     1      -7.545   1.364 -22.576  0.00  0.00    +0.000 C 
BRANCH  29  30
ATOM     30  C   UNL     1      -8.744   2.197 -22.307  0.00  0.00    +0.000 A 
ATOM     31  C   UNL     1      -8.726   3.534 -22.734  0.00  0.00    +0.000 A 
ATOM     32  C   UNL     1      -9.875   1.677 -21.653  0.00  0.00    +0.000 A 
ATOM     33  C   UNL     1     -10.975   2.500 -21.418  0.00  0.00    +0.000 A 
ATOM     34  C   UNL     1      -9.831   4.340 -22.487  0.00  0.00    +0.000 A 
ATOM     35  C   UNL     1     -10.949   3.829 -21.829  0.00  0.00    +0.000 A 
BRANCH  33  36
ATOM     36  O   UNL     1     -12.081   2.011 -20.782  0.00  0.00    +0.000 OA
ATOM     37  H   UNL     1     -12.859   2.530 -21.037  0.00  0.00    +0.000 HD
ENDBRANCH  33  36
BRANCH  34  38
ATOM     38  O   UNL     1      -9.865   5.651 -22.876  0.00  0.00    +0.000 OA
ATOM     39  H   UNL     1      -9.010   5.878 -23.284  0.00  0.00    +0.000 HD
ENDBRANCH  34  38
BRANCH  35  40
ATOM     40  O   UNL     1     -12.019   4.651 -21.603  0.00  0.00    +0.000 OA
ATOM     41  H   UNL     1     -11.665   5.557 -21.692  0.00  0.00    +0.000 HD
ENDBRANCH  35  40
ENDBRANCH  29  30
ENDBRANCH  27  29
ENDBRANCH   2  27
TORSDOF 12
ENDMDL
