MODEL 1
REMARK VINA RESULT:      -6.3      0.000      0.000
REMARK  Name = Estradiol.pdbqt.pdb
REMARK  2 active torsions:
REMARK  status: ('A' for Active; 'I' for Inactive)
REMARK    1  A    between atoms: C_5  and  O_19
REMARK    2  A    between atoms: C_18  and  O_21
REMARK                            x       y       z     vdW  Elec       q    Type
REMARK                         _______ _______ _______ _____ _____    ______ ____
ROOT
ATOM      1  C   UNL     1       0.887   2.080   1.627  0.00  0.00    +0.000 C 
ATOM      2  C   UNL     1      -0.180   1.603   0.526  0.00  0.00    +0.000 C 
ATOM      3  C   UNL     1      -1.435   0.937   0.909  0.00  0.00    +0.000 A 
ATOM      4  C   UNL     1      -2.004   0.833   2.307  0.00  0.00    +0.000 A 
ATOM      5  C   UNL     1       1.281   3.487   1.131  0.00  0.00    +0.000 C 
ATOM      6  C   UNL     1       0.175   2.079   2.906  0.00  0.00    +0.000 C 
ATOM      7  C   UNL     1      -0.182   2.594  -0.509  0.00  0.00    +0.000 C 
ATOM      8  C   UNL     1      -1.165   1.475   3.252  0.00  0.00    +0.000 C 
ATOM      9  C   UNL     1       0.688   3.766  -0.129  0.00  0.00    +0.000 C 
ATOM     10  C   UNL     1      -2.295   0.339  -0.047  0.00  0.00    +0.000 A 
ATOM     11  C   UNL     1       2.107   1.124   1.586  0.00  0.00    +0.000 C 
ATOM     12  C   UNL     1      -3.294   0.142   2.647  0.00  0.00    +0.000 A 
ATOM     13  C   UNL     1      -3.597  -0.343   0.296  0.00  0.00    +0.000 A 
ATOM     14  C   UNL     1      -4.097  -0.453   1.626  0.00  0.00    +0.000 A 
ATOM     15  C   UNL     1      -3.735   0.060   3.967  0.00  0.00    +0.000 A 
ATOM     16  C   UNL     1      -5.287  -1.104   1.920  0.00  0.00    +0.000 A 
ATOM     17  C   UNL     1      -4.931  -0.592   4.269  0.00  0.00    +0.000 A 
ATOM     18  C   UNL     1      -5.691  -1.166   3.249  0.00  0.00    +0.000 A 
ENDROOT
BRANCH   5  19
ATOM     19  O   UNL     1       1.722   4.482   1.976  0.00  0.00    +0.000 OA
ATOM     20  H   UNL     1       2.566   4.246   2.402  0.00  0.00    +0.000 HD
ENDBRANCH   5  19
BRANCH  18  21
ATOM     21  O   UNL     1      -6.860  -1.811   3.537  0.00  0.00    +0.000 OA
ATOM     22  H   UNL     1      -7.103  -2.362   2.772  0.00  0.00    +0.000 HD
ENDBRANCH  18  21
TORSDOF 2
ENDMDL
MODEL 2
REMARK VINA RESULT:      -6.2     20.896     22.787
REMARK  Name = Estradiol.pdbqt.pdb
REMARK  2 active torsions:
REMARK  status: ('A' for Active; 'I' for Inactive)
REMARK    1  A    between atoms: C_5  and  O_19
REMARK    2  A    between atoms: C_18  and  O_21
REMARK                            x       y       z     vdW  Elec       q    Type
REMARK                         _______ _______ _______ _____ _____    ______ ____
ROOT
ATOM      1  C   UNL     1       9.571   1.465 -20.091  0.00  0.00    +0.000 C 
ATOM      2  C   UNL     1       8.376   2.153 -19.267  0.00  0.00    +0.000 C 
ATOM      3  C   UNL     1       7.124   1.434 -18.986  0.00  0.00    +0.000 A 
ATOM      4  C   UNL     1       6.874  -0.045 -19.185  0.00  0.00    +0.000 A 
ATOM      5  C   UNL     1      10.819   1.865 -19.277  0.00  0.00    +0.000 C 
ATOM      6  C   UNL     1       9.292   0.029 -20.085  0.00  0.00    +0.000 C 
ATOM      7  C   UNL     1       8.983   2.961 -18.252  0.00  0.00    +0.000 C 
ATOM      8  C   UNL     1       8.027  -0.696 -19.692  0.00  0.00    +0.000 C 
ATOM      9  C   UNL     1      10.477   2.765 -18.232  0.00  0.00    +0.000 C 
ATOM     10  C   UNL     1       5.989   2.082 -18.432  0.00  0.00    +0.000 A 
ATOM     11  C   UNL     1       9.621   2.089 -21.510  0.00  0.00    +0.000 C 
ATOM     12  C   UNL     1       5.574  -0.732 -18.880  0.00  0.00    +0.000 A 
ATOM     13  C   UNL     1       4.689   1.385 -18.115  0.00  0.00    +0.000 A 
ATOM     14  C   UNL     1       4.471  -0.005 -18.339  0.00  0.00    +0.000 A 
ATOM     15  C   UNL     1       5.413  -2.096 -19.122  0.00  0.00    +0.000 A 
ATOM     16  C   UNL     1       3.258  -0.620 -18.058  0.00  0.00    +0.000 A 
ATOM     17  C   UNL     1       4.197  -2.720 -18.843  0.00  0.00    +0.000 A 
ATOM     18  C   UNL     1       3.136  -1.980 -18.317  0.00  0.00    +0.000 A 
ENDROOT
BRANCH   5  19
ATOM     19  O   UNL     1      11.971   1.109 -19.254  0.00  0.00    +0.000 OA
ATOM     20  H   UNL     1      11.983   0.494 -18.498  0.00  0.00    +0.000 HD
ENDBRANCH   5  19
BRANCH  18  21
ATOM     21  O   UNL     1       1.941  -2.583 -18.045  0.00  0.00    +0.000 OA
ATOM     22  H   UNL     1       1.773  -2.515 -17.088  0.00  0.00    +0.000 HD
ENDBRANCH  18  21
TORSDOF 2
ENDMDL
MODEL 3
REMARK VINA RESULT:      -5.9     23.137     25.926
REMARK  Name = Estradiol.pdbqt.pdb
REMARK  2 active torsions:
REMARK  status: ('A' for Active; 'I' for Inactive)
REMARK    1  A    between atoms: C_5  and  O_19
REMARK    2  A    between atoms: C_18  and  O_21
REMARK                            x       y       z     vdW  Elec       q    Type
REMARK                         _______ _______ _______ _____ _____    ______ ____
ROOT
ATOM      1  C   UNL     1      12.641   0.863 -22.681  0.00  0.00    +0.000 C 
ATOM      2  C   UNL     1      12.378  -0.357 -21.671  0.00  0.00    +0.000 C 
ATOM      3  C   UNL     1      12.065  -0.127 -20.253  0.00  0.00    +0.000 A 
ATOM      4  C   UNL     1      11.708   1.199 -19.617  0.00  0.00    +0.000 A 
ATOM      5  C   UNL     1      11.842   0.445 -23.934  0.00  0.00    +0.000 C 
ATOM      6  C   UNL     1      12.120   2.058 -22.015  0.00  0.00    +0.000 C 
ATOM      7  C   UNL     1      11.672  -1.363 -22.408  0.00  0.00    +0.000 C 
ATOM      8  C   UNL     1      11.705   2.243 -20.575  0.00  0.00    +0.000 C 
ATOM      9  C   UNL     1      11.313  -0.865 -23.785  0.00  0.00    +0.000 C 
ATOM     10  C   UNL     1      12.020  -1.184 -19.307  0.00  0.00    +0.000 A 
ATOM     11  C   UNL     1      14.158   0.931 -22.998  0.00  0.00    +0.000 C 
ATOM     12  C   UNL     1      11.392   1.381 -18.160  0.00  0.00    +0.000 A 
ATOM     13  C   UNL     1      11.690  -1.000 -17.847  0.00  0.00    +0.000 A 
ATOM     14  C   UNL     1      11.385   0.266 -17.267  0.00  0.00    +0.000 A 
ATOM     15  C   UNL     1      11.104   2.644 -17.643  0.00  0.00    +0.000 A 
ATOM     16  C   UNL     1      11.106   0.415 -15.915  0.00  0.00    +0.000 A 
ATOM     17  C   UNL     1      10.822   2.800 -16.286  0.00  0.00    +0.000 A 
ATOM     18  C   UNL     1      10.826   1.690 -15.439  0.00  0.00    +0.000 A 
ENDROOT
BRANCH   5  19
ATOM     19  O   UNL     1      11.319   1.356 -24.826  0.00  0.00    +0.000 OA
ATOM     20  H   UNL     1      10.523   1.011 -25.269  0.00  0.00    +0.000 HD
ENDBRANCH   5  19
BRANCH  18  21
ATOM     21  O   UNL     1      10.556   1.836 -14.108  0.00  0.00    +0.000 OA
ATOM     22  H   UNL     1      10.794   2.742 -13.844  0.00  0.00    +0.000 HD
ENDBRANCH  18  21
TORSDOF 2
ENDMDL
MODEL 4
REMARK VINA RESULT:      -5.8     22.467     23.721
REMARK  Name = Estradiol.pdbqt.pdb
REMARK  2 active torsions:
REMARK  status: ('A' for Active; 'I' for Inactive)
REMARK    1  A    between atoms: C_5  and  O_19
REMARK    2  A    between atoms: C_18  and  O_21
REMARK                            x       y       z     vdW  Elec       q    Type
REMARK                         _______ _______ _______ _____ _____    ______ ____
ROOT
ATOM      1  C   UNL     1       3.049 -15.709 -14.701  0.00  0.00    +0.000 C 
ATOM      2  C   UNL     1       4.469 -15.545 -13.968  0.00  0.00    +0.000 C 
ATOM      3  C   UNL     1       4.679 -16.009 -12.588  0.00  0.00    +0.000 A 
ATOM      4  C   UNL     1       3.744 -16.885 -11.783  0.00  0.00    +0.000 A 
ATOM      5  C   UNL     1       3.448 -16.208 -16.105  0.00  0.00    +0.000 C 
ATOM      6  C   UNL     1       2.299 -16.688 -13.913  0.00  0.00    +0.000 C 
ATOM      7  C   UNL     1       5.478 -15.765 -14.960  0.00  0.00    +0.000 C 
ATOM      8  C   UNL     1       2.591 -17.229 -12.534  0.00  0.00    +0.000 C 
ATOM      9  C   UNL     1       4.860 -16.203 -16.264  0.00  0.00    +0.000 C 
ATOM     10  C   UNL     1       5.857 -15.702 -11.859  0.00  0.00    +0.000 A 
ATOM     11  C   UNL     1       2.369 -14.318 -14.788  0.00  0.00    +0.000 C 
ATOM     12  C   UNL     1       4.006 -17.335 -10.375  0.00  0.00    +0.000 A 
ATOM     13  C   UNL     1       6.124 -16.167 -10.449  0.00  0.00    +0.000 A 
ATOM     14  C   UNL     1       5.212 -16.969  -9.702  0.00  0.00    +0.000 A 
ATOM     15  C   UNL     1       3.077 -18.116  -9.689  0.00  0.00    +0.000 A 
ATOM     16  C   UNL     1       5.470 -17.366  -8.398  0.00  0.00    +0.000 A 
ATOM     17  C   UNL     1       3.330 -18.519  -8.377  0.00  0.00    +0.000 A 
ATOM     18  C   UNL     1       4.517 -18.142  -7.747  0.00  0.00    +0.000 A 
ENDROOT
BRANCH   5  19
ATOM     19  O   UNL     1       2.620 -16.985 -16.887  0.00  0.00    +0.000 OA
ATOM     20  H   UNL     1       1.768 -17.157 -16.447  0.00  0.00    +0.000 HD
ENDBRANCH   5  19
BRANCH  18  21
ATOM     21  O   UNL     1       4.770 -18.528  -6.462  0.00  0.00    +0.000 OA
ATOM     22  H   UNL     1       4.784 -19.501  -6.431  0.00  0.00    +0.000 HD
ENDBRANCH  18  21
TORSDOF 2
ENDMDL
MODEL 5
REMARK VINA RESULT:      -5.7     22.233     24.091
REMARK  Name = Estradiol.pdbqt.pdb
REMARK  2 active torsions:
REMARK  status: ('A' for Active; 'I' for Inactive)
REMARK    1  A    between atoms: C_5  and  O_19
REMARK    2  A    between atoms: C_18  and  O_21
REMARK                            x       y       z     vdW  Elec       q    Type
REMARK                         _______ _______ _______ _____ _____    ______ ____
ROOT
ATOM      1  C   UNL     1       0.690  17.817 -17.007  0.00  0.00    +0.000 C 
ATOM      2  C   UNL     1      -0.203  16.580 -17.508  0.00  0.00    +0.000 C 
ATOM      3  C   UNL     1      -1.460  16.216 -16.836  0.00  0.00    +0.000 A 
ATOM      4  C   UNL     1      -2.196  17.042 -15.803  0.00  0.00    +0.000 A 
ATOM      5  C   UNL     1       1.071  18.517 -18.328  0.00  0.00    +0.000 C 
ATOM      6  C   UNL     1      -0.178  18.615 -16.140  0.00  0.00    +0.000 C 
ATOM      7  C   UNL     1      -0.123  16.561 -18.938  0.00  0.00    +0.000 C 
ATOM      8  C   UNL     1      -1.518  18.259 -15.542  0.00  0.00    +0.000 C 
ATOM      9  C   UNL     1       0.629  17.764 -19.448  0.00  0.00    +0.000 C 
ATOM     10  C   UNL     1      -2.160  15.019 -17.137  0.00  0.00    +0.000 A 
ATOM     11  C   UNL     1       1.953  17.265 -16.297  0.00  0.00    +0.000 C 
ATOM     12  C   UNL     1      -3.481  16.627 -15.147  0.00  0.00    +0.000 A 
ATOM     13  C   UNL     1      -3.457  14.611 -16.485  0.00  0.00    +0.000 A 
ATOM     14  C   UNL     1      -4.116  15.395 -15.493  0.00  0.00    +0.000 A 
ATOM     15  C   UNL     1      -4.082  17.431 -14.178  0.00  0.00    +0.000 A 
ATOM     16  C   UNL     1      -5.299  14.989 -14.891  0.00  0.00    +0.000 A 
ATOM     17  C   UNL     1      -5.271  17.028 -13.569  0.00  0.00    +0.000 A 
ATOM     18  C   UNL     1      -5.864  15.817 -13.929  0.00  0.00    +0.000 A 
ENDROOT
BRANCH   5  19
ATOM     19  O   UNL     1       1.349  19.865 -18.407  0.00  0.00    +0.000 OA
ATOM     20  H   UNL     1       0.683  20.399 -17.937  0.00  0.00    +0.000 HD
ENDBRANCH   5  19
BRANCH  18  21
ATOM     21  O   UNL     1      -7.025  15.414 -13.334  0.00  0.00    +0.000 OA
ATOM     22  H   UNL     1      -7.740  15.456 -13.994  0.00  0.00    +0.000 HD
ENDBRANCH  18  21
TORSDOF 2
ENDMDL
MODEL 6
REMARK VINA RESULT:      -5.7     21.920     23.707
REMARK  Name = Estradiol.pdbqt.pdb
REMARK  2 active torsions:
REMARK  status: ('A' for Active; 'I' for Inactive)
REMARK    1  A    between atoms: C_5  and  O_19
REMARK    2  A    between atoms: C_18  and  O_21
REMARK                            x       y       z     vdW  Elec       q    Type
REMARK                         _______ _______ _______ _____ _____    ______ ____
ROOT
ATOM      1  C   UNL     1      -5.089  -1.466 -20.236  0.00  0.00    +0.000 C 
ATOM      2  C   UNL     1      -6.313  -1.694 -19.222  0.00  0.00    +0.000 C 
ATOM      3  C   UNL     1      -7.617  -2.189 -19.689  0.00  0.00    +0.000 A 
ATOM      4  C   UNL     1      -7.919  -2.769 -21.054  0.00  0.00    +0.000 A 
ATOM      5  C   UNL     1      -3.894  -2.065 -19.465  0.00  0.00    +0.000 C 
ATOM      6  C   UNL     1      -5.436  -2.196 -21.456  0.00  0.00    +0.000 C 
ATOM      7  C   UNL     1      -5.754  -2.190 -17.999  0.00  0.00    +0.000 C 
ATOM      8  C   UNL     1      -6.761  -2.788 -21.871  0.00  0.00    +0.000 C 
ATOM      9  C   UNL     1      -4.277  -2.449 -18.153  0.00  0.00    +0.000 C 
ATOM     10  C   UNL     1      -8.761  -2.214 -18.850  0.00  0.00    +0.000 A 
ATOM     11  C   UNL     1      -4.894   0.058 -20.448  0.00  0.00    +0.000 C 
ATOM     12  C   UNL     1      -9.270  -3.264 -21.483  0.00  0.00    +0.000 A 
ATOM     13  C   UNL     1     -10.114  -2.724 -19.280  0.00  0.00    +0.000 A 
ATOM     14  C   UNL     1     -10.379  -3.239 -20.583  0.00  0.00    +0.000 A 
ATOM     15  C   UNL     1      -9.476  -3.756 -22.772  0.00  0.00    +0.000 A 
ATOM     16  C   UNL     1     -11.638  -3.684 -20.962  0.00  0.00    +0.000 A 
ATOM     17  C   UNL     1     -10.739  -4.204 -23.160  0.00  0.00    +0.000 A 
ATOM     18  C   UNL     1     -11.803  -4.163 -22.256  0.00  0.00    +0.000 A 
ENDROOT
BRANCH   5  19
ATOM     19  O   UNL     1      -2.785  -2.589 -20.094  0.00  0.00    +0.000 OA
ATOM     20  H   UNL     1      -3.001  -2.932 -20.980  0.00  0.00    +0.000 HD
ENDBRANCH   5  19
BRANCH  18  21
ATOM     21  O   UNL     1     -13.043  -4.596 -22.630  0.00  0.00    +0.000 OA
ATOM     22  H   UNL     1     -13.190  -5.478 -22.244  0.00  0.00    +0.000 HD
ENDBRANCH  18  21
TORSDOF 2
ENDMDL
MODEL 7
REMARK VINA RESULT:      -5.6     21.835     23.324
REMARK  Name = Estradiol.pdbqt.pdb
REMARK  2 active torsions:
REMARK  status: ('A' for Active; 'I' for Inactive)
REMARK    1  A    between atoms: C_5  and  O_19
REMARK    2  A    between atoms: C_18  and  O_21
REMARK                            x       y       z     vdW  Elec       q    Type
REMARK                         _______ _______ _______ _____ _____    ______ ____
ROOT
ATOM      1  C   UNL     1      -3.763  15.488 -15.471  0.00  0.00    +0.000 C 
ATOM      2  C   UNL     1      -5.142  15.864 -14.738  0.00  0.00    +0.000 C 
ATOM      3  C   UNL     1      -5.194  16.874 -13.669  0.00  0.00    +0.000 A 
ATOM      4  C   UNL     1      -4.090  17.839 -13.293  0.00  0.00    +0.000 A 
ATOM      5  C   UNL     1      -4.173  15.433 -16.957  0.00  0.00    +0.000 C 
ATOM      6  C   UNL     1      -2.828  16.568 -15.151  0.00  0.00    +0.000 C 
ATOM      7  C   UNL     1      -6.168  15.822 -15.736  0.00  0.00    +0.000 C 
ATOM      8  C   UNL     1      -2.950  17.660 -14.116  0.00  0.00    +0.000 C 
ATOM      9  C   UNL     1      -5.577  15.590 -17.103  0.00  0.00    +0.000 C 
ATOM     10  C   UNL     1      -6.355  17.082 -12.882  0.00  0.00    +0.000 A 
ATOM     11  C   UNL     1      -3.302  14.091 -14.979  0.00  0.00    +0.000 C 
ATOM     12  C   UNL     1      -4.194  18.855 -12.193  0.00  0.00    +0.000 A 
ATOM     13  C   UNL     1      -6.460  18.113 -11.786  0.00  0.00    +0.000 A 
ATOM     14  C   UNL     1      -5.394  18.991 -11.432  0.00  0.00    +0.000 A 
ATOM     15  C   UNL     1      -3.118  19.688 -11.885  0.00  0.00    +0.000 A 
ATOM     16  C   UNL     1      -5.507  19.918 -10.405  0.00  0.00    +0.000 A 
ATOM     17  C   UNL     1      -3.225  20.622 -10.854  0.00  0.00    +0.000 A 
ATOM     18  C   UNL     1      -4.412  20.727 -10.127  0.00  0.00    +0.000 A 
ENDROOT
BRANCH   5  19
ATOM     19  O   UNL     1      -3.291  15.683 -17.986  0.00  0.00    +0.000 OA
ATOM     20  H   UNL     1      -3.721  16.151 -18.724  0.00  0.00    +0.000 HD
ENDBRANCH   5  19
BRANCH  18  21
ATOM     21  O   UNL     1      -4.522  21.636  -9.113  0.00  0.00    +0.000 OA
ATOM     22  H   UNL     1      -4.937  22.442  -9.468  0.00  0.00    +0.000 HD
ENDBRANCH  18  21
TORSDOF 2
ENDMDL
MODEL 8
REMARK VINA RESULT:      -5.6      4.393      7.185
REMARK  Name = Estradiol.pdbqt.pdb
REMARK  2 active torsions:
REMARK  status: ('A' for Active; 'I' for Inactive)
REMARK    1  A    between atoms: C_5  and  O_19
REMARK    2  A    between atoms: C_18  and  O_21
REMARK                            x       y       z     vdW  Elec       q    Type
REMARK                         _______ _______ _______ _____ _____    ______ ____
ROOT
ATOM      1  C   UNL     1       7.036   4.184   0.385  0.00  0.00    +0.000 C 
ATOM      2  C   UNL     1       6.678   3.158   1.568  0.00  0.00    +0.000 C 
ATOM      3  C   UNL     1       5.289   2.771   1.856  0.00  0.00    +0.000 A 
ATOM      4  C   UNL     1       4.082   3.050   0.986  0.00  0.00    +0.000 A 
ATOM      5  C   UNL     1       8.251   3.512  -0.290  0.00  0.00    +0.000 C 
ATOM      6  C   UNL     1       5.846   4.251  -0.464  0.00  0.00    +0.000 C 
ATOM      7  C   UNL     1       7.717   2.172   1.593  0.00  0.00    +0.000 C 
ATOM      8  C   UNL     1       4.448   3.753  -0.189  0.00  0.00    +0.000 C 
ATOM      9  C   UNL     1       8.666   2.365   0.437  0.00  0.00    +0.000 C 
ATOM     10  C   UNL     1       4.935   2.025   3.009  0.00  0.00    +0.000 A 
ATOM     11  C   UNL     1       7.441   5.544   1.010  0.00  0.00    +0.000 C 
ATOM     12  C   UNL     1       2.680   2.630   1.324  0.00  0.00    +0.000 A 
ATOM     13  C   UNL     1       3.528   1.593   3.339  0.00  0.00    +0.000 A 
ATOM     14  C   UNL     1       2.403   1.894   2.516  0.00  0.00    +0.000 A 
ATOM     15  C   UNL     1       1.614   2.953   0.485  0.00  0.00    +0.000 A 
ATOM     16  C   UNL     1       1.114   1.504   2.852  0.00  0.00    +0.000 A 
ATOM     17  C   UNL     1       0.316   2.565   0.816  0.00  0.00    +0.000 A 
ATOM     18  C   UNL     1       0.079   1.849   1.990  0.00  0.00    +0.000 A 
ENDROOT
BRANCH   5  19
ATOM     19  O   UNL     1       8.566   3.699  -1.619  0.00  0.00    +0.000 OA
ATOM     20  H   UNL     1       8.973   4.570  -1.774  0.00  0.00    +0.000 HD
ENDBRANCH   5  19
BRANCH  18  21
ATOM     21  O   UNL     1      -1.190   1.469   2.323  0.00  0.00    +0.000 OA
ATOM     22  H   UNL     1      -1.664   2.249   2.662  0.00  0.00    +0.000 HD
ENDBRANCH  18  21
TORSDOF 2
ENDMDL
MODEL 9
REMARK VINA RESULT:      -5.6     22.211     23.388
REMARK  Name = Estradiol.pdbqt.pdb
REMARK  2 active torsions:
REMARK  status: ('A' for Active; 'I' for Inactive)
REMARK    1  A    between atoms: C_5  and  O_19
REMARK    2  A    between atoms: C_18  and  O_21
REMARK                            x       y       z     vdW  Elec       q    Type
REMARK                         _______ _______ _______ _____ _____    ______ ____
ROOT
ATOM      1  C   UNL     1       3.915 -19.519  -8.422  0.00  0.00    +0.000 C 
ATOM      2  C   UNL     1       4.794 -18.231  -8.806  0.00  0.00    +0.000 C 
ATOM      3  C   UNL     1       4.467 -17.397  -9.973  0.00  0.00    +0.000 A 
ATOM      4  C   UNL     1       3.194 -17.457 -10.789  0.00  0.00    +0.000 A 
ATOM      5  C   UNL     1       3.765 -19.384  -6.893  0.00  0.00    +0.000 C 
ATOM      6  C   UNL     1       2.657 -19.383  -9.158  0.00  0.00    +0.000 C 
ATOM      7  C   UNL     1       5.193 -17.618  -7.575  0.00  0.00    +0.000 C 
ATOM      8  C   UNL     1       2.309 -18.444 -10.288  0.00  0.00    +0.000 C 
ATOM      9  C   UNL     1       4.540 -18.300  -6.400  0.00  0.00    +0.000 C 
ATOM     10  C   UNL     1       5.335 -16.376 -10.439  0.00  0.00    +0.000 A 
ATOM     11  C   UNL     1       4.719 -20.796  -8.782  0.00  0.00    +0.000 C 
ATOM     12  C   UNL     1       2.906 -16.579 -11.973  0.00  0.00    +0.000 A 
ATOM     13  C   UNL     1       5.036 -15.487 -11.621  0.00  0.00    +0.000 A 
ATOM     14  C   UNL     1       3.841 -15.584 -12.391  0.00  0.00    +0.000 A 
ATOM     15  C   UNL     1       1.720 -16.718 -12.695  0.00  0.00    +0.000 A 
ATOM     16  C   UNL     1       3.597 -14.768 -13.488  0.00  0.00    +0.000 A 
ATOM     17  C   UNL     1       1.470 -15.902 -13.798  0.00  0.00    +0.000 A 
ATOM     18  C   UNL     1       2.406 -14.940 -14.183  0.00  0.00    +0.000 A 
ENDROOT
BRANCH   5  19
ATOM     19  O   UNL     1       2.694 -19.902  -6.197  0.00  0.00    +0.000 OA
ATOM     20  H   UNL     1       2.458 -20.794  -6.511  0.00  0.00    +0.000 HD
ENDBRANCH   5  19
BRANCH  18  21
ATOM     21  O   UNL     1       2.170 -14.141 -15.265  0.00  0.00    +0.000 OA
ATOM     22  H   UNL     1       2.956 -14.160 -15.838  0.00  0.00    +0.000 HD
ENDBRANCH  18  21
TORSDOF 2
ENDMDL
