MODEL 1
REMARK VINA RESULT:      -7.6      0.000      0.000
REMARK  Name = 
REMARK  11 active torsions:
REMARK  status: ('A' for Active; 'I' for Inactive)
REMARK    1  A    between atoms: O_1  and  C_16
REMARK    2  A    between atoms: O_1  and  C_22
REMARK    3  A    between atoms: O_6  and  C_24
REMARK    4  A    between atoms: O_8  and  C_26
REMARK    5  A    between atoms: O_11  and  C_36
REMARK    6  A    between atoms: O_11  and  C_41
REMARK    7  A    between atoms: O_12  and  C_37
REMARK    8  A    between atoms: O_12  and  C_42
REMARK    9  A    between atoms: O_13  and  C_39
REMARK   10  A    between atoms: C_17  and  C_23
REMARK   11  A    between atoms: C_35  and  C_40
REMARK                            x       y       z     vdW  Elec       q    Type
REMARK                         _______ _______ _______ _____ _____    ______ ____
ROOT
ATOM      1  O   UNL     1       8.341   1.408 -24.099  0.00  0.00    +0.000 OA
ATOM      2  O   UNL     1      10.011   2.968 -24.279  0.00  0.00    +0.000 OA
ATOM      3  O   UNL     1       9.977   0.986 -15.859  0.00  0.00    +0.000 OA
ATOM      4  O   UNL     1      11.928   2.225 -16.548  0.00  0.00    +0.000 OA
ATOM      5  C   UNL     1       8.638   0.792 -21.885  0.00  0.00    +0.000 C 
ATOM      6  C   UNL     1       9.329   2.125 -22.103  0.00  0.00    +0.000 C 
ATOM      7  C   UNL     1       8.138   0.681 -20.451  0.00  0.00    +0.000 C 
ATOM      8  C   UNL     1      10.655   2.179 -21.347  0.00  0.00    +0.000 C 
ATOM      9  C   UNL     1       9.223   1.107 -19.463  0.00  0.00    +0.000 A 
ATOM     10  C   UNL     1      10.385   1.843 -19.870  0.00  0.00    +0.000 A 
ATOM     11  C   UNL     1       7.626   0.813 -23.003  0.00  0.00    +0.000 C 
ATOM     12  C   UNL     1       9.326   2.222 -23.599  0.00  0.00    +0.000 C 
ATOM     13  C   UNL     1       9.047   0.795 -18.101  0.00  0.00    +0.000 A 
ATOM     14  C   UNL     1      11.335   2.245 -18.910  0.00  0.00    +0.000 A 
ATOM     15  C   UNL     1      10.004   1.210 -17.200  0.00  0.00    +0.000 A 
ATOM     16  C   UNL     1      11.114   1.914 -17.592  0.00  0.00    +0.000 A 
ATOM     17  C   UNL     1      11.202   1.631 -15.452  0.00  0.00    +0.000 C 
ENDROOT
BRANCH   8  18
ATOM     18  C   UNL     1      11.781   1.341 -21.958  0.00  0.00    +0.000 A 
ATOM     19  C   UNL     1      12.891   1.911 -22.606  0.00  0.00    +0.000 A 
ATOM     20  C   UNL     1      11.721  -0.060 -21.863  0.00  0.00    +0.000 A 
ATOM     21  C   UNL     1      12.745  -0.857 -22.375  0.00  0.00    +0.000 A 
ATOM     22  C   UNL     1      13.923   1.130 -23.147  0.00  0.00    +0.000 A 
ATOM     23  C   UNL     1      13.838  -0.258 -23.024  0.00  0.00    +0.000 A 
BRANCH  21  24
ATOM     24  O   UNL     1      12.793  -2.230 -22.314  0.00  0.00    +0.000 OA
ATOM     25  C   UNL     1      12.773  -2.805 -21.010  0.00  0.00    +0.000 C 
ENDBRANCH  21  24
BRANCH  22  26
ATOM     26  O   UNL     1      14.908   1.879 -23.731  0.00  0.00    +0.000 OA
ATOM     27  C   UNL     1      15.015   1.853 -25.147  0.00  0.00    +0.000 C 
ENDBRANCH  22  26
BRANCH  23  28
ATOM     28  O   UNL     1      14.812  -1.092 -23.513  0.00  0.00    +0.000 OA
ATOM     29  H   UNL     1      15.341  -1.346 -22.732  0.00  0.00    +0.000 HD
ENDBRANCH  23  28
ENDBRANCH   8  18
BRANCH   7  30
ATOM     30  O   UNL     1       7.039   1.573 -20.260  0.00  0.00    +0.000 OA
BRANCH  30  34
ATOM     31  O   UNL     1       4.901   0.716 -20.660  0.00  0.00    +0.000 OA
ATOM     32  O   UNL     1       1.885   0.509 -18.565  0.00  0.00    +0.000 OA
ATOM     33  O   UNL     1       1.515  -0.712 -20.554  0.00  0.00    +0.000 OA
ATOM     34  C   UNL     1       5.900   0.940 -19.663  0.00  0.00    +0.000 C 
ATOM     35  C   UNL     1       5.403   1.878 -18.539  0.00  0.00    +0.000 C 
ATOM     36  C   UNL     1       3.080   1.089 -19.099  0.00  0.00    +0.000 C 
ATOM     37  C   UNL     1       4.062   1.397 -17.968  0.00  0.00    +0.000 C 
ATOM     38  C   UNL     1       3.733   0.131 -20.091  0.00  0.00    +0.000 C 
ATOM     39  C   UNL     1       2.698  -0.198 -21.162  0.00  0.00    +0.000 C 
ATOM     40  C   UNL     1       0.963   0.214 -19.619  0.00  0.00    +0.000 C 
ATOM     41  C   UNL     1      -0.268  -0.422 -18.998  0.00  0.00    +0.000 C 
BRANCH  35  42
ATOM     42  O   UNL     1       6.392   1.928 -17.496  0.00  0.00    +0.000 OA
ATOM     43  H   UNL     1       6.471   2.869 -17.245  0.00  0.00    +0.000 HD
ENDBRANCH  35  42
BRANCH  37  44
ATOM     44  O   UNL     1       3.486   2.412 -17.131  0.00  0.00    +0.000 OA
ATOM     45  H   UNL     1       3.453   2.032 -16.232  0.00  0.00    +0.000 HD
ENDBRANCH  37  44
ENDBRANCH  30  34
ENDBRANCH   7  30
TORSDOF 8
ENDMDL
MODEL 2
REMARK VINA RESULT:      -7.2      2.579      6.922
REMARK  Name = 
REMARK  11 active torsions:
REMARK  status: ('A' for Active; 'I' for Inactive)
REMARK    1  A    between atoms: O_1  and  C_16
REMARK    2  A    between atoms: O_1  and  C_22
REMARK    3  A    between atoms: O_6  and  C_24
REMARK    4  A    between atoms: O_8  and  C_26
REMARK    5  A    between atoms: O_11  and  C_36
REMARK    6  A    between atoms: O_11  and  C_41
REMARK    7  A    between atoms: O_12  and  C_37
REMARK    8  A    between atoms: O_12  and  C_42
REMARK    9  A    between atoms: O_13  and  C_39
REMARK   10  A    between atoms: C_17  and  C_23
REMARK   11  A    between atoms: C_35  and  C_40
REMARK                            x       y       z     vdW  Elec       q    Type
REMARK                         _______ _______ _______ _____ _____    ______ ____
ROOT
ATOM      1  O   UNL     1      12.235   2.000 -21.563  0.00  0.00    +0.000 OA
ATOM      2  O   UNL     1      12.294   3.327 -19.694  0.00  0.00    +0.000 OA
ATOM      3  O   UNL     1       4.120   0.505 -19.929  0.00  0.00    +0.000 OA
ATOM      4  O   UNL     1       4.724   1.530 -17.831  0.00  0.00    +0.000 OA
ATOM      5  C   UNL     1      10.103   1.123 -21.334  0.00  0.00    +0.000 C 
ATOM      6  C   UNL     1      10.200   2.364 -20.468  0.00  0.00    +0.000 C 
ATOM      7  C   UNL     1       8.676   0.933 -21.832  0.00  0.00    +0.000 C 
ATOM      8  C   UNL     1       9.473   2.157 -19.140  0.00  0.00    +0.000 C 
ATOM      9  C   UNL     1       7.675   1.102 -20.690  0.00  0.00    +0.000 A 
ATOM     10  C   UNL     1       8.032   1.710 -19.442  0.00  0.00    +0.000 A 
ATOM     11  C   UNL     1      11.189   1.399 -22.344  0.00  0.00    +0.000 C 
ATOM     12  C   UNL     1      11.677   2.616 -20.470  0.00  0.00    +0.000 C 
ATOM     13  C   UNL     1       6.349   0.677 -20.896  0.00  0.00    +0.000 A 
ATOM     14  C   UNL     1       7.058   1.876 -18.436  0.00  0.00    +0.000 A 
ATOM     15  C   UNL     1       5.432   0.861 -19.884  0.00  0.00    +0.000 A 
ATOM     16  C   UNL     1       5.775   1.444 -18.690  0.00  0.00    +0.000 A 
ATOM     17  C   UNL     1       3.678   0.930 -18.623  0.00  0.00    +0.000 C 
ENDROOT
BRANCH   8  18
ATOM     18  C   UNL     1      10.191   1.241 -18.146  0.00  0.00    +0.000 A 
ATOM     19  C   UNL     1      10.220  -0.159 -18.283  0.00  0.00    +0.000 A 
ATOM     20  C   UNL     1      10.867   1.810 -17.054  0.00  0.00    +0.000 A 
ATOM     21  C   UNL     1      11.564   1.011 -16.148  0.00  0.00    +0.000 A 
ATOM     22  C   UNL     1      10.896  -0.984 -17.373  0.00  0.00    +0.000 A 
ATOM     23  C   UNL     1      11.567  -0.385 -16.306  0.00  0.00    +0.000 A 
BRANCH  21  24
ATOM     24  O   UNL     1      12.274   1.469 -15.062  0.00  0.00    +0.000 OA
ATOM     25  C   UNL     1      13.640   1.801 -15.295  0.00  0.00    +0.000 C 
ENDBRANCH  21  24
BRANCH  22  26
ATOM     26  O   UNL     1      10.801  -2.313 -17.687  0.00  0.00    +0.000 OA
ATOM     27  C   UNL     1      10.764  -2.672 -19.061  0.00  0.00    +0.000 C 
ENDBRANCH  22  26
BRANCH  23  28
ATOM     28  O   UNL     1      12.265  -1.121 -15.381  0.00  0.00    +0.000 OA
ATOM     29  H   UNL     1      12.044  -0.716 -14.519  0.00  0.00    +0.000 HD
ENDBRANCH  23  28
ENDBRANCH   8  18
BRANCH   7  30
ATOM     30  O   UNL     1       8.370   1.943 -22.795  0.00  0.00    +0.000 OA
BRANCH  30  34
ATOM     31  O   UNL     1       8.009  -0.020 -24.014  0.00  0.00    +0.000 OA
ATOM     32  O   UNL     1       8.548  -0.872 -27.551  0.00  0.00    +0.000 OA
ATOM     33  O   UNL     1       7.388  -2.648 -26.509  0.00  0.00    +0.000 OA
ATOM     34  C   UNL     1       8.029   1.407 -24.080  0.00  0.00    +0.000 C 
ATOM     35  C   UNL     1       9.085   1.931 -25.080  0.00  0.00    +0.000 C 
ATOM     36  C   UNL     1       8.828  -0.263 -26.286  0.00  0.00    +0.000 C 
ATOM     37  C   UNL     1       8.936   1.254 -26.449  0.00  0.00    +0.000 C 
ATOM     38  C   UNL     1       7.719  -0.587 -25.289  0.00  0.00    +0.000 C 
ATOM     39  C   UNL     1       7.604  -2.106 -25.207  0.00  0.00    +0.000 C 
ATOM     40  C   UNL     1       8.440  -2.291 -27.405  0.00  0.00    +0.000 C 
ATOM     41  C   UNL     1       8.117  -2.877 -28.767  0.00  0.00    +0.000 C 
BRANCH  35  42
ATOM     42  O   UNL     1       8.939   3.355 -25.217  0.00  0.00    +0.000 OA
ATOM     43  H   UNL     1       9.696   3.653 -25.758  0.00  0.00    +0.000 HD
ENDBRANCH  35  42
BRANCH  37  44
ATOM     44  O   UNL     1      10.078   1.542 -27.272  0.00  0.00    +0.000 OA
ATOM     45  H   UNL     1      10.628   0.735 -27.259  0.00  0.00    +0.000 HD
ENDBRANCH  37  44
ENDBRANCH  30  34
ENDBRANCH   7  30
TORSDOF 8
ENDMDL
MODEL 3
REMARK VINA RESULT:      -7.1      0.734      2.087
REMARK  Name = 
REMARK  11 active torsions:
REMARK  status: ('A' for Active; 'I' for Inactive)
REMARK    1  A    between atoms: O_1  and  C_16
REMARK    2  A    between atoms: O_1  and  C_22
REMARK    3  A    between atoms: O_6  and  C_24
REMARK    4  A    between atoms: O_8  and  C_26
REMARK    5  A    between atoms: O_11  and  C_36
REMARK    6  A    between atoms: O_11  and  C_41
REMARK    7  A    between atoms: O_12  and  C_37
REMARK    8  A    between atoms: O_12  and  C_42
REMARK    9  A    between atoms: O_13  and  C_39
REMARK   10  A    between atoms: C_17  and  C_23
REMARK   11  A    between atoms: C_35  and  C_40
REMARK                            x       y       z     vdW  Elec       q    Type
REMARK                         _______ _______ _______ _____ _____    ______ ____
ROOT
ATOM      1  O   UNL     1       8.179   0.859 -24.211  0.00  0.00    +0.000 OA
ATOM      2  O   UNL     1       9.964   2.258 -24.547  0.00  0.00    +0.000 OA
ATOM      3  O   UNL     1      10.415   0.372 -16.117  0.00  0.00    +0.000 OA
ATOM      4  O   UNL     1      12.410   1.420 -16.976  0.00  0.00    +0.000 OA
ATOM      5  C   UNL     1       8.593   0.241 -22.017  0.00  0.00    +0.000 C 
ATOM      6  C   UNL     1       9.382   1.503 -22.310  0.00  0.00    +0.000 C 
ATOM      7  C   UNL     1       8.200   0.191 -20.546  0.00  0.00    +0.000 C 
ATOM      8  C   UNL     1      10.764   1.443 -21.660  0.00  0.00    +0.000 C 
ATOM      9  C   UNL     1       9.394   0.526 -19.653  0.00  0.00    +0.000 A 
ATOM     10  C   UNL     1      10.581   1.148 -20.162  0.00  0.00    +0.000 A 
ATOM     11  C   UNL     1       7.502   0.344 -23.053  0.00  0.00    +0.000 C 
ATOM     12  C   UNL     1       9.270   1.586 -23.803  0.00  0.00    +0.000 C 
ATOM     13  C   UNL     1       9.298   0.244 -18.277  0.00  0.00    +0.000 A 
ATOM     14  C   UNL     1      11.637   1.471 -19.285  0.00  0.00    +0.000 A 
ATOM     15  C   UNL     1      10.356   0.579 -17.459  0.00  0.00    +0.000 A 
ATOM     16  C   UNL     1      11.491   1.175 -17.948  0.00  0.00    +0.000 A 
ATOM     17  C   UNL     1      11.722   0.906 -15.817  0.00  0.00    +0.000 C 
ENDROOT
BRANCH   8  18
ATOM     18  C   UNL     1      11.757   0.500 -22.343  0.00  0.00    +0.000 A 
ATOM     19  C   UNL     1      11.701  -0.898 -22.202  0.00  0.00    +0.000 A 
ATOM     20  C   UNL     1      12.767   1.040 -23.157  0.00  0.00    +0.000 A 
ATOM     21  C   UNL     1      13.668   0.210 -23.825  0.00  0.00    +0.000 A 
ATOM     22  C   UNL     1      12.609  -1.751 -22.846  0.00  0.00    +0.000 A 
ATOM     23  C   UNL     1      13.591  -1.183 -23.658  0.00  0.00    +0.000 A 
BRANCH  21  24
ATOM     24  O   UNL     1      14.675   0.636 -24.661  0.00  0.00    +0.000 OA
ATOM     25  C   UNL     1      14.969   2.030 -24.636  0.00  0.00    +0.000 C 
ENDBRANCH  21  24
BRANCH  22  26
ATOM     26  O   UNL     1      12.379  -3.074 -22.579  0.00  0.00    +0.000 OA
ATOM     27  C   UNL     1      12.667  -3.550 -21.273  0.00  0.00    +0.000 C 
ENDBRANCH  22  26
BRANCH  23  28
ATOM     28  O   UNL     1      14.508  -1.948 -24.335  0.00  0.00    +0.000 OA
ATOM     29  H   UNL     1      13.979  -2.634 -24.787  0.00  0.00    +0.000 HD
ENDBRANCH  23  28
ENDBRANCH   8  18
BRANCH   7  30
ATOM     30  O   UNL     1       7.205   1.181 -20.286  0.00  0.00    +0.000 OA
BRANCH  30  34
ATOM     31  O   UNL     1       5.053   0.312 -20.567  0.00  0.00    +0.000 OA
ATOM     32  O   UNL     1       2.033   0.451 -18.471  0.00  0.00    +0.000 OA
ATOM     33  O   UNL     1       1.643  -1.032 -20.269  0.00  0.00    +0.000 OA
ATOM     34  C   UNL     1       6.055   0.657 -19.609  0.00  0.00    +0.000 C 
ATOM     35  C   UNL     1       5.574   1.752 -18.629  0.00  0.00    +0.000 C 
ATOM     36  C   UNL     1       3.238   0.930 -19.078  0.00  0.00    +0.000 C 
ATOM     37  C   UNL     1       4.224   1.378 -18.000  0.00  0.00    +0.000 C 
ATOM     38  C   UNL     1       3.875  -0.169 -19.924  0.00  0.00    +0.000 C 
ATOM     39  C   UNL     1       2.835  -0.628 -20.940  0.00  0.00    +0.000 C 
ATOM     40  C   UNL     1       1.107   0.025 -19.474  0.00  0.00    +0.000 C 
ATOM     41  C   UNL     1      -0.134  -0.497 -18.773  0.00  0.00    +0.000 C 
BRANCH  35  42
ATOM     42  O   UNL     1       6.563   1.932 -17.602  0.00  0.00    +0.000 OA
ATOM     43  H   UNL     1       6.489   2.864 -17.317  0.00  0.00    +0.000 HD
ENDBRANCH  35  42
BRANCH  37  44
ATOM     44  O   UNL     1       3.666   2.511 -17.315  0.00  0.00    +0.000 OA
ATOM     45  H   UNL     1       2.707   2.489 -17.499  0.00  0.00    +0.000 HD
ENDBRANCH  37  44
ENDBRANCH  30  34
ENDBRANCH   7  30
TORSDOF 8
ENDMDL
MODEL 4
REMARK VINA RESULT:      -6.8      2.999      5.258
REMARK  Name = 
REMARK  11 active torsions:
REMARK  status: ('A' for Active; 'I' for Inactive)
REMARK    1  A    between atoms: O_1  and  C_16
REMARK    2  A    between atoms: O_1  and  C_22
REMARK    3  A    between atoms: O_6  and  C_24
REMARK    4  A    between atoms: O_8  and  C_26
REMARK    5  A    between atoms: O_11  and  C_36
REMARK    6  A    between atoms: O_11  and  C_41
REMARK    7  A    between atoms: O_12  and  C_37
REMARK    8  A    between atoms: O_12  and  C_42
REMARK    9  A    between atoms: O_13  and  C_39
REMARK   10  A    between atoms: C_17  and  C_23
REMARK   11  A    between atoms: C_35  and  C_40
REMARK                            x       y       z     vdW  Elec       q    Type
REMARK                         _______ _______ _______ _____ _____    ______ ____
ROOT
ATOM      1  O   UNL     1       5.356   1.907 -19.088  0.00  0.00    +0.000 OA
ATOM      2  O   UNL     1       7.321   2.692 -18.205  0.00  0.00    +0.000 OA
ATOM      3  O   UNL     1       9.278  -5.362 -20.682  0.00  0.00    +0.000 OA
ATOM      4  O   UNL     1      11.212  -4.019 -20.159  0.00  0.00    +0.000 OA
ATOM      5  C   UNL     1       6.106  -0.115 -19.935  0.00  0.00    +0.000 C 
ATOM      6  C   UNL     1       7.118   0.376 -18.917  0.00  0.00    +0.000 C 
ATOM      7  C   UNL     1       6.086  -1.638 -19.971  0.00  0.00    +0.000 C 
ATOM      8  C   UNL     1       8.544   0.097 -19.390  0.00  0.00    +0.000 C 
ATOM      9  C   UNL     1       7.507  -2.198 -20.030  0.00  0.00    +0.000 A 
ATOM     10  C   UNL     1       8.658  -1.401 -19.721  0.00  0.00    +0.000 A 
ATOM     11  C   UNL     1       4.867   0.612 -19.474  0.00  0.00    +0.000 C 
ATOM     12  C   UNL     1       6.672   1.793 -18.712  0.00  0.00    +0.000 C 
ATOM     13  C   UNL     1       7.676  -3.555 -20.363  0.00  0.00    +0.000 A 
ATOM     14  C   UNL     1       9.943  -1.981 -19.753  0.00  0.00    +0.000 A 
ATOM     15  C   UNL     1       8.952  -4.077 -20.381  0.00  0.00    +0.000 A 
ATOM     16  C   UNL     1      10.052  -3.313 -20.083  0.00  0.00    +0.000 A 
ATOM     17  C   UNL     1      10.713  -5.318 -20.541  0.00  0.00    +0.000 C 
ENDROOT
BRANCH   8  18
ATOM     18  C   UNL     1       9.037   1.002 -20.521  0.00  0.00    +0.000 A 
ATOM     19  C   UNL     1      10.240   1.727 -20.449  0.00  0.00    +0.000 A 
ATOM     20  C   UNL     1       8.271   1.112 -21.694  0.00  0.00    +0.000 A 
ATOM     21  C   UNL     1       8.706   1.898 -22.762  0.00  0.00    +0.000 A 
ATOM     22  C   UNL     1      10.687   2.540 -21.500  0.00  0.00    +0.000 A 
ATOM     23  C   UNL     1       9.909   2.617 -22.656  0.00  0.00    +0.000 A 
BRANCH  21  24
ATOM     24  O   UNL     1       8.044   2.055 -23.958  0.00  0.00    +0.000 OA
ATOM     25  C   UNL     1       6.781   2.712 -23.899  0.00  0.00    +0.000 C 
ENDBRANCH  21  24
BRANCH  22  26
ATOM     26  O   UNL     1      11.879   3.155 -21.229  0.00  0.00    +0.000 OA
ATOM     27  C   UNL     1      12.677   2.629 -20.178  0.00  0.00    +0.000 C 
ENDBRANCH  22  26
BRANCH  23  28
ATOM     28  O   UNL     1      10.282   3.378 -23.735  0.00  0.00    +0.000 OA
ATOM     29  H   UNL     1      10.935   4.013 -23.382  0.00  0.00    +0.000 HD
ENDBRANCH  23  28
ENDBRANCH   8  18
BRANCH   7  30
ATOM     30  O   UNL     1       5.501  -2.135 -18.768  0.00  0.00    +0.000 OA
BRANCH  30  34
ATOM     31  O   UNL     1       4.301  -3.312 -20.393  0.00  0.00    +0.000 OA
ATOM     32  O   UNL     1       0.737  -4.166 -20.704  0.00  0.00    +0.000 OA
ATOM     33  O   UNL     1       1.940  -5.297 -22.395  0.00  0.00    +0.000 OA
ATOM     34  C   UNL     1       4.375  -2.990 -19.003  0.00  0.00    +0.000 C 
ATOM     35  C   UNL     1       3.122  -2.227 -18.513  0.00  0.00    +0.000 C 
ATOM     36  C   UNL     1       1.874  -3.358 -20.383  0.00  0.00    +0.000 C 
ATOM     37  C   UNL     1       1.835  -2.965 -18.906  0.00  0.00    +0.000 C 
ATOM     38  C   UNL     1       3.162  -4.124 -20.670  0.00  0.00    +0.000 C 
ATOM     39  C   UNL     1       3.127  -4.550 -22.134  0.00  0.00    +0.000 C 
ATOM     40  C   UNL     1       0.769  -4.542 -22.084  0.00  0.00    +0.000 C 
ATOM     41  C   UNL     1      -0.441  -5.417 -22.359  0.00  0.00    +0.000 C 
BRANCH  35  42
ATOM     42  O   UNL     1       3.189  -2.080 -17.084  0.00  0.00    +0.000 OA
ATOM     43  H   UNL     1       2.363  -1.630 -16.821  0.00  0.00    +0.000 HD
ENDBRANCH  35  42
BRANCH  37  44
ATOM     44  O   UNL     1       0.693  -2.120 -18.690  0.00  0.00    +0.000 OA
ATOM     45  H   UNL     1       0.789  -1.376 -19.316  0.00  0.00    +0.000 HD
ENDBRANCH  37  44
ENDBRANCH  30  34
ENDBRANCH   7  30
TORSDOF 8
ENDMDL
MODEL 5
REMARK VINA RESULT:      -6.7      1.926      2.961
REMARK  Name = 
REMARK  11 active torsions:
REMARK  status: ('A' for Active; 'I' for Inactive)
REMARK    1  A    between atoms: O_1  and  C_16
REMARK    2  A    between atoms: O_1  and  C_22
REMARK    3  A    between atoms: O_6  and  C_24
REMARK    4  A    between atoms: O_8  and  C_26
REMARK    5  A    between atoms: O_11  and  C_36
REMARK    6  A    between atoms: O_11  and  C_41
REMARK    7  A    between atoms: O_12  and  C_37
REMARK    8  A    between atoms: O_12  and  C_42
REMARK    9  A    between atoms: O_13  and  C_39
REMARK   10  A    between atoms: C_17  and  C_23
REMARK   11  A    between atoms: C_35  and  C_40
REMARK                            x       y       z     vdW  Elec       q    Type
REMARK                         _______ _______ _______ _____ _____    ______ ____
ROOT
ATOM      1  O   UNL     1       9.977  -0.907 -24.004  0.00  0.00    +0.000 OA
ATOM      2  O   UNL     1      11.617   0.666 -24.308  0.00  0.00    +0.000 OA
ATOM      3  O   UNL     1      10.032   0.995 -15.810  0.00  0.00    +0.000 OA
ATOM      4  O   UNL     1      12.051   2.145 -16.457  0.00  0.00    +0.000 OA
ATOM      5  C   UNL     1       9.863  -0.889 -21.690  0.00  0.00    +0.000 C 
ATOM      6  C   UNL     1      10.553   0.384 -22.139  0.00  0.00    +0.000 C 
ATOM      7  C   UNL     1       9.103  -0.651 -20.391  0.00  0.00    +0.000 C 
ATOM      8  C   UNL     1      11.712   0.734 -21.206  0.00  0.00    +0.000 C 
ATOM      9  C   UNL     1       9.972   0.100 -19.383  0.00  0.00    +0.000 A 
ATOM     10  C   UNL     1      11.174   0.783 -19.765  0.00  0.00    +0.000 A 
ATOM     11  C   UNL     1       9.081  -1.239 -22.930  0.00  0.00    +0.000 C 
ATOM     12  C   UNL     1      10.832   0.080 -23.581  0.00  0.00    +0.000 C 
ATOM     13  C   UNL     1       9.548   0.148 -18.041  0.00  0.00    +0.000 A 
ATOM     14  C   UNL     1      11.916   1.493 -18.800  0.00  0.00    +0.000 A 
ATOM     15  C   UNL     1      10.307   0.856 -17.134  0.00  0.00    +0.000 A 
ATOM     16  C   UNL     1      11.456   1.510 -17.503  0.00  0.00    +0.000 A 
ATOM     17  C   UNL     1      11.144   1.812 -15.386  0.00  0.00    +0.000 C 
ENDROOT
BRANCH   8  18
ATOM     18  C   UNL     1      12.950  -0.153 -21.355  0.00  0.00    +0.000 A 
ATOM     19  C   UNL     1      13.043  -1.436 -20.787  0.00  0.00    +0.000 A 
ATOM     20  C   UNL     1      14.045   0.319 -22.099  0.00  0.00    +0.000 A 
ATOM     21  C   UNL     1      15.177  -0.474 -22.288  0.00  0.00    +0.000 A 
ATOM     22  C   UNL     1      14.179  -2.243 -20.946  0.00  0.00    +0.000 A 
ATOM     23  C   UNL     1      15.242  -1.750 -21.702  0.00  0.00    +0.000 A 
BRANCH  21  24
ATOM     24  O   UNL     1      16.289  -0.117 -23.016  0.00  0.00    +0.000 OA
ATOM     25  C   UNL     1      16.092   0.082 -24.413  0.00  0.00    +0.000 C 
ENDBRANCH  21  24
BRANCH  22  26
ATOM     26  O   UNL     1      14.065  -3.453 -20.317  0.00  0.00    +0.000 OA
ATOM     27  C   UNL     1      13.419  -3.490 -19.053  0.00  0.00    +0.000 C 
ENDBRANCH  22  26
BRANCH  23  28
ATOM     28  O   UNL     1      16.384  -2.481 -21.917  0.00  0.00    +0.000 OA
ATOM     29  H   UNL     1      16.789  -2.582 -21.034  0.00  0.00    +0.000 HD
ENDBRANCH  23  28
ENDBRANCH   8  18
BRANCH   7  30
ATOM     30  O   UNL     1       7.969   0.177 -20.649  0.00  0.00    +0.000 OA
BRANCH  30  34
ATOM     31  O   UNL     1       6.354  -1.511 -20.568  0.00  0.00    +0.000 OA
ATOM     32  O   UNL     1       2.786  -1.483 -19.674  0.00  0.00    +0.000 OA
ATOM     33  O   UNL     1       3.485  -3.725 -19.945  0.00  0.00    +0.000 OA
ATOM     34  C   UNL     1       6.781  -0.277 -19.989  0.00  0.00    +0.000 C 
ATOM     35  C   UNL     1       5.724   0.840 -20.150  0.00  0.00    +0.000 C 
ATOM     36  C   UNL     1       4.004  -0.995 -20.247  0.00  0.00    +0.000 C 
ATOM     37  C   UNL     1       4.346   0.374 -19.658  0.00  0.00    +0.000 C 
ATOM     38  C   UNL     1       5.146  -1.968 -19.965  0.00  0.00    +0.000 C 
ATOM     39  C   UNL     1       4.733  -3.331 -20.512  0.00  0.00    +0.000 C 
ATOM     40  C   UNL     1       2.462  -2.767 -20.217  0.00  0.00    +0.000 C 
ATOM     41  C   UNL     1       1.182  -3.244 -19.556  0.00  0.00    +0.000 C 
BRANCH  35  42
ATOM     42  O   UNL     1       6.145   1.997 -19.408  0.00  0.00    +0.000 OA
ATOM     43  H   UNL     1       5.502   2.702 -19.620  0.00  0.00    +0.000 HD
ENDBRANCH  35  42
BRANCH  37  44
ATOM     44  O   UNL     1       3.333   1.309 -20.062  0.00  0.00    +0.000 OA
ATOM     45  H   UNL     1       2.584   1.173 -19.452  0.00  0.00    +0.000 HD
ENDBRANCH  37  44
ENDBRANCH  30  34
ENDBRANCH   7  30
TORSDOF 8
ENDMDL
MODEL 6
REMARK VINA RESULT:      -6.6      2.970      6.544
REMARK  Name = 
REMARK  11 active torsions:
REMARK  status: ('A' for Active; 'I' for Inactive)
REMARK    1  A    between atoms: O_1  and  C_16
REMARK    2  A    between atoms: O_1  and  C_22
REMARK    3  A    between atoms: O_6  and  C_24
REMARK    4  A    between atoms: O_8  and  C_26
REMARK    5  A    between atoms: O_11  and  C_36
REMARK    6  A    between atoms: O_11  and  C_41
REMARK    7  A    between atoms: O_12  and  C_37
REMARK    8  A    between atoms: O_12  and  C_42
REMARK    9  A    between atoms: O_13  and  C_39
REMARK   10  A    between atoms: C_17  and  C_23
REMARK   11  A    between atoms: C_35  and  C_40
REMARK                            x       y       z     vdW  Elec       q    Type
REMARK                         _______ _______ _______ _____ _____    ______ ____
ROOT
ATOM      1  O   UNL     1      11.662   1.811 -22.266  0.00  0.00    +0.000 OA
ATOM      2  O   UNL     1      11.953   3.037 -20.350  0.00  0.00    +0.000 OA
ATOM      3  O   UNL     1       3.709   0.456 -19.885  0.00  0.00    +0.000 OA
ATOM      4  O   UNL     1       4.555   1.354 -17.812  0.00  0.00    +0.000 OA
ATOM      5  C   UNL     1       9.537   0.982 -21.863  0.00  0.00    +0.000 C 
ATOM      6  C   UNL     1       9.761   2.173 -20.952  0.00  0.00    +0.000 C 
ATOM      7  C   UNL     1       8.061   0.857 -22.221  0.00  0.00    +0.000 C 
ATOM      8  C   UNL     1       9.165   1.918 -19.568  0.00  0.00    +0.000 C 
ATOM      9  C   UNL     1       7.187   0.994 -20.976  0.00  0.00    +0.000 A 
ATOM     10  C   UNL     1       7.688   1.526 -19.742  0.00  0.00    +0.000 A 
ATOM     11  C   UNL     1      10.524   1.279 -22.964  0.00  0.00    +0.000 C 
ATOM     12  C   UNL     1      11.238   2.384 -21.093  0.00  0.00    +0.000 C 
ATOM     13  C   UNL     1       5.833   0.616 -21.065  0.00  0.00    +0.000 A 
ATOM     14  C   UNL     1       6.825   1.667 -18.636  0.00  0.00    +0.000 A 
ATOM     15  C   UNL     1       5.029   0.773 -19.957  0.00  0.00    +0.000 A 
ATOM     16  C   UNL     1       5.510   1.284 -18.778  0.00  0.00    +0.000 A 
ATOM     17  C   UNL     1       3.415   0.825 -18.522  0.00  0.00    +0.000 C 
ENDROOT
BRANCH   8  18
ATOM     18  C   UNL     1       9.950   0.932 -18.699  0.00  0.00    +0.000 A 
ATOM     19  C   UNL     1      10.729   1.336 -17.601  0.00  0.00    +0.000 A 
ATOM     20  C   UNL     1       9.887  -0.440 -18.993  0.00  0.00    +0.000 A 
ATOM     21  C   UNL     1      10.559  -1.373 -18.203  0.00  0.00    +0.000 A 
ATOM     22  C   UNL     1      11.431   0.419 -16.805  0.00  0.00    +0.000 A 
ATOM     23  C   UNL     1      11.336  -0.938 -17.116  0.00  0.00    +0.000 A 
BRANCH  21  24
ATOM     24  O   UNL     1      10.544  -2.736 -18.391  0.00  0.00    +0.000 OA
ATOM     25  C   UNL     1      11.109  -3.211 -19.610  0.00  0.00    +0.000 C 
ENDBRANCH  21  24
BRANCH  22  26
ATOM     26  O   UNL     1      12.125   1.017 -15.788  0.00  0.00    +0.000 OA
ATOM     27  C   UNL     1      11.575   2.190 -15.205  0.00  0.00    +0.000 C 
ENDBRANCH  22  26
BRANCH  23  28
ATOM     28  O   UNL     1      11.979  -1.900 -16.379  0.00  0.00    +0.000 OA
ATOM     29  H   UNL     1      12.928  -1.674 -16.443  0.00  0.00    +0.000 HD
ENDBRANCH  23  28
ENDBRANCH   8  18
BRANCH   7  30
ATOM     30  O   UNL     1       7.693   1.923 -23.098  0.00  0.00    +0.000 OA
BRANCH  30  34
ATOM     31  O   UNL     1       7.854   1.100 -25.280  0.00  0.00    +0.000 OA
ATOM     32  O   UNL     1       5.686   1.465 -28.230  0.00  0.00    +0.000 OA
ATOM     33  O   UNL     1       7.370  -0.121 -28.715  0.00  0.00    +0.000 OA
ATOM     34  C   UNL     1       6.950   1.479 -24.240  0.00  0.00    +0.000 C 
ATOM     35  C   UNL     1       6.032   2.649 -24.661  0.00  0.00    +0.000 C 
ATOM     36  C   UNL     1       6.359   1.868 -27.031  0.00  0.00    +0.000 C 
ATOM     37  C   UNL     1       5.341   2.357 -26.001  0.00  0.00    +0.000 C 
ATOM     38  C   UNL     1       7.147   0.697 -26.451  0.00  0.00    +0.000 C 
ATOM     39  C   UNL     1       8.101   0.203 -27.533  0.00  0.00    +0.000 C 
ATOM     40  C   UNL     1       6.633   1.002 -29.197  0.00  0.00    +0.000 C 
ATOM     41  C   UNL     1       5.863   0.564 -30.430  0.00  0.00    +0.000 C 
BRANCH  35  42
ATOM     42  O   UNL     1       5.048   2.868 -23.637  0.00  0.00    +0.000 OA
ATOM     43  H   UNL     1       4.524   2.044 -23.587  0.00  0.00    +0.000 HD
ENDBRANCH  35  42
BRANCH  37  44
ATOM     44  O   UNL     1       4.718   3.548 -26.507  0.00  0.00    +0.000 OA
ATOM     45  H   UNL     1       4.131   3.257 -27.230  0.00  0.00    +0.000 HD
ENDBRANCH  37  44
ENDBRANCH  30  34
ENDBRANCH   7  30
TORSDOF 8
ENDMDL
MODEL 7
REMARK VINA RESULT:      -6.5      3.020      7.363
REMARK  Name = 
REMARK  11 active torsions:
REMARK  status: ('A' for Active; 'I' for Inactive)
REMARK    1  A    between atoms: O_1  and  C_16
REMARK    2  A    between atoms: O_1  and  C_22
REMARK    3  A    between atoms: O_6  and  C_24
REMARK    4  A    between atoms: O_8  and  C_26
REMARK    5  A    between atoms: O_11  and  C_36
REMARK    6  A    between atoms: O_11  and  C_41
REMARK    7  A    between atoms: O_12  and  C_37
REMARK    8  A    between atoms: O_12  and  C_42
REMARK    9  A    between atoms: O_13  and  C_39
REMARK   10  A    between atoms: C_17  and  C_23
REMARK   11  A    between atoms: C_35  and  C_40
REMARK                            x       y       z     vdW  Elec       q    Type
REMARK                         _______ _______ _______ _____ _____    ______ ____
ROOT
ATOM      1  O   UNL     1      12.729   1.662 -21.958  0.00  0.00    +0.000 OA
ATOM      2  O   UNL     1      12.517   3.190 -20.262  0.00  0.00    +0.000 OA
ATOM      3  O   UNL     1       4.536  -0.042 -21.099  0.00  0.00    +0.000 OA
ATOM      4  O   UNL     1       4.849   1.239 -19.079  0.00  0.00    +0.000 OA
ATOM      5  C   UNL     1      10.618   0.711 -21.874  0.00  0.00    +0.000 C 
ATOM      6  C   UNL     1      10.566   2.044 -21.153  0.00  0.00    +0.000 C 
ATOM      7  C   UNL     1       9.268   0.397 -22.506  0.00  0.00    +0.000 C 
ATOM      8  C   UNL     1       9.693   1.951 -19.901  0.00  0.00    +0.000 C 
ATOM      9  C   UNL     1       8.133   0.642 -21.513  0.00  0.00    +0.000 A 
ATOM     10  C   UNL     1       8.317   1.402 -20.311  0.00  0.00    +0.000 A 
ATOM     11  C   UNL     1      11.805   0.926 -22.778  0.00  0.00    +0.000 C 
ATOM     12  C   UNL     1      12.023   2.367 -21.015  0.00  0.00    +0.000 C 
ATOM     13  C   UNL     1       6.856   0.131 -21.818  0.00  0.00    +0.000 A 
ATOM     14  C   UNL     1       7.224   1.631 -19.450  0.00  0.00    +0.000 A 
ATOM     15  C   UNL     1       5.819   0.382 -20.945  0.00  0.00    +0.000 A 
ATOM     16  C   UNL     1       5.997   1.110 -19.797  0.00  0.00    +0.000 A 
ATOM     17  C   UNL     1       3.927   0.504 -19.910  0.00  0.00    +0.000 C 
ENDROOT
BRANCH   8  18
ATOM     18  C   UNL     1      10.321   1.188 -18.733  0.00  0.00    +0.000 A 
ATOM     19  C   UNL     1      10.915   1.831 -17.632  0.00  0.00    +0.000 A 
ATOM     20  C   UNL     1      10.299  -0.217 -18.741  0.00  0.00    +0.000 A 
ATOM     21  C   UNL     1      10.828  -0.948 -17.677  0.00  0.00    +0.000 A 
ATOM     22  C   UNL     1      11.473   1.118 -16.561  0.00  0.00    +0.000 A 
ATOM     23  C   UNL     1      11.422  -0.276 -16.595  0.00  0.00    +0.000 A 
BRANCH  21  24
ATOM     24  O   UNL     1      10.836  -2.320 -17.577  0.00  0.00    +0.000 OA
ATOM     25  C   UNL     1      10.922  -3.041 -18.803  0.00  0.00    +0.000 C 
ENDBRANCH  21  24
BRANCH  22  26
ATOM     26  O   UNL     1      11.997   1.932 -15.594  0.00  0.00    +0.000 OA
ATOM     27  C   UNL     1      11.133   2.876 -14.977  0.00  0.00    +0.000 C 
ENDBRANCH  22  26
BRANCH  23  28
ATOM     28  O   UNL     1      11.931  -1.047 -15.580  0.00  0.00    +0.000 OA
ATOM     29  H   UNL     1      11.178  -1.589 -15.274  0.00  0.00    +0.000 HD
ENDBRANCH  23  28
ENDBRANCH   8  18
BRANCH   7  30
ATOM     30  O   UNL     1       9.043   1.276 -23.609  0.00  0.00    +0.000 OA
BRANCH  30  34
ATOM     31  O   UNL     1       9.045  -0.809 -24.667  0.00  0.00    +0.000 OA
ATOM     32  O   UNL     1       9.602  -1.812 -28.162  0.00  0.00    +0.000 OA
ATOM     33  O   UNL     1       8.877  -3.698 -26.935  0.00  0.00    +0.000 OA
ATOM     34  C   UNL     1       8.766   0.582 -24.832  0.00  0.00    +0.000 C 
ATOM     35  C   UNL     1       9.650   1.229 -25.924  0.00  0.00    +0.000 C 
ATOM     36  C   UNL     1       9.801  -1.060 -26.959  0.00  0.00    +0.000 C 
ATOM     37  C   UNL     1       9.587   0.429 -27.233  0.00  0.00    +0.000 C 
ATOM     38  C   UNL     1       8.826  -1.523 -25.881  0.00  0.00    +0.000 C 
ATOM     39  C   UNL     1       9.030  -3.022 -25.688  0.00  0.00    +0.000 C 
ATOM     40  C   UNL     1       9.795  -3.207 -27.912  0.00  0.00    +0.000 C 
ATOM     41  C   UNL     1       9.544  -3.953 -29.210  0.00  0.00    +0.000 C 
BRANCH  35  42
ATOM     42  O   UNL     1       9.207   2.578 -26.150  0.00  0.00    +0.000 OA
ATOM     43  H   UNL     1       8.287   2.508 -26.473  0.00  0.00    +0.000 HD
ENDBRANCH  35  42
BRANCH  37  44
ATOM     44  O   UNL     1      10.610   0.876 -28.137  0.00  0.00    +0.000 OA
ATOM     45  H   UNL     1      11.383   0.303 -27.972  0.00  0.00    +0.000 HD
ENDBRANCH  37  44
ENDBRANCH  30  34
ENDBRANCH   7  30
TORSDOF 8
ENDMDL
MODEL 8
REMARK VINA RESULT:      -6.5      6.251     10.036
REMARK  Name = 
REMARK  11 active torsions:
REMARK  status: ('A' for Active; 'I' for Inactive)
REMARK    1  A    between atoms: O_1  and  C_16
REMARK    2  A    between atoms: O_1  and  C_22
REMARK    3  A    between atoms: O_6  and  C_24
REMARK    4  A    between atoms: O_8  and  C_26
REMARK    5  A    between atoms: O_11  and  C_36
REMARK    6  A    between atoms: O_11  and  C_41
REMARK    7  A    between atoms: O_12  and  C_37
REMARK    8  A    between atoms: O_12  and  C_42
REMARK    9  A    between atoms: O_13  and  C_39
REMARK   10  A    between atoms: C_17  and  C_23
REMARK   11  A    between atoms: C_35  and  C_40
REMARK                            x       y       z     vdW  Elec       q    Type
REMARK                         _______ _______ _______ _____ _____    ______ ____
ROOT
ATOM      1  O   UNL     1       0.175  -4.788 -21.772  0.00  0.00    +0.000 OA
ATOM      2  O   UNL     1       1.752  -4.114 -23.294  0.00  0.00    +0.000 OA
ATOM      3  O   UNL     1      -0.590   3.244 -19.394  0.00  0.00    +0.000 OA
ATOM      4  O   UNL     1       1.417   3.452 -20.716  0.00  0.00    +0.000 OA
ATOM      5  C   UNL     1      -0.143  -2.788 -20.648  0.00  0.00    +0.000 C 
ATOM      6  C   UNL     1       0.518  -2.483 -21.979  0.00  0.00    +0.000 C 
ATOM      7  C   UNL     1      -1.026  -1.624 -20.215  0.00  0.00    +0.000 C 
ATOM      8  C   UNL     1       1.569  -1.385 -21.825  0.00  0.00    +0.000 C 
ATOM      9  C   UNL     1      -0.289  -0.295 -20.373  0.00  0.00    +0.000 A 
ATOM     10  C   UNL     1       0.905  -0.169 -21.158  0.00  0.00    +0.000 A 
ATOM     11  C   UNL     1      -0.795  -4.113 -20.954  0.00  0.00    +0.000 C 
ATOM     12  C   UNL     1       0.937  -3.851 -22.425  0.00  0.00    +0.000 C 
ATOM     13  C   UNL     1      -0.831   0.848 -19.755  0.00  0.00    +0.000 A 
ATOM     14  C   UNL     1       1.522   1.090 -21.302  0.00  0.00    +0.000 A 
ATOM     15  C   UNL     1      -0.192   2.057 -19.925  0.00  0.00    +0.000 A 
ATOM     16  C   UNL     1       0.949   2.175 -20.677  0.00  0.00    +0.000 A 
ATOM     17  C   UNL     1       0.437   4.124 -19.898  0.00  0.00    +0.000 C 
ENDROOT
BRANCH   8  18
ATOM     18  C   UNL     1       2.860  -1.822 -21.129  0.00  0.00    +0.000 A 
ATOM     19  C   UNL     1       4.050  -2.095 -21.828  0.00  0.00    +0.000 A 
ATOM     20  C   UNL     1       2.875  -1.948 -19.729  0.00  0.00    +0.000 A 
ATOM     21  C   UNL     1       4.043  -2.308 -19.055  0.00  0.00    +0.000 A 
ATOM     22  C   UNL     1       5.230  -2.479 -21.174  0.00  0.00    +0.000 A 
ATOM     23  C   UNL     1       5.213  -2.582 -19.783  0.00  0.00    +0.000 A 
BRANCH  21  24
ATOM     24  O   UNL     1       4.168  -2.437 -17.691  0.00  0.00    +0.000 OA
ATOM     25  C   UNL     1       3.738  -1.325 -16.910  0.00  0.00    +0.000 C 
ENDBRANCH  21  24
BRANCH  22  26
ATOM     26  O   UNL     1       6.271  -2.694 -22.036  0.00  0.00    +0.000 OA
ATOM     27  C   UNL     1       6.344  -3.952 -22.692  0.00  0.00    +0.000 C 
ENDBRANCH  22  26
BRANCH  23  28
ATOM     28  O   UNL     1       6.328  -2.937 -19.066  0.00  0.00    +0.000 OA
ATOM     29  H   UNL     1       6.817  -2.102 -18.930  0.00  0.00    +0.000 HD
ENDBRANCH  23  28
ENDBRANCH   8  18
BRANCH   7  30
ATOM     30  O   UNL     1      -2.174  -1.557 -21.061  0.00  0.00    +0.000 OA
BRANCH  30  34
ATOM     31  O   UNL     1      -4.090  -2.463 -20.073  0.00  0.00    +0.000 OA
ATOM     32  O   UNL     1      -7.504  -1.164 -19.644  0.00  0.00    +0.000 OA
ATOM     33  O   UNL     1      -7.298  -3.179 -18.427  0.00  0.00    +0.000 OA
ATOM     34  C   UNL     1      -3.380  -1.254 -20.349  0.00  0.00    +0.000 C 
ATOM     35  C   UNL     1      -4.195  -0.288 -21.238  0.00  0.00    +0.000 C 
ATOM     36  C   UNL     1      -6.256  -1.394 -20.307  0.00  0.00    +0.000 C 
ATOM     37  C   UNL     1      -5.601  -0.059 -20.664  0.00  0.00    +0.000 C 
ATOM     38  C   UNL     1      -5.320  -2.193 -19.406  0.00  0.00    +0.000 C 
ATOM     39  C   UNL     1      -6.039  -3.483 -19.025  0.00  0.00    +0.000 C 
ATOM     40  C   UNL     1      -8.121  -2.409 -19.303  0.00  0.00    +0.000 C 
ATOM     41  C   UNL     1      -9.421  -2.104 -18.582  0.00  0.00    +0.000 C 
BRANCH  35  42
ATOM     42  O   UNL     1      -3.496   0.964 -21.339  0.00  0.00    +0.000 OA
ATOM     43  H   UNL     1      -3.233   1.200 -20.428  0.00  0.00    +0.000 HD
ENDBRANCH  35  42
BRANCH  37  44
ATOM     44  O   UNL     1      -6.428   0.610 -21.629  0.00  0.00    +0.000 OA
ATOM     45  H   UNL     1      -7.173   0.990 -21.126  0.00  0.00    +0.000 HD
ENDBRANCH  37  44
ENDBRANCH  30  34
ENDBRANCH   7  30
TORSDOF 8
ENDMDL
MODEL 9
REMARK VINA RESULT:      -6.5     10.051     15.526
REMARK  Name = 
REMARK  11 active torsions:
REMARK  status: ('A' for Active; 'I' for Inactive)
REMARK    1  A    between atoms: O_1  and  C_16
REMARK    2  A    between atoms: O_1  and  C_22
REMARK    3  A    between atoms: O_6  and  C_24
REMARK    4  A    between atoms: O_8  and  C_26
REMARK    5  A    between atoms: O_11  and  C_36
REMARK    6  A    between atoms: O_11  and  C_41
REMARK    7  A    between atoms: O_12  and  C_37
REMARK    8  A    between atoms: O_12  and  C_42
REMARK    9  A    between atoms: O_13  and  C_39
REMARK   10  A    between atoms: C_17  and  C_23
REMARK   11  A    between atoms: C_35  and  C_40
REMARK                            x       y       z     vdW  Elec       q    Type
REMARK                         _______ _______ _______ _____ _____    ______ ____
ROOT
ATOM      1  O   UNL     1      -5.143  -0.119 -24.434  0.00  0.00    +0.000 OA
ATOM      2  O   UNL     1      -5.444  -2.376 -24.162  0.00  0.00    +0.000 OA
ATOM      3  O   UNL     1      -3.783   0.436 -16.152  0.00  0.00    +0.000 OA
ATOM      4  O   UNL     1      -4.653  -1.812 -16.221  0.00  0.00    +0.000 OA
ATOM      5  C   UNL     1      -4.983   0.510 -22.210  0.00  0.00    +0.000 C 
ATOM      6  C   UNL     1      -4.735  -0.984 -22.299  0.00  0.00    +0.000 C 
ATOM      7  C   UNL     1      -4.209   1.108 -21.043  0.00  0.00    +0.000 C 
ATOM      8  C   UNL     1      -5.395  -1.714 -21.130  0.00  0.00    +0.000 C 
ATOM      9  C   UNL     1      -4.390   0.266 -19.782  0.00  0.00    +0.000 A 
ATOM     10  C   UNL     1      -4.908  -1.070 -19.820  0.00  0.00    +0.000 A 
ATOM     11  C   UNL     1      -4.625   0.939 -23.611  0.00  0.00    +0.000 C 
ATOM     12  C   UNL     1      -5.180  -1.278 -23.700  0.00  0.00    +0.000 C 
ATOM     13  C   UNL     1      -3.994   0.817 -18.548  0.00  0.00    +0.000 A 
ATOM     14  C   UNL     1      -5.016  -1.817 -18.630  0.00  0.00    +0.000 A 
ATOM     15  C   UNL     1      -4.118   0.048 -17.411  0.00  0.00    +0.000 A 
ATOM     16  C   UNL     1      -4.614  -1.231 -17.450  0.00  0.00    +0.000 A 
ATOM     17  C   UNL     1      -4.126  -0.748 -15.402  0.00  0.00    +0.000 C 
ENDROOT
BRANCH   8  18
ATOM     18  C   UNL     1      -6.919  -1.824 -21.215  0.00  0.00    +0.000 A 
ATOM     19  C   UNL     1      -7.775  -0.723 -21.030  0.00  0.00    +0.000 A 
ATOM     20  C   UNL     1      -7.502  -3.070 -21.501  0.00  0.00    +0.000 A 
ATOM     21  C   UNL     1      -8.885  -3.203 -21.623  0.00  0.00    +0.000 A 
ATOM     22  C   UNL     1      -9.169  -0.836 -21.127  0.00  0.00    +0.000 A 
ATOM     23  C   UNL     1      -9.714  -2.085 -21.426  0.00  0.00    +0.000 A 
BRANCH  21  24
ATOM     24  O   UNL     1      -9.551  -4.369 -21.922  0.00  0.00    +0.000 OA
ATOM     25  C   UNL     1      -9.313  -4.918 -23.216  0.00  0.00    +0.000 C 
ENDBRANCH  21  24
BRANCH  22  26
ATOM     26  O   UNL     1      -9.816   0.351 -20.916  0.00  0.00    +0.000 OA
ATOM     27  C   UNL     1      -9.767   1.330 -21.944  0.00  0.00    +0.000 C 
ENDBRANCH  22  26
BRANCH  23  28
ATOM     28  O   UNL     1     -11.067  -2.278 -21.552  0.00  0.00    +0.000 OA
ATOM     29  H   UNL     1     -11.469  -1.436 -21.261  0.00  0.00    +0.000 HD
ENDBRANCH  23  28
ENDBRANCH   8  18
BRANCH   7  30
ATOM     30  O   UNL     1      -2.813   1.099 -21.344  0.00  0.00    +0.000 OA
BRANCH  30  34
ATOM     31  O   UNL     1      -2.046   2.704 -22.861  0.00  0.00    +0.000 OA
ATOM     32  O   UNL     1       0.553   5.296 -22.620  0.00  0.00    +0.000 OA
ATOM     33  O   UNL     1      -0.640   5.600 -24.638  0.00  0.00    +0.000 OA
ATOM     34  C   UNL     1      -2.258   2.413 -21.478  0.00  0.00    +0.000 C 
ATOM     35  C   UNL     1      -0.940   2.428 -20.670  0.00  0.00    +0.000 C 
ATOM     36  C   UNL     1      -0.055   4.017 -22.410  0.00  0.00    +0.000 C 
ATOM     37  C   UNL     1      -0.156   3.726 -20.913  0.00  0.00    +0.000 C 
ATOM     38  C   UNL     1      -1.450   3.988 -23.028  0.00  0.00    +0.000 C 
ATOM     39  C   UNL     1      -1.307   4.346 -24.503  0.00  0.00    +0.000 C 
ATOM     40  C   UNL     1       0.646   5.577 -24.020  0.00  0.00    +0.000 C 
ATOM     41  C   UNL     1       1.270   6.952 -24.179  0.00  0.00    +0.000 C 
BRANCH  35  42
ATOM     42  O   UNL     1      -1.243   2.291 -19.272  0.00  0.00    +0.000 OA
ATOM     43  H   UNL     1      -2.191   2.508 -19.180  0.00  0.00    +0.000 HD
ENDBRANCH  35  42
BRANCH  37  44
ATOM     44  O   UNL     1       1.174   3.608 -20.382  0.00  0.00    +0.000 OA
ATOM     45  H   UNL     1       1.776   3.713 -21.142  0.00  0.00    +0.000 HD
ENDBRANCH  37  44
ENDBRANCH  30  34
ENDBRANCH   7  30
TORSDOF 8
ENDMDL
