MODEL 1
REMARK VINA RESULT:      -7.3      0.000      0.000
REMARK  Name = Foretinib.pdbqt.pdb
REMARK  11 active torsions:
REMARK  status: ('A' for Active; 'I' for Inactive)
REMARK    1  A    between atoms: C_2  and  N_31
REMARK    2  A    between atoms: C_7  and  O_8
REMARK    3  A    between atoms: O_8  and  C_9
REMARK    4  A    between atoms: C_17  and  O_19
REMARK    5  A    between atoms: C_18  and  O_29
REMARK    6  A    between atoms: O_19  and  C_20
REMARK    7  A    between atoms: C_21  and  C_22
REMARK    8  A    between atoms: C_22  and  N_23
REMARK    9  A    between atoms: C_32  and  C_35
REMARK   10  A    between atoms: C_35  and  C_38
REMARK   11  A    between atoms: N_40  and  C_42
REMARK                            x       y       z     vdW  Elec       q    Type
REMARK                         _______ _______ _______ _____ _____    ______ ____
ROOT
ATOM      1  F   UNL     1      -2.707  -0.348 -20.751  0.00  0.00    +0.000 F 
ATOM      2  C   UNL     1      -5.495  -1.798 -18.937  0.00  0.00    +0.000 A 
ATOM      3  C   UNL     1      -4.761  -1.168 -19.942  0.00  0.00    +0.000 A 
ATOM      4  C   UNL     1      -4.844  -2.237 -17.781  0.00  0.00    +0.000 A 
ATOM      5  C   UNL     1      -3.390  -0.986 -19.789  0.00  0.00    +0.000 A 
ATOM      6  C   UNL     1      -3.471  -2.053 -17.629  0.00  0.00    +0.000 A 
ATOM      7  C   UNL     1      -2.738  -1.448 -18.646  0.00  0.00    +0.000 A 
ENDROOT
BRANCH   2   8
ATOM      8  N   UNL     1      -6.883  -2.013 -19.026  0.00  0.00    +0.000 N 
ATOM      9  C   UNL     1      -7.494  -3.236 -19.246  0.00  0.00    +0.000 C 
ATOM     10  O   UNL     1      -6.928  -4.307 -19.422  0.00  0.00    +0.000 OA
ATOM     11  H   UNL     1      -7.477  -1.191 -18.962  0.00  0.00    +0.000 HD
BRANCH   9  12
ATOM     12  C   UNL     1      -8.992  -3.179 -19.320  0.00  0.00    +0.000 C 
ATOM     13  C   UNL     1      -9.706  -2.591 -18.192  0.00  0.00    +0.000 C 
ATOM     14  C   UNL     1      -9.743  -4.058 -18.431  0.00  0.00    +0.000 C 
BRANCH  12  15
ATOM     15  C   UNL     1      -9.542  -2.921 -20.691  0.00  0.00    +0.000 C 
ATOM     16  O   UNL     1      -8.837  -2.346 -21.512  0.00  0.00    +0.000 OA
ATOM     17  N   UNL     1     -10.815  -3.421 -20.909  0.00  0.00    +0.000 N 
ATOM     18  H   UNL     1     -11.263  -3.928 -20.152  0.00  0.00    +0.000 HD
BRANCH  17  19
ATOM     19  C   UNL     1     -11.537  -3.319 -22.112  0.00  0.00    +0.000 A 
ATOM     20  C   UNL     1     -12.129  -2.090 -22.412  0.00  0.00    +0.000 A 
ATOM     21  C   UNL     1     -12.857  -1.925 -23.588  0.00  0.00    +0.000 A 
ATOM     22  C   UNL     1     -12.987  -2.999 -24.463  0.00  0.00    +0.000 A 
ATOM     23  F   UNL     1     -13.684  -2.843 -25.596  0.00  0.00    +0.000 F 
ATOM     24  C   UNL     1     -12.402  -4.228 -24.183  0.00  0.00    +0.000 A 
ATOM     25  C   UNL     1     -11.677  -4.384 -23.004  0.00  0.00    +0.000 A 
ENDBRANCH  17  19
ENDBRANCH  12  15
ENDBRANCH   9  12
ENDBRANCH   2   8
BRANCH   7  26
ATOM     26  O   UNL     1      -1.401  -1.235 -18.414  0.00  0.00    +0.000 OA
BRANCH  26  27
ATOM     27  C   UNL     1      -0.507  -1.830 -19.282  0.00  0.00    +0.000 A 
ATOM     28  C   UNL     1       0.569  -1.061 -19.753  0.00  0.00    +0.000 A 
ATOM     29  C   UNL     1       1.506  -1.688 -20.591  0.00  0.00    +0.000 A 
ATOM     30  C   UNL     1       0.728   0.294 -19.422  0.00  0.00    +0.000 A 
ATOM     31  N   UNL     1       1.408  -2.982 -20.936  0.00  0.00    +0.000 NA
ATOM     32  C   UNL     1       2.567  -0.931 -21.065  0.00  0.00    +0.000 A 
ATOM     33  C   UNL     1       0.365  -3.692 -20.451  0.00  0.00    +0.000 A 
ATOM     34  C   UNL     1      -0.607  -3.175 -19.620  0.00  0.00    +0.000 A 
ATOM     35  C   UNL     1       2.732   0.421 -20.738  0.00  0.00    +0.000 A 
ATOM     36  C   UNL     1       1.801   1.044 -19.907  0.00  0.00    +0.000 A 
BRANCH  36  37
ATOM     37  O   UNL     1       2.004   2.374 -19.621  0.00  0.00    +0.000 OA
ATOM     38  C   UNL     1       0.990   3.246 -20.041  0.00  0.00    +0.000 C 
ENDBRANCH  36  37
BRANCH  35  39
ATOM     39  O   UNL     1       3.775   1.187 -21.204  0.00  0.00    +0.000 OA
BRANCH  39  40
ATOM     40  C   UNL     1       4.951   0.947 -20.628  0.00  0.00    +0.000 C 
ATOM     41  C   UNL     1       6.297   0.659 -19.953  0.00  0.00    +0.000 C 
BRANCH  41  42
ATOM     42  C   UNL     1       7.641   0.364 -19.280  0.00  0.00    +0.000 C 
BRANCH  42  43
ATOM     43  N   UNL     1       8.919   0.085 -18.640  0.00  0.00    +0.000 N 
ATOM     44  C   UNL     1       9.982   0.425 -19.635  0.00  0.00    +0.000 C 
ATOM     45  C   UNL     1      11.005   1.606 -19.612  0.00  0.00    +0.000 C 
ATOM     46  O   UNL     1      11.252   2.633 -18.769  0.00  0.00    +0.000 OA
ATOM     47  C   UNL     1      10.290   2.331 -17.874  0.00  0.00    +0.000 C 
ATOM     48  C   UNL     1       9.199   1.228 -17.720  0.00  0.00    +0.000 C 
ENDBRANCH  42  43
ENDBRANCH  41  42
ENDBRANCH  39  40
ENDBRANCH  35  39
ENDBRANCH  26  27
ENDBRANCH   7  26
TORSDOF 11
ENDMDL
MODEL 2
REMARK VINA RESULT:      -7.1      5.259      9.516
REMARK  Name = Foretinib.pdbqt.pdb
REMARK  11 active torsions:
REMARK  status: ('A' for Active; 'I' for Inactive)
REMARK    1  A    between atoms: C_2  and  N_31
REMARK    2  A    between atoms: C_7  and  O_8
REMARK    3  A    between atoms: O_8  and  C_9
REMARK    4  A    between atoms: C_17  and  O_19
REMARK    5  A    between atoms: C_18  and  O_29
REMARK    6  A    between atoms: O_19  and  C_20
REMARK    7  A    between atoms: C_21  and  C_22
REMARK    8  A    between atoms: C_22  and  N_23
REMARK    9  A    between atoms: C_32  and  C_35
REMARK   10  A    between atoms: C_35  and  C_38
REMARK   11  A    between atoms: N_40  and  C_42
REMARK                            x       y       z     vdW  Elec       q    Type
REMARK                         _______ _______ _______ _____ _____    ______ ____
ROOT
ATOM      1  F   UNL     1       7.285  -1.426 -19.607  0.00  0.00    +0.000 F 
ATOM      2  C   UNL     1       3.758  -1.846 -18.864  0.00  0.00    +0.000 A 
ATOM      3  C   UNL     1       5.072  -2.139 -19.230  0.00  0.00    +0.000 A 
ATOM      4  C   UNL     1       3.420  -0.542 -18.494  0.00  0.00    +0.000 A 
ATOM      5  C   UNL     1       6.034  -1.134 -19.220  0.00  0.00    +0.000 A 
ATOM      6  C   UNL     1       4.385   0.464 -18.485  0.00  0.00    +0.000 A 
ATOM      7  C   UNL     1       5.701   0.162 -18.825  0.00  0.00    +0.000 A 
ENDROOT
BRANCH   2   8
ATOM      8  N   UNL     1       2.736  -2.813 -18.853  0.00  0.00    +0.000 N 
ATOM      9  C   UNL     1       2.110  -3.332 -19.974  0.00  0.00    +0.000 C 
ATOM     10  O   UNL     1       2.328  -3.016 -21.137  0.00  0.00    +0.000 OA
ATOM     11  H   UNL     1       2.407  -3.120 -17.942  0.00  0.00    +0.000 HD
BRANCH   9  12
ATOM     12  C   UNL     1       1.033  -4.335 -19.678  0.00  0.00    +0.000 C 
ATOM     13  C   UNL     1       1.400  -5.519 -18.909  0.00  0.00    +0.000 C 
ATOM     14  C   UNL     1       1.105  -5.621 -20.362  0.00  0.00    +0.000 C 
BRANCH  12  15
ATOM     15  C   UNL     1      -0.321  -3.744 -19.423  0.00  0.00    +0.000 C 
ATOM     16  O   UNL     1      -1.183  -4.444 -18.904  0.00  0.00    +0.000 OA
ATOM     17  N   UNL     1      -0.446  -2.408 -19.765  0.00  0.00    +0.000 N 
ATOM     18  H   UNL     1       0.372  -1.934 -20.137  0.00  0.00    +0.000 HD
BRANCH  17  19
ATOM     19  C   UNL     1      -1.608  -1.631 -19.609  0.00  0.00    +0.000 A 
ATOM     20  C   UNL     1      -1.659  -0.748 -18.528  0.00  0.00    +0.000 A 
ATOM     21  C   UNL     1      -2.782   0.049 -18.320  0.00  0.00    +0.000 A 
ATOM     22  C   UNL     1      -3.853  -0.043 -19.201  0.00  0.00    +0.000 A 
ATOM     23  F   UNL     1      -4.934   0.724 -19.005  0.00  0.00    +0.000 F 
ATOM     24  C   UNL     1      -3.820  -0.914 -20.284  0.00  0.00    +0.000 A 
ATOM     25  C   UNL     1      -2.694  -1.708 -20.484  0.00  0.00    +0.000 A 
ENDBRANCH  17  19
ENDBRANCH  12  15
ENDBRANCH   9  12
ENDBRANCH   2   8
BRANCH   7  26
ATOM     26  O   UNL     1       6.594   1.205 -18.861  0.00  0.00    +0.000 OA
BRANCH  26  27
ATOM     27  C   UNL     1       7.095   1.565 -20.097  0.00  0.00    +0.000 A 
ATOM     28  C   UNL     1       8.452   1.913 -20.184  0.00  0.00    +0.000 A 
ATOM     29  C   UNL     1       8.968   2.223 -21.454  0.00  0.00    +0.000 A 
ATOM     30  C   UNL     1       9.290   1.966 -19.060  0.00  0.00    +0.000 A 
ATOM     31  N   UNL     1       8.216   2.183 -22.565  0.00  0.00    +0.000 NA
ATOM     32  C   UNL     1      10.307   2.575 -21.546  0.00  0.00    +0.000 A 
ATOM     33  C   UNL     1       6.917   1.830 -22.440  0.00  0.00    +0.000 A 
ATOM     34  C   UNL     1       6.312   1.504 -21.244  0.00  0.00    +0.000 A 
ATOM     35  C   UNL     1      11.149   2.628 -20.428  0.00  0.00    +0.000 A 
ATOM     36  C   UNL     1      10.635   2.321 -19.167  0.00  0.00    +0.000 A 
BRANCH  36  37
ATOM     37  O   UNL     1      11.500   2.396 -18.101  0.00  0.00    +0.000 OA
ATOM     38  C   UNL     1      11.938   1.167 -17.588  0.00  0.00    +0.000 C 
ENDBRANCH  36  37
BRANCH  35  39
ATOM     39  O   UNL     1      12.477   2.980 -20.500  0.00  0.00    +0.000 OA
BRANCH  39  40
ATOM     40  C   UNL     1      13.143   2.454 -21.525  0.00  0.00    +0.000 C 
ATOM     41  C   UNL     1      13.915   1.834 -22.696  0.00  0.00    +0.000 C 
BRANCH  41  42
ATOM     42  C   UNL     1      14.684   1.209 -23.865  0.00  0.00    +0.000 C 
BRANCH  42  43
ATOM     43  N   UNL     1      15.414   0.616 -24.976  0.00  0.00    +0.000 N 
ATOM     44  C   UNL     1      14.393   0.166 -25.971  0.00  0.00    +0.000 C 
ATOM     45  C   UNL     1      14.077   0.753 -27.385  0.00  0.00    +0.000 C 
ATOM     46  O   UNL     1      14.566   1.776 -28.120  0.00  0.00    +0.000 OA
ATOM     47  C   UNL     1      15.483   2.186 -27.221  0.00  0.00    +0.000 C 
ATOM     48  C   UNL     1      15.942   1.747 -25.797  0.00  0.00    +0.000 C 
ENDBRANCH  42  43
ENDBRANCH  41  42
ENDBRANCH  39  40
ENDBRANCH  35  39
ENDBRANCH  26  27
ENDBRANCH   7  26
TORSDOF 11
ENDMDL
MODEL 3
REMARK VINA RESULT:      -6.7      6.052     10.618
REMARK  Name = Foretinib.pdbqt.pdb
REMARK  11 active torsions:
REMARK  status: ('A' for Active; 'I' for Inactive)
REMARK    1  A    between atoms: C_2  and  N_31
REMARK    2  A    between atoms: C_7  and  O_8
REMARK    3  A    between atoms: O_8  and  C_9
REMARK    4  A    between atoms: C_17  and  O_19
REMARK    5  A    between atoms: C_18  and  O_29
REMARK    6  A    between atoms: O_19  and  C_20
REMARK    7  A    between atoms: C_21  and  C_22
REMARK    8  A    between atoms: C_22  and  N_23
REMARK    9  A    between atoms: C_32  and  C_35
REMARK   10  A    between atoms: C_35  and  C_38
REMARK   11  A    between atoms: N_40  and  C_42
REMARK                            x       y       z     vdW  Elec       q    Type
REMARK                         _______ _______ _______ _____ _____    ______ ____
ROOT
ATOM      1  F   UNL     1       7.054   2.007 -22.336  0.00  0.00    +0.000 F 
ATOM      2  C   UNL     1       4.915   0.331 -19.932  0.00  0.00    +0.000 A 
ATOM      3  C   UNL     1       5.488   0.713 -21.145  0.00  0.00    +0.000 A 
ATOM      4  C   UNL     1       5.397   0.877 -18.740  0.00  0.00    +0.000 A 
ATOM      5  C   UNL     1       6.537   1.627 -21.159  0.00  0.00    +0.000 A 
ATOM      6  C   UNL     1       6.447   1.793 -18.755  0.00  0.00    +0.000 A 
ATOM      7  C   UNL     1       7.035   2.151 -19.966  0.00  0.00    +0.000 A 
ENDROOT
BRANCH   2   8
ATOM      8  N   UNL     1       3.851  -0.586 -19.846  0.00  0.00    +0.000 N 
ATOM      9  C   UNL     1       3.841  -1.858 -20.395  0.00  0.00    +0.000 C 
ATOM     10  O   UNL     1       4.736  -2.368 -21.056  0.00  0.00    +0.000 OA
ATOM     11  H   UNL     1       3.009  -0.267 -19.375  0.00  0.00    +0.000 HD
BRANCH   9  12
ATOM     12  C   UNL     1       2.568  -2.621 -20.175  0.00  0.00    +0.000 C 
ATOM     13  C   UNL     1       2.663  -4.067 -20.006  0.00  0.00    +0.000 C 
ATOM     14  C   UNL     1       2.107  -3.486 -21.256  0.00  0.00    +0.000 C 
BRANCH  12  15
ATOM     15  C   UNL     1       1.538  -1.901 -19.357  0.00  0.00    +0.000 C 
ATOM     16  O   UNL     1       1.803  -1.613 -18.195  0.00  0.00    +0.000 OA
ATOM     17  N   UNL     1       0.376  -1.580 -20.037  0.00  0.00    +0.000 N 
ATOM     18  H   UNL     1       0.314  -1.833 -21.018  0.00  0.00    +0.000 HD
BRANCH  17  19
ATOM     19  C   UNL     1      -0.726  -0.896 -19.492  0.00  0.00    +0.000 A 
ATOM     20  C   UNL     1      -0.743   0.496 -19.598  0.00  0.00    +0.000 A 
ATOM     21  C   UNL     1      -1.807   1.231 -19.078  0.00  0.00    +0.000 A 
ATOM     22  C   UNL     1      -2.854   0.562 -18.454  0.00  0.00    +0.000 A 
ATOM     23  F   UNL     1      -3.879   1.265 -17.955  0.00  0.00    +0.000 F 
ATOM     24  C   UNL     1      -2.855  -0.823 -18.342  0.00  0.00    +0.000 A 
ATOM     25  C   UNL     1      -1.787  -1.549 -18.863  0.00  0.00    +0.000 A 
ENDBRANCH  17  19
ENDBRANCH  12  15
ENDBRANCH   9  12
ENDBRANCH   2   8
BRANCH   7  26
ATOM     26  O   UNL     1       8.021   3.106 -19.925  0.00  0.00    +0.000 OA
BRANCH  26  27
ATOM     27  C   UNL     1       9.194   2.775 -19.275  0.00  0.00    +0.000 A 
ATOM     28  C   UNL     1      10.209   2.152 -20.018  0.00  0.00    +0.000 A 
ATOM     29  C   UNL     1      11.421   1.870 -19.363  0.00  0.00    +0.000 A 
ATOM     30  C   UNL     1      10.049   1.804 -21.368  0.00  0.00    +0.000 A 
ATOM     31  N   UNL     1      11.632   2.185 -18.076  0.00  0.00    +0.000 NA
ATOM     32  C   UNL     1      12.425   1.248 -20.090  0.00  0.00    +0.000 A 
ATOM     33  C   UNL     1      10.634   2.796 -17.399  0.00  0.00    +0.000 A 
ATOM     34  C   UNL     1       9.410   3.121 -17.946  0.00  0.00    +0.000 A 
ATOM     35  C   UNL     1      12.272   0.899 -21.438  0.00  0.00    +0.000 A 
ATOM     36  C   UNL     1      11.069   1.179 -22.087  0.00  0.00    +0.000 A 
BRANCH  36  37
ATOM     37  O   UNL     1      10.966   0.810 -23.408  0.00  0.00    +0.000 OA
ATOM     38  C   UNL     1      10.126   1.607 -24.197  0.00  0.00    +0.000 C 
ENDBRANCH  36  37
BRANCH  35  39
ATOM     39  O   UNL     1      13.256   0.278 -22.172  0.00  0.00    +0.000 OA
BRANCH  39  40
ATOM     40  C   UNL     1      13.751  -0.830 -21.625  0.00  0.00    +0.000 C 
ATOM     41  C   UNL     1      14.335  -2.096 -20.989  0.00  0.00    +0.000 C 
BRANCH  41  42
ATOM     42  C   UNL     1      14.920  -3.359 -20.347  0.00  0.00    +0.000 C 
BRANCH  42  43
ATOM     43  N   UNL     1      15.477  -4.558 -19.737  0.00  0.00    +0.000 N 
ATOM     44  C   UNL     1      15.870  -4.189 -18.343  0.00  0.00    +0.000 C 
ATOM     45  C   UNL     1      15.220  -4.631 -16.992  0.00  0.00    +0.000 C 
ATOM     46  O   UNL     1      14.176  -5.418 -16.653  0.00  0.00    +0.000 OA
ATOM     47  C   UNL     1      13.817  -5.747 -17.911  0.00  0.00    +0.000 C 
ATOM     48  C   UNL     1      14.322  -5.420 -19.349  0.00  0.00    +0.000 C 
ENDBRANCH  42  43
ENDBRANCH  41  42
ENDBRANCH  39  40
ENDBRANCH  35  39
ENDBRANCH  26  27
ENDBRANCH   7  26
TORSDOF 11
ENDMDL
MODEL 4
REMARK VINA RESULT:      -6.6      3.249     15.299
REMARK  Name = Foretinib.pdbqt.pdb
REMARK  11 active torsions:
REMARK  status: ('A' for Active; 'I' for Inactive)
REMARK    1  A    between atoms: C_2  and  N_31
REMARK    2  A    between atoms: C_7  and  O_8
REMARK    3  A    between atoms: O_8  and  C_9
REMARK    4  A    between atoms: C_17  and  O_19
REMARK    5  A    between atoms: C_18  and  O_29
REMARK    6  A    between atoms: O_19  and  C_20
REMARK    7  A    between atoms: C_21  and  C_22
REMARK    8  A    between atoms: C_22  and  N_23
REMARK    9  A    between atoms: C_32  and  C_35
REMARK   10  A    between atoms: C_35  and  C_38
REMARK   11  A    between atoms: N_40  and  C_42
REMARK                            x       y       z     vdW  Elec       q    Type
REMARK                         _______ _______ _______ _____ _____    ______ ____
ROOT
ATOM      1  F   UNL     1       0.812   0.738 -21.311  0.00  0.00    +0.000 F 
ATOM      2  C   UNL     1       4.354   0.029 -21.653  0.00  0.00    +0.000 A 
ATOM      3  C   UNL     1       3.166   0.711 -21.392  0.00  0.00    +0.000 A 
ATOM      4  C   UNL     1       4.307  -1.307 -22.060  0.00  0.00    +0.000 A 
ATOM      5  C   UNL     1       1.946   0.057 -21.534  0.00  0.00    +0.000 A 
ATOM      6  C   UNL     1       3.085  -1.961 -22.203  0.00  0.00    +0.000 A 
ATOM      7  C   UNL     1       1.902  -1.285 -21.915  0.00  0.00    +0.000 A 
ENDROOT
BRANCH   2   8
ATOM      8  N   UNL     1       5.621   0.630 -21.531  0.00  0.00    +0.000 N 
ATOM      9  C   UNL     1       6.101   1.660 -22.322  0.00  0.00    +0.000 C 
ATOM     10  O   UNL     1       5.515   2.187 -23.259  0.00  0.00    +0.000 OA
ATOM     11  H   UNL     1       6.244   0.242 -20.828  0.00  0.00    +0.000 HD
BRANCH   9  12
ATOM     12  C   UNL     1       7.498   2.099 -21.993  0.00  0.00    +0.000 C 
ATOM     13  C   UNL     1       8.116   3.101 -22.855  0.00  0.00    +0.000 C 
ATOM     14  C   UNL     1       8.564   1.685 -22.899  0.00  0.00    +0.000 C 
BRANCH  12  15
ATOM     15  C   UNL     1       7.804   2.172 -20.527  0.00  0.00    +0.000 C 
ATOM     16  O   UNL     1       6.923   2.539 -19.757  0.00  0.00    +0.000 OA
ATOM     17  N   UNL     1       9.077   1.756 -20.177  0.00  0.00    +0.000 N 
ATOM     18  H   UNL     1       9.688   1.423 -20.917  0.00  0.00    +0.000 HD
BRANCH  17  19
ATOM     19  C   UNL     1       9.594   1.720 -18.869  0.00  0.00    +0.000 A 
ATOM     20  C   UNL     1      10.063   2.916 -18.322  0.00  0.00    +0.000 A 
ATOM     21  C   UNL     1      10.586   2.945 -17.032  0.00  0.00    +0.000 A 
ATOM     22  C   UNL     1      10.636   1.768 -16.292  0.00  0.00    +0.000 A 
ATOM     23  F   UNL     1      11.136   1.793 -15.050  0.00  0.00    +0.000 F 
ATOM     24  C   UNL     1      10.171   0.569 -16.819  0.00  0.00    +0.000 A 
ATOM     25  C   UNL     1       9.651   0.549 -18.110  0.00  0.00    +0.000 A 
ENDBRANCH  17  19
ENDBRANCH  12  15
ENDBRANCH   9  12
ENDBRANCH   2   8
BRANCH   7  26
ATOM     26  O   UNL     1       0.726  -1.958 -22.136  0.00  0.00    +0.000 OA
BRANCH  26  27
ATOM     27  C   UNL     1       0.230  -2.720 -21.096  0.00  0.00    +0.000 A 
ATOM     28  C   UNL     1      -0.907  -2.253 -20.418  0.00  0.00    +0.000 A 
ATOM     29  C   UNL     1      -1.439  -3.061 -19.398  0.00  0.00    +0.000 A 
ATOM     30  C   UNL     1      -1.511  -1.023 -20.719  0.00  0.00    +0.000 A 
ATOM     31  N   UNL     1      -0.907  -4.248 -19.071  0.00  0.00    +0.000 NA
ATOM     32  C   UNL     1      -2.558  -2.601 -18.720  0.00  0.00    +0.000 A 
ATOM     33  C   UNL     1       0.180  -4.669 -19.756  0.00  0.00    +0.000 A 
ATOM     34  C   UNL     1       0.779  -3.957 -20.776  0.00  0.00    +0.000 A 
ATOM     35  C   UNL     1      -3.167  -1.375 -19.016  0.00  0.00    +0.000 A 
ATOM     36  C   UNL     1      -2.637  -0.573 -20.028  0.00  0.00    +0.000 A 
BRANCH  36  37
ATOM     37  O   UNL     1      -3.267   0.624 -20.276  0.00  0.00    +0.000 OA
ATOM     38  C   UNL     1      -3.925   0.719 -21.509  0.00  0.00    +0.000 C 
ENDBRANCH  36  37
BRANCH  35  39
ATOM     39  O   UNL     1      -4.274  -0.903 -18.350  0.00  0.00    +0.000 OA
BRANCH  39  40
ATOM     40  C   UNL     1      -5.397  -1.582 -18.572  0.00  0.00    +0.000 C 
ATOM     41  C   UNL     1      -6.699  -2.351 -18.820  0.00  0.00    +0.000 C 
BRANCH  41  42
ATOM     42  C   UNL     1      -8.004  -3.114 -19.069  0.00  0.00    +0.000 C 
BRANCH  42  43
ATOM     43  N   UNL     1      -9.244  -3.840 -19.306  0.00  0.00    +0.000 N 
ATOM     44  C   UNL     1     -10.347  -2.832 -19.274  0.00  0.00    +0.000 C 
ATOM     45  C   UNL     1     -11.230  -2.307 -20.453  0.00  0.00    +0.000 C 
ATOM     46  O   UNL     1     -11.289  -2.556 -21.779  0.00  0.00    +0.000 OA
ATOM     47  C   UNL     1     -10.290  -3.461 -21.811  0.00  0.00    +0.000 C 
ATOM     48  C   UNL     1      -9.316  -4.102 -20.775  0.00  0.00    +0.000 C 
ENDBRANCH  42  43
ENDBRANCH  41  42
ENDBRANCH  39  40
ENDBRANCH  35  39
ENDBRANCH  26  27
ENDBRANCH   7  26
TORSDOF 11
ENDMDL
MODEL 5
REMARK VINA RESULT:      -6.6      7.575     11.471
REMARK  Name = Foretinib.pdbqt.pdb
REMARK  11 active torsions:
REMARK  status: ('A' for Active; 'I' for Inactive)
REMARK    1  A    between atoms: C_2  and  N_31
REMARK    2  A    between atoms: C_7  and  O_8
REMARK    3  A    between atoms: O_8  and  C_9
REMARK    4  A    between atoms: C_17  and  O_19
REMARK    5  A    between atoms: C_18  and  O_29
REMARK    6  A    between atoms: O_19  and  C_20
REMARK    7  A    between atoms: C_21  and  C_22
REMARK    8  A    between atoms: C_22  and  N_23
REMARK    9  A    between atoms: C_32  and  C_35
REMARK   10  A    between atoms: C_35  and  C_38
REMARK   11  A    between atoms: N_40  and  C_42
REMARK                            x       y       z     vdW  Elec       q    Type
REMARK                         _______ _______ _______ _____ _____    ______ ____
ROOT
ATOM      1  F   UNL     1       8.208   0.923 -21.596  0.00  0.00    +0.000 F 
ATOM      2  C   UNL     1       5.234   0.815 -19.520  0.00  0.00    +0.000 A 
ATOM      3  C   UNL     1       6.091   0.633 -20.606  0.00  0.00    +0.000 A 
ATOM      4  C   UNL     1       5.707   1.447 -18.368  0.00  0.00    +0.000 A 
ATOM      5  C   UNL     1       7.408   1.076 -20.531  0.00  0.00    +0.000 A 
ATOM      6  C   UNL     1       7.025   1.892 -18.294  0.00  0.00    +0.000 A 
ATOM      7  C   UNL     1       7.885   1.685 -19.370  0.00  0.00    +0.000 A 
ENDROOT
BRANCH   2   8
ATOM      8  N   UNL     1       3.892   0.393 -19.529  0.00  0.00    +0.000 N 
ATOM      9  C   UNL     1       3.457  -0.908 -19.335  0.00  0.00    +0.000 C 
ATOM     10  O   UNL     1       4.168  -1.889 -19.153  0.00  0.00    +0.000 OA
ATOM     11  H   UNL     1       3.192   1.100 -19.735  0.00  0.00    +0.000 HD
BRANCH   9  12
ATOM     12  C   UNL     1       1.970  -1.087 -19.418  0.00  0.00    +0.000 C 
ATOM     13  C   UNL     1       1.192  -0.024 -20.045  0.00  0.00    +0.000 C 
ATOM     14  C   UNL     1       1.141  -0.233 -18.575  0.00  0.00    +0.000 C 
BRANCH  12  15
ATOM     15  C   UNL     1       1.520  -2.498 -19.655  0.00  0.00    +0.000 C 
ATOM     16  O   UNL     1       0.674  -2.981 -18.911  0.00  0.00    +0.000 OA
ATOM     17  N   UNL     1       2.088  -3.112 -20.758  0.00  0.00    +0.000 N 
ATOM     18  H   UNL     1       2.737  -2.570 -21.321  0.00  0.00    +0.000 HD
BRANCH  17  19
ATOM     19  C   UNL     1       1.818  -4.421 -21.193  0.00  0.00    +0.000 A 
ATOM     20  C   UNL     1       2.623  -5.450 -20.699  0.00  0.00    +0.000 A 
ATOM     21  C   UNL     1       2.405  -6.768 -21.092  0.00  0.00    +0.000 A 
ATOM     22  C   UNL     1       1.375  -7.050 -21.983  0.00  0.00    +0.000 A 
ATOM     23  F   UNL     1       1.162  -8.317 -22.362  0.00  0.00    +0.000 F 
ATOM     24  C   UNL     1       0.562  -6.040 -22.484  0.00  0.00    +0.000 A 
ATOM     25  C   UNL     1       0.788  -4.725 -22.086  0.00  0.00    +0.000 A 
ENDBRANCH  17  19
ENDBRANCH  12  15
ENDBRANCH   9  12
ENDBRANCH   2   8
BRANCH   7  26
ATOM     26  O   UNL     1       9.154   2.201 -19.266  0.00  0.00    +0.000 OA
BRANCH  26  27
ATOM     27  C   UNL     1       9.910   1.805 -18.181  0.00  0.00    +0.000 A 
ATOM     28  C   UNL     1      10.353   0.474 -18.135  0.00  0.00    +0.000 A 
ATOM     29  C   UNL     1      11.170   0.092 -17.056  0.00  0.00    +0.000 A 
ATOM     30  C   UNL     1      10.005  -0.471 -19.112  0.00  0.00    +0.000 A 
ATOM     31  N   UNL     1      11.540   0.953 -16.095  0.00  0.00    +0.000 NA
ATOM     32  C   UNL     1      11.605  -1.224 -17.001  0.00  0.00    +0.000 A 
ATOM     33  C   UNL     1      11.103   2.230 -16.183  0.00  0.00    +0.000 A 
ATOM     34  C   UNL     1      10.302   2.708 -17.200  0.00  0.00    +0.000 A 
ATOM     35  C   UNL     1      11.262  -2.171 -17.974  0.00  0.00    +0.000 A 
ATOM     36  C   UNL     1      10.450  -1.792 -19.044  0.00  0.00    +0.000 A 
BRANCH  36  37
ATOM     37  O   UNL     1      10.136  -2.760 -19.969  0.00  0.00    +0.000 OA
ATOM     38  C   UNL     1       8.943  -2.560 -20.676  0.00  0.00    +0.000 C 
ENDBRANCH  36  37
BRANCH  35  39
ATOM     39  O   UNL     1      11.680  -3.480 -17.932  0.00  0.00    +0.000 OA
BRANCH  39  40
ATOM     40  C   UNL     1      12.978  -3.664 -18.164  0.00  0.00    +0.000 C 
ATOM     41  C   UNL     1      14.471  -3.866 -18.445  0.00  0.00    +0.000 C 
BRANCH  41  42
ATOM     42  C   UNL     1      15.965  -4.061 -18.728  0.00  0.00    +0.000 C 
BRANCH  42  43
ATOM     43  N   UNL     1      17.384  -4.245 -18.995  0.00  0.00    +0.000 N 
ATOM     44  C   UNL     1      18.095  -4.063 -17.693  0.00  0.00    +0.000 C 
ATOM     45  C   UNL     1      18.821  -5.133 -16.815  0.00  0.00    +0.000 C 
ATOM     46  O   UNL     1      19.030  -6.463 -16.917  0.00  0.00    +0.000 OA
ATOM     47  C   UNL     1      18.383  -6.630 -18.089  0.00  0.00    +0.000 C 
ATOM     48  C   UNL     1      17.616  -5.717 -19.094  0.00  0.00    +0.000 C 
ENDBRANCH  42  43
ENDBRANCH  41  42
ENDBRANCH  39  40
ENDBRANCH  35  39
ENDBRANCH  26  27
ENDBRANCH   7  26
TORSDOF 11
ENDMDL
MODEL 6
REMARK VINA RESULT:      -6.4     20.341     25.339
REMARK  Name = Foretinib.pdbqt.pdb
REMARK  11 active torsions:
REMARK  status: ('A' for Active; 'I' for Inactive)
REMARK    1  A    between atoms: C_2  and  N_31
REMARK    2  A    between atoms: C_7  and  O_8
REMARK    3  A    between atoms: O_8  and  C_9
REMARK    4  A    between atoms: C_17  and  O_19
REMARK    5  A    between atoms: C_18  and  O_29
REMARK    6  A    between atoms: O_19  and  C_20
REMARK    7  A    between atoms: C_21  and  C_22
REMARK    8  A    between atoms: C_22  and  N_23
REMARK    9  A    between atoms: C_32  and  C_35
REMARK   10  A    between atoms: C_35  and  C_38
REMARK   11  A    between atoms: N_40  and  C_42
REMARK                            x       y       z     vdW  Elec       q    Type
REMARK                         _______ _______ _______ _____ _____    ______ ____
ROOT
ATOM      1  F   UNL     1      13.758  -1.991   0.995  0.00  0.00    +0.000 F 
ATOM      2  C   UNL     1      12.072  -5.034  -0.033  0.00  0.00    +0.000 A 
ATOM      3  C   UNL     1      12.878  -3.897  -0.072  0.00  0.00    +0.000 A 
ATOM      4  C   UNL     1      11.394  -5.359   1.144  0.00  0.00    +0.000 A 
ATOM      5  C   UNL     1      13.006  -3.099   1.060  0.00  0.00    +0.000 A 
ATOM      6  C   UNL     1      11.522  -4.558   2.278  0.00  0.00    +0.000 A 
ATOM      7  C   UNL     1      12.349  -3.438   2.243  0.00  0.00    +0.000 A 
ENDROOT
BRANCH   2   8
ATOM      8  N   UNL     1      11.897  -5.884  -1.142  0.00  0.00    +0.000 N 
ATOM      9  C   UNL     1      10.839  -5.832  -2.035  0.00  0.00    +0.000 C 
ATOM     10  O   UNL     1       9.887  -5.065  -1.986  0.00  0.00    +0.000 OA
ATOM     11  H   UNL     1      12.587  -6.619  -1.267  0.00  0.00    +0.000 HD
BRANCH   9  12
ATOM     12  C   UNL     1      10.886  -6.873  -3.115  0.00  0.00    +0.000 C 
ATOM     13  C   UNL     1       9.726  -7.744  -3.269  0.00  0.00    +0.000 C 
ATOM     14  C   UNL     1      10.996  -8.267  -2.702  0.00  0.00    +0.000 C 
BRANCH  12  15
ATOM     15  C   UNL     1      11.595  -6.447  -4.366  0.00  0.00    +0.000 C 
ATOM     16  O   UNL     1      12.613  -5.771  -4.267  0.00  0.00    +0.000 OA
ATOM     17  N   UNL     1      11.037  -6.921  -5.541  0.00  0.00    +0.000 N 
ATOM     18  H   UNL     1      10.220  -7.521  -5.471  0.00  0.00    +0.000 HD
BRANCH  17  19
ATOM     19  C   UNL     1      11.525  -6.672  -6.836  0.00  0.00    +0.000 A 
ATOM     20  C   UNL     1      12.395  -7.612  -7.394  0.00  0.00    +0.000 A 
ATOM     21  C   UNL     1      12.914  -7.422  -8.673  0.00  0.00    +0.000 A 
ATOM     22  C   UNL     1      12.554  -6.286  -9.390  0.00  0.00    +0.000 A 
ATOM     23  F   UNL     1      13.049  -6.102 -10.621  0.00  0.00    +0.000 F 
ATOM     24  C   UNL     1      11.688  -5.341  -8.852  0.00  0.00    +0.000 A 
ATOM     25  C   UNL     1      11.175  -5.539  -7.572  0.00  0.00    +0.000 A 
ENDBRANCH  17  19
ENDBRANCH  12  15
ENDBRANCH   9  12
ENDBRANCH   2   8
BRANCH   7  26
ATOM     26  O   UNL     1      12.385  -2.652   3.369  0.00  0.00    +0.000 OA
BRANCH  26  27
ATOM     27  C   UNL     1      11.302  -1.825   3.596  0.00  0.00    +0.000 A 
ATOM     28  C   UNL     1      11.480  -0.442   3.433  0.00  0.00    +0.000 A 
ATOM     29  C   UNL     1      10.360   0.388   3.611  0.00  0.00    +0.000 A 
ATOM     30  C   UNL     1      12.723   0.125   3.111  0.00  0.00    +0.000 A 
ATOM     31  N   UNL     1       9.146  -0.099   3.915  0.00  0.00    +0.000 NA
ATOM     32  C   UNL     1      10.531   1.755   3.459  0.00  0.00    +0.000 A 
ATOM     33  C   UNL     1       9.014  -1.438   4.050  0.00  0.00    +0.000 A 
ATOM     34  C   UNL     1      10.046  -2.340   3.894  0.00  0.00    +0.000 A 
ATOM     35  C   UNL     1      11.768   2.328   3.135  0.00  0.00    +0.000 A 
ATOM     36  C   UNL     1      12.880   1.503   2.960  0.00  0.00    +0.000 A 
BRANCH  36  37
ATOM     37  O   UNL     1      14.073   2.114   2.650  0.00  0.00    +0.000 OA
ATOM     38  C   UNL     1      15.214   1.546   3.234  0.00  0.00    +0.000 C 
ENDBRANCH  36  37
BRANCH  35  39
ATOM     39  O   UNL     1      11.956   3.682   2.985  0.00  0.00    +0.000 OA
BRANCH  39  40
ATOM     40  C   UNL     1      11.120   4.275   2.136  0.00  0.00    +0.000 C 
ATOM     41  C   UNL     1      10.168   4.973   1.158  0.00  0.00    +0.000 C 
BRANCH  41  42
ATOM     42  C   UNL     1       9.221   5.673   0.178  0.00  0.00    +0.000 C 
BRANCH  42  43
ATOM     43  N   UNL     1       8.321   6.339  -0.753  0.00  0.00    +0.000 N 
ATOM     44  C   UNL     1       8.714   5.894  -2.125  0.00  0.00    +0.000 C 
ATOM     45  C   UNL     1       7.942   4.960  -3.112  0.00  0.00    +0.000 C 
ATOM     46  O   UNL     1       6.769   4.291  -3.066  0.00  0.00    +0.000 OA
ATOM     47  C   UNL     1       6.416   4.686  -1.826  0.00  0.00    +0.000 C 
ATOM     48  C   UNL     1       7.029   5.589  -0.713  0.00  0.00    +0.000 C 
ENDBRANCH  42  43
ENDBRANCH  41  42
ENDBRANCH  39  40
ENDBRANCH  35  39
ENDBRANCH  26  27
ENDBRANCH   7  26
TORSDOF 11
ENDMDL
MODEL 7
REMARK VINA RESULT:      -6.3     12.776     17.088
REMARK  Name = Foretinib.pdbqt.pdb
REMARK  11 active torsions:
REMARK  status: ('A' for Active; 'I' for Inactive)
REMARK    1  A    between atoms: C_2  and  N_31
REMARK    2  A    between atoms: C_7  and  O_8
REMARK    3  A    between atoms: O_8  and  C_9
REMARK    4  A    between atoms: C_17  and  O_19
REMARK    5  A    between atoms: C_18  and  O_29
REMARK    6  A    between atoms: O_19  and  C_20
REMARK    7  A    between atoms: C_21  and  C_22
REMARK    8  A    between atoms: C_22  and  N_23
REMARK    9  A    between atoms: C_32  and  C_35
REMARK   10  A    between atoms: C_35  and  C_38
REMARK   11  A    between atoms: N_40  and  C_42
REMARK                            x       y       z     vdW  Elec       q    Type
REMARK                         _______ _______ _______ _____ _____    ______ ____
ROOT
ATOM      1  F   UNL     1      10.186   8.587 -26.890  0.00  0.00    +0.000 F 
ATOM      2  C   UNL     1       7.939   6.731 -24.730  0.00  0.00    +0.000 A 
ATOM      3  C   UNL     1       8.846   7.023 -25.749  0.00  0.00    +0.000 A 
ATOM      4  C   UNL     1       7.533   7.743 -23.857  0.00  0.00    +0.000 A 
ATOM      5  C   UNL     1       9.341   8.316 -25.884  0.00  0.00    +0.000 A 
ATOM      6  C   UNL     1       8.029   9.038 -23.995  0.00  0.00    +0.000 A 
ATOM      7  C   UNL     1       8.955   9.320 -24.996  0.00  0.00    +0.000 A 
ENDROOT
BRANCH   2   8
ATOM      8  N   UNL     1       7.397   5.446 -24.536  0.00  0.00    +0.000 N 
ATOM      9  C   UNL     1       8.126   4.297 -24.278  0.00  0.00    +0.000 C 
ATOM     10  O   UNL     1       9.346   4.215 -24.204  0.00  0.00    +0.000 OA
ATOM     11  H   UNL     1       6.390   5.356 -24.635  0.00  0.00    +0.000 HD
BRANCH   9  12
ATOM     12  C   UNL     1       7.299   3.053 -24.137  0.00  0.00    +0.000 C 
ATOM     13  C   UNL     1       7.215   2.160 -25.287  0.00  0.00    +0.000 C 
ATOM     14  C   UNL     1       6.049   2.989 -24.885  0.00  0.00    +0.000 C 
BRANCH  12  15
ATOM     15  C   UNL     1       7.345   2.420 -22.778  0.00  0.00    +0.000 C 
ATOM     16  O   UNL     1       6.660   1.425 -22.567  0.00  0.00    +0.000 OA
ATOM     17  N   UNL     1       8.223   3.015 -21.889  0.00  0.00    +0.000 N 
ATOM     18  H   UNL     1       8.771   3.804 -22.219  0.00  0.00    +0.000 HD
BRANCH  17  19
ATOM     19  C   UNL     1       8.453   2.598 -20.565  0.00  0.00    +0.000 A 
ATOM     20  C   UNL     1       9.737   2.159 -20.236  0.00  0.00    +0.000 A 
ATOM     21  C   UNL     1      10.027   1.732 -18.942  0.00  0.00    +0.000 A 
ATOM     22  C   UNL     1       9.024   1.750 -17.980  0.00  0.00    +0.000 A 
ATOM     23  F   UNL     1       9.301   1.343 -16.734  0.00  0.00    +0.000 F 
ATOM     24  C   UNL     1       7.741   2.187 -18.288  0.00  0.00    +0.000 A 
ATOM     25  C   UNL     1       7.459   2.610 -19.584  0.00  0.00    +0.000 A 
ENDBRANCH  17  19
ENDBRANCH  12  15
ENDBRANCH   9  12
ENDBRANCH   2   8
BRANCH   7  26
ATOM     26  O   UNL     1       9.360  10.626 -25.125  0.00  0.00    +0.000 OA
BRANCH  26  27
ATOM     27  C   UNL     1      10.487  11.009 -24.425  0.00  0.00    +0.000 A 
ATOM     28  C   UNL     1      10.314  11.790 -23.271  0.00  0.00    +0.000 A 
ATOM     29  C   UNL     1      11.460  12.129 -22.531  0.00  0.00    +0.000 A 
ATOM     30  C   UNL     1       9.053  12.239 -22.846  0.00  0.00    +0.000 A 
ATOM     31  N   UNL     1      12.689  11.723 -22.886  0.00  0.00    +0.000 NA
ATOM     32  C   UNL     1      11.296  12.906 -21.394  0.00  0.00    +0.000 A 
ATOM     33  C   UNL     1      12.812  10.962 -23.996  0.00  0.00    +0.000 A 
ATOM     34  C   UNL     1      11.754  10.570 -24.790  0.00  0.00    +0.000 A 
ATOM     35  C   UNL     1      10.041  13.355 -20.964  0.00  0.00    +0.000 A 
ATOM     36  C   UNL     1       8.904  13.020 -21.699  0.00  0.00    +0.000 A 
BRANCH  36  37
ATOM     37  O   UNL     1       7.697  13.492 -21.240  0.00  0.00    +0.000 OA
ATOM     38  C   UNL     1       6.675  12.538 -21.128  0.00  0.00    +0.000 C 
ENDBRANCH  36  37
BRANCH  35  39
ATOM     39  O   UNL     1       9.862  14.130 -19.842  0.00  0.00    +0.000 OA
BRANCH  39  40
ATOM     40  C   UNL     1      10.389  13.634 -18.725  0.00  0.00    +0.000 C 
ATOM     41  C   UNL     1      11.012  13.064 -17.447  0.00  0.00    +0.000 C 
BRANCH  41  42
ATOM     42  C   UNL     1      11.640  12.499 -16.168  0.00  0.00    +0.000 C 
BRANCH  42  43
ATOM     43  N   UNL     1      12.236  11.962 -14.953  0.00  0.00    +0.000 N 
ATOM     44  C   UNL     1      11.269  10.961 -14.405  0.00  0.00    +0.000 C 
ATOM     45  C   UNL     1      11.400   9.405 -14.340  0.00  0.00    +0.000 C 
ATOM     46  O   UNL     1      12.339   8.514 -14.727  0.00  0.00    +0.000 OA
ATOM     47  C   UNL     1      13.209   9.415 -15.226  0.00  0.00    +0.000 C 
ATOM     48  C   UNL     1      13.263  10.965 -15.380  0.00  0.00    +0.000 C 
ENDBRANCH  42  43
ENDBRANCH  41  42
ENDBRANCH  39  40
ENDBRANCH  35  39
ENDBRANCH  26  27
ENDBRANCH   7  26
TORSDOF 11
ENDMDL
MODEL 8
REMARK VINA RESULT:      -6.3      4.048     15.308
REMARK  Name = Foretinib.pdbqt.pdb
REMARK  11 active torsions:
REMARK  status: ('A' for Active; 'I' for Inactive)
REMARK    1  A    between atoms: C_2  and  N_31
REMARK    2  A    between atoms: C_7  and  O_8
REMARK    3  A    between atoms: O_8  and  C_9
REMARK    4  A    between atoms: C_17  and  O_19
REMARK    5  A    between atoms: C_18  and  O_29
REMARK    6  A    between atoms: O_19  and  C_20
REMARK    7  A    between atoms: C_21  and  C_22
REMARK    8  A    between atoms: C_22  and  N_23
REMARK    9  A    between atoms: C_32  and  C_35
REMARK   10  A    between atoms: C_35  and  C_38
REMARK   11  A    between atoms: N_40  and  C_42
REMARK                            x       y       z     vdW  Elec       q    Type
REMARK                         _______ _______ _______ _____ _____    ______ ____
ROOT
ATOM      1  F   UNL     1       2.885  -1.152 -21.469  0.00  0.00    +0.000 F 
ATOM      2  C   UNL     1       5.683  -3.462 -21.474  0.00  0.00    +0.000 A 
ATOM      3  C   UNL     1       4.950  -2.280 -21.367  0.00  0.00    +0.000 A 
ATOM      4  C   UNL     1       5.023  -4.659 -21.762  0.00  0.00    +0.000 A 
ATOM      5  C   UNL     1       3.570  -2.303 -21.542  0.00  0.00    +0.000 A 
ATOM      6  C   UNL     1       3.641  -4.680 -21.939  0.00  0.00    +0.000 A 
ATOM      7  C   UNL     1       2.909  -3.503 -21.804  0.00  0.00    +0.000 A 
ENDROOT
BRANCH   2   8
ATOM      8  N   UNL     1       7.080  -3.510 -21.310  0.00  0.00    +0.000 N 
ATOM      9  C   UNL     1       7.744  -4.081 -20.237  0.00  0.00    +0.000 C 
ATOM     10  O   UNL     1       7.224  -4.604 -19.260  0.00  0.00    +0.000 OA
ATOM     11  H   UNL     1       7.640  -3.051 -22.023  0.00  0.00    +0.000 HD
BRANCH   9  12
ATOM     12  C   UNL     1       9.239  -3.973 -20.301  0.00  0.00    +0.000 C 
ATOM     13  C   UNL     1       9.960  -4.972 -21.083  0.00  0.00    +0.000 C 
ATOM     14  C   UNL     1      10.017  -4.987 -19.598  0.00  0.00    +0.000 C 
BRANCH  12  15
ATOM     15  C   UNL     1       9.767  -2.570 -20.328  0.00  0.00    +0.000 C 
ATOM     16  O   UNL     1      10.034  -2.060 -21.410  0.00  0.00    +0.000 OA
ATOM     17  N   UNL     1       9.852  -1.957 -19.089  0.00  0.00    +0.000 N 
ATOM     18  H   UNL     1       9.542  -2.482 -18.277  0.00  0.00    +0.000 HD
BRANCH  17  19
ATOM     19  C   UNL     1      10.301  -0.644 -18.857  0.00  0.00    +0.000 A 
ATOM     20  C   UNL     1       9.481   0.406 -19.275  0.00  0.00    +0.000 A 
ATOM     21  C   UNL     1       9.870   1.728 -19.073  0.00  0.00    +0.000 A 
ATOM     22  C   UNL     1      11.084   1.992 -18.449  0.00  0.00    +0.000 A 
ATOM     23  F   UNL     1      11.460   3.262 -18.252  0.00  0.00    +0.000 F 
ATOM     24  C   UNL     1      11.912   0.959 -18.024  0.00  0.00    +0.000 A 
ATOM     25  C   UNL     1      11.516  -0.359 -18.231  0.00  0.00    +0.000 A 
ENDBRANCH  17  19
ENDBRANCH  12  15
ENDBRANCH   9  12
ENDBRANCH   2   8
BRANCH   7  26
ATOM     26  O   UNL     1       1.560  -3.572 -22.053  0.00  0.00    +0.000 OA
BRANCH  26  27
ATOM     27  C   UNL     1       0.733  -3.836 -20.978  0.00  0.00    +0.000 A 
ATOM     28  C   UNL     1      -0.263  -2.898 -20.665  0.00  0.00    +0.000 A 
ATOM     29  C   UNL     1      -1.137  -3.200 -19.606  0.00  0.00    +0.000 A 
ATOM     30  C   UNL     1      -0.404  -1.688 -21.361  0.00  0.00    +0.000 A 
ATOM     31  N   UNL     1      -1.053  -4.344 -18.909  0.00  0.00    +0.000 NA
ATOM     32  C   UNL     1      -2.119  -2.274 -19.287  0.00  0.00    +0.000 A 
ATOM     33  C   UNL     1      -0.088  -5.227 -19.250  0.00  0.00    +0.000 A 
ATOM     34  C   UNL     1       0.817  -5.032 -20.273  0.00  0.00    +0.000 A 
ATOM     35  C   UNL     1      -2.266  -1.064 -19.979  0.00  0.00    +0.000 A 
ATOM     36  C   UNL     1      -1.398  -0.765 -21.029  0.00  0.00    +0.000 A 
BRANCH  36  37
ATOM     37  O   UNL     1      -1.579   0.437 -21.671  0.00  0.00    +0.000 OA
ATOM     38  C   UNL     1      -0.429   1.224 -21.821  0.00  0.00    +0.000 C 
ENDBRANCH  36  37
BRANCH  35  39
ATOM     39  O   UNL     1      -3.231  -0.133 -19.672  0.00  0.00    +0.000 OA
BRANCH  39  40
ATOM     40  C   UNL     1      -4.482  -0.585 -19.715  0.00  0.00    +0.000 C 
ATOM     41  C   UNL     1      -5.917  -1.120 -19.769  0.00  0.00    +0.000 C 
BRANCH  41  42
ATOM     42  C   UNL     1      -7.350  -1.661 -19.820  0.00  0.00    +0.000 C 
BRANCH  42  43
ATOM     43  N   UNL     1      -8.711  -2.176 -19.869  0.00  0.00    +0.000 N 
ATOM     44  C   UNL     1      -9.040  -2.657 -18.492  0.00  0.00    +0.000 C 
ATOM     45  C   UNL     1     -10.036  -2.049 -17.453  0.00  0.00    +0.000 C 
ATOM     46  O   UNL     1     -10.859  -0.978 -17.440  0.00  0.00    +0.000 OA
ATOM     47  C   UNL     1     -10.560  -0.540 -18.679  0.00  0.00    +0.000 C 
ATOM     48  C   UNL     1      -9.621  -0.992 -19.840  0.00  0.00    +0.000 C 
ENDBRANCH  42  43
ENDBRANCH  41  42
ENDBRANCH  39  40
ENDBRANCH  35  39
ENDBRANCH  26  27
ENDBRANCH   7  26
TORSDOF 11
ENDMDL
MODEL 9
REMARK VINA RESULT:      -6.2     14.108     18.416
REMARK  Name = Foretinib.pdbqt.pdb
REMARK  11 active torsions:
REMARK  status: ('A' for Active; 'I' for Inactive)
REMARK    1  A    between atoms: C_2  and  N_31
REMARK    2  A    between atoms: C_7  and  O_8
REMARK    3  A    between atoms: O_8  and  C_9
REMARK    4  A    between atoms: C_17  and  O_19
REMARK    5  A    between atoms: C_18  and  O_29
REMARK    6  A    between atoms: O_19  and  C_20
REMARK    7  A    between atoms: C_21  and  C_22
REMARK    8  A    between atoms: C_22  and  N_23
REMARK    9  A    between atoms: C_32  and  C_35
REMARK   10  A    between atoms: C_35  and  C_38
REMARK   11  A    between atoms: N_40  and  C_42
REMARK                            x       y       z     vdW  Elec       q    Type
REMARK                         _______ _______ _______ _____ _____    ______ ____
ROOT
ATOM      1  F   UNL     1     -12.267 -14.834 -16.499  0.00  0.00    +0.000 F 
ATOM      2  C   UNL     1     -11.417 -13.298 -19.674  0.00  0.00    +0.000 A 
ATOM      3  C   UNL     1     -11.928 -14.201 -18.742  0.00  0.00    +0.000 A 
ATOM      4  C   UNL     1     -10.776 -12.138 -19.231  0.00  0.00    +0.000 A 
ATOM      5  C   UNL     1     -11.800 -13.938 -17.381  0.00  0.00    +0.000 A 
ATOM      6  C   UNL     1     -10.647 -11.877 -17.868  0.00  0.00    +0.000 A 
ATOM      7  C   UNL     1     -11.182 -12.767 -16.941  0.00  0.00    +0.000 A 
ENDROOT
BRANCH   2   8
ATOM      8  N   UNL     1     -11.510 -13.501 -21.064  0.00  0.00    +0.000 N 
ATOM      9  C   UNL     1     -10.484 -13.943 -21.882  0.00  0.00    +0.000 C 
ATOM     10  O   UNL     1      -9.338 -14.197 -21.532  0.00  0.00    +0.000 OA
ATOM     11  H   UNL     1     -12.396 -13.264 -21.501  0.00  0.00    +0.000 HD
BRANCH   9  12
ATOM     12  C   UNL     1     -10.847 -14.050 -23.334  0.00  0.00    +0.000 C 
ATOM     13  C   UNL     1     -12.097 -14.721 -23.673  0.00  0.00    +0.000 C 
ATOM     14  C   UNL     1     -10.790 -15.374 -23.945  0.00  0.00    +0.000 C 
BRANCH  12  15
ATOM     15  C   UNL     1     -10.455 -12.868 -24.168  0.00  0.00    +0.000 C 
ATOM     16  O   UNL     1     -11.335 -12.204 -24.704  0.00  0.00    +0.000 OA
ATOM     17  N   UNL     1      -9.095 -12.610 -24.207  0.00  0.00    +0.000 N 
ATOM     18  H   UNL     1      -8.481 -13.213 -23.668  0.00  0.00    +0.000 HD
BRANCH  17  19
ATOM     19  C   UNL     1      -8.484 -11.554 -24.907  0.00  0.00    +0.000 A 
ATOM     20  C   UNL     1      -8.288 -11.712 -26.281  0.00  0.00    +0.000 A 
ATOM     21  C   UNL     1      -7.688 -10.702 -27.029  0.00  0.00    +0.000 A 
ATOM     22  C   UNL     1      -7.288  -9.532 -26.394  0.00  0.00    +0.000 A 
ATOM     23  F   UNL     1      -6.713  -8.557 -27.111  0.00  0.00    +0.000 F 
ATOM     24  C   UNL     1      -7.477  -9.355 -25.028  0.00  0.00    +0.000 A 
ATOM     25  C   UNL     1      -8.077 -10.371 -24.287  0.00  0.00    +0.000 A 
ENDBRANCH  17  19
ENDBRANCH  12  15
ENDBRANCH   9  12
ENDBRANCH   2   8
BRANCH   7  26
ATOM     26  O   UNL     1     -10.969 -12.492 -15.612  0.00  0.00    +0.000 OA
BRANCH  26  27
ATOM     27  C   UNL     1     -12.041 -12.007 -14.889  0.00  0.00    +0.000 A 
ATOM     28  C   UNL     1     -12.200 -12.451 -13.567  0.00  0.00    +0.000 A 
ATOM     29  C   UNL     1     -13.260 -11.910 -12.817  0.00  0.00    +0.000 A 
ATOM     30  C   UNL     1     -11.353 -13.407 -12.985  0.00  0.00    +0.000 A 
ATOM     31  N   UNL     1     -14.098 -10.990 -13.319  0.00  0.00    +0.000 NA
ATOM     32  C   UNL     1     -13.427 -12.351 -11.513  0.00  0.00    +0.000 A 
ATOM     33  C   UNL     1     -13.903 -10.579 -14.592  0.00  0.00    +0.000 A 
ATOM     34  C   UNL     1     -12.893 -11.041 -15.411  0.00  0.00    +0.000 A 
ATOM     35  C   UNL     1     -12.584 -13.303 -10.926  0.00  0.00    +0.000 A 
ATOM     36  C   UNL     1     -11.533 -13.840 -11.671  0.00  0.00    +0.000 A 
BRANCH  36  37
ATOM     37  O   UNL     1     -10.738 -14.776 -11.052  0.00  0.00    +0.000 OA
ATOM     38  C   UNL     1     -10.827 -16.079 -11.561  0.00  0.00    +0.000 C 
ENDBRANCH  36  37
BRANCH  35  39
ATOM     39  O   UNL     1     -12.739 -13.754  -9.636  0.00  0.00    +0.000 OA
BRANCH  39  40
ATOM     40  C   UNL     1     -12.803 -12.800  -8.710  0.00  0.00    +0.000 C 
ATOM     41  C   UNL     1     -12.860 -11.702  -7.643  0.00  0.00    +0.000 C 
BRANCH  41  42
ATOM     42  C   UNL     1     -12.911 -10.600  -6.579  0.00  0.00    +0.000 C 
BRANCH  42  43
ATOM     43  N   UNL     1     -12.959  -9.555  -5.566  0.00  0.00    +0.000 N 
ATOM     44  C   UNL     1     -11.918  -8.548  -5.937  0.00  0.00    +0.000 C 
ATOM     45  C   UNL     1     -12.109  -7.091  -6.470  0.00  0.00    +0.000 C 
ATOM     46  O   UNL     1     -13.178  -6.318  -6.759  0.00  0.00    +0.000 OA
ATOM     47  C   UNL     1     -14.118  -7.227  -6.431  0.00  0.00    +0.000 C 
ATOM     48  C   UNL     1     -14.133  -8.691  -5.895  0.00  0.00    +0.000 C 
ENDBRANCH  42  43
ENDBRANCH  41  42
ENDBRANCH  39  40
ENDBRANCH  35  39
ENDBRANCH  26  27
ENDBRANCH   7  26
TORSDOF 11
ENDMDL
