MODEL 1
REMARK VINA RESULT:      -4.7      0.000      0.000
REMARK  Name = 
REMARK  7 active torsions:
REMARK  status: ('A' for Active; 'I' for Inactive)
REMARK    1  A    between atoms: S_1  and  O_3
REMARK    2  A    between atoms: S_1  and  O_6
REMARK    3  A    between atoms: O_3  and  C_9
REMARK    4  A    between atoms: O_4  and  C_10
REMARK    5  A    between atoms: O_5  and  C_11
REMARK    6  A    between atoms: C_12  and  C_14
REMARK    7  A    between atoms: C_13  and  C_15
REMARK                            x       y       z     vdW  Elec       q    Type
REMARK                         _______ _______ _______ _____ _____    ______ ____
ROOT
ATOM      1  O   UNL     1     -12.764   7.190  -9.478  0.00  0.00    +0.000 OA
ATOM      2  C   UNL     1     -11.341   7.429  -7.495  0.00  0.00    +0.000 C 
ATOM      3  C   UNL     1     -10.567   6.172  -7.919  0.00  0.00    +0.000 C 
ATOM      4  C   UNL     1     -11.440   5.252  -8.784  0.00  0.00    +0.000 C 
ATOM      5  C   UNL     1     -11.936   8.103  -8.745  0.00  0.00    +0.000 C 
ATOM      6  C   UNL     1     -12.047   6.041  -9.951  0.00  0.00    +0.000 C 
ATOM      7  C   UNL     1     -12.799   9.307  -8.388  0.00  0.00    +0.000 C 
ATOM      8  C   UNL     1     -13.025   5.189 -10.753  0.00  0.00    +0.000 C 
ENDROOT
BRANCH   3   9
ATOM      9  O   UNL     1     -10.090   5.404  -6.804  0.00  0.00    +0.000 OA
ATOM     10  H   UNL     1      -9.818   4.517  -7.119  0.00  0.00    +0.000 HD
ENDBRANCH   3   9
BRANCH   4  11
ATOM     11  O   UNL     1     -10.632   4.170  -9.261  0.00  0.00    +0.000 OA
ATOM     12  H   UNL     1     -10.985   3.968 -10.152  0.00  0.00    +0.000 HD
ENDBRANCH   4  11
BRANCH   2  13
ATOM     13  O   UNL     1     -12.394   7.062  -6.601  0.00  0.00    +0.000 OA
BRANCH  13  14
ATOM     14  S   UNL     1     -12.339   7.606  -5.076  0.00  0.00    +0.000 S 
ATOM     15  O   UNL     1     -11.722   8.912  -5.083  0.00  0.00    +0.000 OA
ATOM     16  O   UNL     1     -13.613   7.351  -4.441  0.00  0.00    +0.000 OA
BRANCH  14  17
ATOM     17  O   UNL     1     -11.252   6.622  -4.415  0.00  0.00    +0.000 OA
ATOM     18  H   UNL     1     -11.599   5.709  -4.506  0.00  0.00    +0.000 HD
ENDBRANCH  14  17
ENDBRANCH  13  14
ENDBRANCH   2  13
TORSDOF 5
ENDMDL
MODEL 2
REMARK VINA RESULT:      -4.6      2.868      4.842
REMARK  Name = 
REMARK  7 active torsions:
REMARK  status: ('A' for Active; 'I' for Inactive)
REMARK    1  A    between atoms: S_1  and  O_3
REMARK    2  A    between atoms: S_1  and  O_6
REMARK    3  A    between atoms: O_3  and  C_9
REMARK    4  A    between atoms: O_4  and  C_10
REMARK    5  A    between atoms: O_5  and  C_11
REMARK    6  A    between atoms: C_12  and  C_14
REMARK    7  A    between atoms: C_13  and  C_15
REMARK                            x       y       z     vdW  Elec       q    Type
REMARK                         _______ _______ _______ _____ _____    ______ ____
ROOT
ATOM      1  O   UNL     1     -11.019   6.415  -9.313  0.00  0.00    +0.000 OA
ATOM      2  C   UNL     1     -13.437   6.175  -9.641  0.00  0.00    +0.000 C 
ATOM      3  C   UNL     1     -13.676   7.179  -8.504  0.00  0.00    +0.000 C 
ATOM      4  C   UNL     1     -12.497   7.189  -7.521  0.00  0.00    +0.000 C 
ATOM      5  C   UNL     1     -12.069   6.458 -10.288  0.00  0.00    +0.000 C 
ATOM      6  C   UNL     1     -11.177   7.395  -8.277  0.00  0.00    +0.000 C 
ATOM      7  C   UNL     1     -11.725   5.436 -11.366  0.00  0.00    +0.000 C 
ATOM      8  C   UNL     1      -9.975   7.277  -7.347  0.00  0.00    +0.000 C 
ENDROOT
BRANCH   3   9
ATOM      9  O   UNL     1     -14.869   6.906  -7.755  0.00  0.00    +0.000 OA
ATOM     10  H   UNL     1     -15.650   7.114  -8.309  0.00  0.00    +0.000 HD
ENDBRANCH   3   9
BRANCH   4  11
ATOM     11  O   UNL     1     -12.707   8.232  -6.564  0.00  0.00    +0.000 OA
ATOM     12  H   UNL     1     -13.667   8.422  -6.606  0.00  0.00    +0.000 HD
ENDBRANCH   4  11
BRANCH   2  13
ATOM     13  O   UNL     1     -13.454   4.847  -9.116  0.00  0.00    +0.000 OA
BRANCH  13  14
ATOM     14  S   UNL     1     -14.694   3.877  -9.503  0.00  0.00    +0.000 S 
ATOM     15  O   UNL     1     -15.889   4.403  -8.886  0.00  0.00    +0.000 OA
ATOM     16  O   UNL     1     -14.620   3.561 -10.913  0.00  0.00    +0.000 OA
BRANCH  14  17
ATOM     17  O   UNL     1     -14.337   2.543  -8.679  0.00  0.00    +0.000 OA
ATOM     18  H   UNL     1     -14.333   2.785  -7.729  0.00  0.00    +0.000 HD
ENDBRANCH  14  17
ENDBRANCH  13  14
ENDBRANCH   2  13
TORSDOF 5
ENDMDL
MODEL 3
REMARK VINA RESULT:      -4.5     25.477     27.079
REMARK  Name = 
REMARK  7 active torsions:
REMARK  status: ('A' for Active; 'I' for Inactive)
REMARK    1  A    between atoms: S_1  and  O_3
REMARK    2  A    between atoms: S_1  and  O_6
REMARK    3  A    between atoms: O_3  and  C_9
REMARK    4  A    between atoms: O_4  and  C_10
REMARK    5  A    between atoms: O_5  and  C_11
REMARK    6  A    between atoms: C_12  and  C_14
REMARK    7  A    between atoms: C_13  and  C_15
REMARK                            x       y       z     vdW  Elec       q    Type
REMARK                         _______ _______ _______ _____ _____    ______ ____
ROOT
ATOM      1  O   UNL     1      12.579  -0.398 -20.394  0.00  0.00    +0.000 OA
ATOM      2  C   UNL     1      11.061   0.571 -18.730  0.00  0.00    +0.000 C 
ATOM      3  C   UNL     1      11.292   1.957 -19.349  0.00  0.00    +0.000 C 
ATOM      4  C   UNL     1      12.653   2.026 -20.057  0.00  0.00    +0.000 C 
ATOM      5  C   UNL     1      11.275  -0.508 -19.808  0.00  0.00    +0.000 C 
ATOM      6  C   UNL     1      12.795   0.861 -21.047  0.00  0.00    +0.000 C 
ATOM      7  C   UNL     1      11.154  -1.916 -19.238  0.00  0.00    +0.000 C 
ATOM      8  C   UNL     1      14.186   0.823 -21.668  0.00  0.00    +0.000 C 
ENDROOT
BRANCH   3   9
ATOM      9  O   UNL     1      11.246   3.018 -18.384  0.00  0.00    +0.000 OA
ATOM     10  H   UNL     1      11.736   3.791 -18.734  0.00  0.00    +0.000 HD
ENDBRANCH   3   9
BRANCH   4  11
ATOM     11  O   UNL     1      12.757   3.285 -20.728  0.00  0.00    +0.000 OA
ATOM     12  H   UNL     1      12.960   3.931 -20.021  0.00  0.00    +0.000 HD
ENDBRANCH   4  11
BRANCH   2  13
ATOM     13  O   UNL     1      11.984   0.368 -17.658  0.00  0.00    +0.000 OA
BRANCH  13  14
ATOM     14  S   UNL     1      11.483   0.648 -16.143  0.00  0.00    +0.000 S 
ATOM     15  O   UNL     1      12.502   1.414 -15.464  0.00  0.00    +0.000 OA
ATOM     16  O   UNL     1      10.095   1.055 -16.176  0.00  0.00    +0.000 OA
BRANCH  14  17
ATOM     17  O   UNL     1      11.550  -0.824 -15.498  0.00  0.00    +0.000 OA
ATOM     18  H   UNL     1      11.521  -1.464 -16.239  0.00  0.00    +0.000 HD
ENDBRANCH  14  17
ENDBRANCH  13  14
ENDBRANCH   2  13
TORSDOF 5
ENDMDL
MODEL 4
REMARK VINA RESULT:      -4.5      2.966      4.565
REMARK  Name = 
REMARK  7 active torsions:
REMARK  status: ('A' for Active; 'I' for Inactive)
REMARK    1  A    between atoms: S_1  and  O_3
REMARK    2  A    between atoms: S_1  and  O_6
REMARK    3  A    between atoms: O_3  and  C_9
REMARK    4  A    between atoms: O_4  and  C_10
REMARK    5  A    between atoms: O_5  and  C_11
REMARK    6  A    between atoms: C_12  and  C_14
REMARK    7  A    between atoms: C_13  and  C_15
REMARK                            x       y       z     vdW  Elec       q    Type
REMARK                         _______ _______ _______ _____ _____    ______ ____
ROOT
ATOM      1  O   UNL     1     -14.222   8.930  -9.045  0.00  0.00    +0.000 OA
ATOM      2  C   UNL     1     -12.167   7.933  -9.936  0.00  0.00    +0.000 C 
ATOM      3  C   UNL     1     -12.694   8.157 -11.360  0.00  0.00    +0.000 C 
ATOM      4  C   UNL     1     -14.229   8.197 -11.381  0.00  0.00    +0.000 C 
ATOM      5  C   UNL     1     -12.791   8.980  -8.995  0.00  0.00    +0.000 C 
ATOM      6  C   UNL     1     -14.746   9.211 -10.351  0.00  0.00    +0.000 C 
ATOM      7  C   UNL     1     -12.383   8.758  -7.543  0.00  0.00    +0.000 C 
ATOM      8  C   UNL     1     -16.267   9.179 -10.252  0.00  0.00    +0.000 C 
ENDROOT
BRANCH   3   9
ATOM      9  O   UNL     1     -12.270   7.141 -12.282  0.00  0.00    +0.000 OA
ATOM     10  H   UNL     1     -12.653   6.281 -12.010  0.00  0.00    +0.000 HD
ENDBRANCH   3   9
BRANCH   4  11
ATOM     11  O   UNL     1     -14.660   8.542 -12.701  0.00  0.00    +0.000 OA
ATOM     12  H   UNL     1     -13.869   8.418 -13.265  0.00  0.00    +0.000 HD
ENDBRANCH   4  11
BRANCH   2  13
ATOM     13  O   UNL     1     -12.522   6.621  -9.496  0.00  0.00    +0.000 OA
BRANCH  13  14
ATOM     14  S   UNL     1     -11.338   5.548  -9.229  0.00  0.00    +0.000 S 
ATOM     15  O   UNL     1     -10.381   6.144  -8.327  0.00  0.00    +0.000 OA
ATOM     16  O   UNL     1     -11.928   4.248  -8.989  0.00  0.00    +0.000 OA
BRANCH  14  17
ATOM     17  O   UNL     1     -10.608   5.501 -10.662  0.00  0.00    +0.000 OA
ATOM     18  H   UNL     1     -10.150   4.636 -10.722  0.00  0.00    +0.000 HD
ENDBRANCH  14  17
ENDBRANCH  13  14
ENDBRANCH   2  13
TORSDOF 5
ENDMDL
MODEL 5
REMARK VINA RESULT:      -4.5      2.867      4.111
REMARK  Name = 
REMARK  7 active torsions:
REMARK  status: ('A' for Active; 'I' for Inactive)
REMARK    1  A    between atoms: S_1  and  O_3
REMARK    2  A    between atoms: S_1  and  O_6
REMARK    3  A    between atoms: O_3  and  C_9
REMARK    4  A    between atoms: O_4  and  C_10
REMARK    5  A    between atoms: O_5  and  C_11
REMARK    6  A    between atoms: C_12  and  C_14
REMARK    7  A    between atoms: C_13  and  C_15
REMARK                            x       y       z     vdW  Elec       q    Type
REMARK                         _______ _______ _______ _____ _____    ______ ____
ROOT
ATOM      1  O   UNL     1     -14.268   6.364  -9.277  0.00  0.00    +0.000 OA
ATOM      2  C   UNL     1     -11.860   6.127  -9.674  0.00  0.00    +0.000 C 
ATOM      3  C   UNL     1     -12.139   5.968 -11.176  0.00  0.00    +0.000 C 
ATOM      4  C   UNL     1     -13.553   5.420 -11.420  0.00  0.00    +0.000 C 
ATOM      5  C   UNL     1     -12.987   6.959  -9.035  0.00  0.00    +0.000 C 
ATOM      6  C   UNL     1     -14.588   6.272 -10.673  0.00  0.00    +0.000 C 
ATOM      7  C   UNL     1     -12.822   7.076  -7.524  0.00  0.00    +0.000 C 
ATOM      8  C   UNL     1     -15.987   5.677 -10.785  0.00  0.00    +0.000 C 
ENDROOT
BRANCH   3   9
ATOM      9  O   UNL     1     -11.210   5.091 -11.830  0.00  0.00    +0.000 OA
ATOM     10  H   UNL     1     -10.602   5.624 -12.384  0.00  0.00    +0.000 HD
ENDBRANCH   3   9
BRANCH   4  11
ATOM     11  O   UNL     1     -13.808   5.421 -12.828  0.00  0.00    +0.000 OA
ATOM     12  H   UNL     1     -13.538   6.312 -13.131  0.00  0.00    +0.000 HD
ENDBRANCH   4  11
BRANCH   2  13
ATOM     13  O   UNL     1     -11.808   4.838  -9.060  0.00  0.00    +0.000 OA
BRANCH  13  14
ATOM     14  S   UNL     1     -10.373   4.276  -8.560  0.00  0.00    +0.000 S 
ATOM     15  O   UNL     1      -9.613   3.878  -9.721  0.00  0.00    +0.000 OA
ATOM     16  O   UNL     1      -9.845   5.171  -7.553  0.00  0.00    +0.000 OA
BRANCH  14  17
ATOM     17  O   UNL     1     -10.793   2.906  -7.830  0.00  0.00    +0.000 OA
ATOM     18  H   UNL     1     -11.389   2.426  -8.442  0.00  0.00    +0.000 HD
ENDBRANCH  14  17
ENDBRANCH  13  14
ENDBRANCH   2  13
TORSDOF 5
ENDMDL
MODEL 6
REMARK VINA RESULT:      -4.4     25.716     26.762
REMARK  Name = 
REMARK  7 active torsions:
REMARK  status: ('A' for Active; 'I' for Inactive)
REMARK    1  A    between atoms: S_1  and  O_3
REMARK    2  A    between atoms: S_1  and  O_6
REMARK    3  A    between atoms: O_3  and  C_9
REMARK    4  A    between atoms: O_4  and  C_10
REMARK    5  A    between atoms: O_5  and  C_11
REMARK    6  A    between atoms: C_12  and  C_14
REMARK    7  A    between atoms: C_13  and  C_15
REMARK                            x       y       z     vdW  Elec       q    Type
REMARK                         _______ _______ _______ _____ _____    ______ ____
ROOT
ATOM      1  O   UNL     1      10.362   0.884 -18.822  0.00  0.00    +0.000 OA
ATOM      2  C   UNL     1      10.724  -1.139 -17.486  0.00  0.00    +0.000 C 
ATOM      3  C   UNL     1      11.237  -0.266 -16.331  0.00  0.00    +0.000 C 
ATOM      4  C   UNL     1      11.806   1.061 -16.853  0.00  0.00    +0.000 C 
ATOM      5  C   UNL     1       9.745  -0.319 -18.345  0.00  0.00    +0.000 C 
ATOM      6  C   UNL     1      10.783   1.755 -17.762  0.00  0.00    +0.000 C 
ATOM      7  C   UNL     1       9.269  -1.096 -19.567  0.00  0.00    +0.000 C 
ATOM      8  C   UNL     1      11.366   3.009 -18.404  0.00  0.00    +0.000 C 
ENDROOT
BRANCH   3   9
ATOM      9  O   UNL     1      12.260  -0.906 -15.554  0.00  0.00    +0.000 OA
ATOM     10  H   UNL     1      13.091  -0.925 -16.072  0.00  0.00    +0.000 HD
ENDBRANCH   3   9
BRANCH   4  11
ATOM     11  O   UNL     1      12.141   1.887 -15.734  0.00  0.00    +0.000 OA
ATOM     12  H   UNL     1      12.991   1.530 -15.403  0.00  0.00    +0.000 HD
ENDBRANCH   4  11
BRANCH   2  13
ATOM     13  O   UNL     1      11.827  -1.564 -18.288  0.00  0.00    +0.000 OA
BRANCH  13  14
ATOM     14  S   UNL     1      12.207  -3.139 -18.310  0.00  0.00    +0.000 S 
ATOM     15  O   UNL     1      12.447  -3.528 -19.680  0.00  0.00    +0.000 OA
ATOM     16  O   UNL     1      13.151  -3.409 -17.248  0.00  0.00    +0.000 OA
BRANCH  14  17
ATOM     17  O   UNL     1      10.806  -3.820 -17.909  0.00  0.00    +0.000 OA
ATOM     18  H   UNL     1      10.811  -3.935 -16.936  0.00  0.00    +0.000 HD
ENDBRANCH  14  17
ENDBRANCH  13  14
ENDBRANCH   2  13
TORSDOF 5
ENDMDL
MODEL 7
REMARK VINA RESULT:      -4.4     10.124     11.690
REMARK  Name = 
REMARK  7 active torsions:
REMARK  status: ('A' for Active; 'I' for Inactive)
REMARK    1  A    between atoms: S_1  and  O_3
REMARK    2  A    between atoms: S_1  and  O_6
REMARK    3  A    between atoms: O_3  and  C_9
REMARK    4  A    between atoms: O_4  and  C_10
REMARK    5  A    between atoms: O_5  and  C_11
REMARK    6  A    between atoms: C_12  and  C_14
REMARK    7  A    between atoms: C_13  and  C_15
REMARK                            x       y       z     vdW  Elec       q    Type
REMARK                         _______ _______ _______ _____ _____    ______ ____
ROOT
ATOM      1  O   UNL     1     -12.811  -1.701  -0.749  0.00  0.00    +0.000 OA
ATOM      2  C   UNL     1     -10.578  -2.671  -1.042  0.00  0.00    +0.000 C 
ATOM      3  C   UNL     1      -9.966  -1.418  -0.401  0.00  0.00    +0.000 C 
ATOM      4  C   UNL     1     -10.883  -0.200  -0.584  0.00  0.00    +0.000 C 
ATOM      5  C   UNL     1     -12.010  -2.865  -0.510  0.00  0.00    +0.000 C 
ATOM      6  C   UNL     1     -12.302  -0.528  -0.098  0.00  0.00    +0.000 C 
ATOM      7  C   UNL     1     -12.713  -4.041  -1.178  0.00  0.00    +0.000 C 
ATOM      8  C   UNL     1     -13.270   0.614  -0.388  0.00  0.00    +0.000 C 
ENDROOT
BRANCH   3   9
ATOM      9  O   UNL     1      -8.679  -1.082  -0.941  0.00  0.00    +0.000 OA
ATOM     10  H   UNL     1      -8.077  -1.847  -0.834  0.00  0.00    +0.000 HD
ENDBRANCH   3   9
BRANCH   4  11
ATOM     11  O   UNL     1     -10.334   0.901   0.146  0.00  0.00    +0.000 OA
ATOM     12  H   UNL     1      -9.401   0.653   0.311  0.00  0.00    +0.000 HD
ENDBRANCH   4  11
BRANCH   2  13
ATOM     13  O   UNL     1     -10.612  -2.513  -2.462  0.00  0.00    +0.000 OA
BRANCH  13  14
ATOM     14  S   UNL     1      -9.647  -3.447  -3.368  0.00  0.00    +0.000 S 
ATOM     15  O   UNL     1     -10.267  -4.744  -3.501  0.00  0.00    +0.000 OA
ATOM     16  O   UNL     1      -9.190  -2.682  -4.508  0.00  0.00    +0.000 OA
BRANCH  14  17
ATOM     17  O   UNL     1      -8.391  -3.669  -2.388  0.00  0.00    +0.000 OA
ATOM     18  H   UNL     1      -7.601  -3.321  -2.851  0.00  0.00    +0.000 HD
ENDBRANCH  14  17
ENDBRANCH  13  14
ENDBRANCH   2  13
TORSDOF 5
ENDMDL
MODEL 8
REMARK VINA RESULT:      -4.4     25.675     27.111
REMARK  Name = 
REMARK  7 active torsions:
REMARK  status: ('A' for Active; 'I' for Inactive)
REMARK    1  A    between atoms: S_1  and  O_3
REMARK    2  A    between atoms: S_1  and  O_6
REMARK    3  A    between atoms: O_3  and  C_9
REMARK    4  A    between atoms: O_4  and  C_10
REMARK    5  A    between atoms: O_5  and  C_11
REMARK    6  A    between atoms: C_12  and  C_14
REMARK    7  A    between atoms: C_13  and  C_15
REMARK                            x       y       z     vdW  Elec       q    Type
REMARK                         _______ _______ _______ _____ _____    ______ ____
ROOT
ATOM      1  O   UNL     1      17.175   6.422  -6.068  0.00  0.00    +0.000 OA
ATOM      2  C   UNL     1      14.754   6.194  -5.755  0.00  0.00    +0.000 C 
ATOM      3  C   UNL     1      14.722   5.154  -6.884  0.00  0.00    +0.000 C 
ATOM      4  C   UNL     1      15.888   5.363  -7.861  0.00  0.00    +0.000 C 
ATOM      5  C   UNL     1      16.146   6.186  -5.098  0.00  0.00    +0.000 C 
ATOM      6  C   UNL     1      17.216   5.421  -7.095  0.00  0.00    +0.000 C 
ATOM      7  C   UNL     1      16.279   7.264  -4.028  0.00  0.00    +0.000 C 
ATOM      8  C   UNL     1      18.380   5.761  -8.019  0.00  0.00    +0.000 C 
ENDROOT
BRANCH   3   9
ATOM      9  O   UNL     1      13.504   5.185  -7.643  0.00  0.00    +0.000 OA
ATOM     10  H   UNL     1      13.227   6.117  -7.767  0.00  0.00    +0.000 HD
ENDBRANCH   3   9
BRANCH   4  11
ATOM     11  O   UNL     1      15.889   4.291  -8.809  0.00  0.00    +0.000 OA
ATOM     12  H   UNL     1      15.750   3.482  -8.274  0.00  0.00    +0.000 HD
ENDBRANCH   4  11
BRANCH   2  13
ATOM     13  O   UNL     1      14.485   7.490  -6.293  0.00  0.00    +0.000 OA
BRANCH  13  14
ATOM     14  S   UNL     1      13.124   8.247  -5.845  0.00  0.00    +0.000 S 
ATOM     15  O   UNL     1      13.105   8.330  -4.404  0.00  0.00    +0.000 OA
ATOM     16  O   UNL     1      12.928   9.402  -6.694  0.00  0.00    +0.000 OA
BRANCH  14  17
ATOM     17  O   UNL     1      12.002   7.159  -6.227  0.00  0.00    +0.000 OA
ATOM     18  H   UNL     1      11.583   7.459  -7.061  0.00  0.00    +0.000 HD
ENDBRANCH  14  17
ENDBRANCH  13  14
ENDBRANCH   2  13
TORSDOF 5
ENDMDL
MODEL 9
REMARK VINA RESULT:      -4.4     24.154     25.478
REMARK  Name = 
REMARK  7 active torsions:
REMARK  status: ('A' for Active; 'I' for Inactive)
REMARK    1  A    between atoms: S_1  and  O_3
REMARK    2  A    between atoms: S_1  and  O_6
REMARK    3  A    between atoms: O_3  and  C_9
REMARK    4  A    between atoms: O_4  and  C_10
REMARK    5  A    between atoms: O_5  and  C_11
REMARK    6  A    between atoms: C_12  and  C_14
REMARK    7  A    between atoms: C_13  and  C_15
REMARK                            x       y       z     vdW  Elec       q    Type
REMARK                         _______ _______ _______ _____ _____    ______ ____
ROOT
ATOM      1  O   UNL     1      12.379  10.668 -14.158  0.00  0.00    +0.000 OA
ATOM      2  C   UNL     1      11.823  11.976 -16.156  0.00  0.00    +0.000 C 
ATOM      3  C   UNL     1      10.740  12.713 -15.353  0.00  0.00    +0.000 C 
ATOM      4  C   UNL     1      10.236  11.851 -14.187  0.00  0.00    +0.000 C 
ATOM      5  C   UNL     1      12.925  11.493 -15.195  0.00  0.00    +0.000 C 
ATOM      6  C   UNL     1      11.418  11.356 -13.344  0.00  0.00    +0.000 C 
ATOM      7  C   UNL     1      13.988  10.670 -15.914  0.00  0.00    +0.000 C 
ATOM      8  C   UNL     1      10.963  10.389 -12.256  0.00  0.00    +0.000 C 
ENDROOT
BRANCH   3   9
ATOM      9  O   UNL     1       9.604  13.081 -16.149  0.00  0.00    +0.000 OA
ATOM     10  H   UNL     1       9.098  13.778 -15.682  0.00  0.00    +0.000 HD
ENDBRANCH   3   9
BRANCH   4  11
ATOM     11  O   UNL     1       9.334  12.632 -13.397  0.00  0.00    +0.000 OA
ATOM     12  H   UNL     1       8.749  13.074 -14.046  0.00  0.00    +0.000 HD
ENDBRANCH   4  11
BRANCH   2  13
ATOM     13  O   UNL     1      11.242  10.854 -16.822  0.00  0.00    +0.000 OA
BRANCH  13  14
ATOM     14  S   UNL     1      11.163  10.870 -18.441  0.00  0.00    +0.000 S 
ATOM     15  O   UNL     1      10.743  12.187 -18.860  0.00  0.00    +0.000 OA
ATOM     16  O   UNL     1      12.342  10.223 -18.974  0.00  0.00    +0.000 OA
BRANCH  14  17
ATOM     17  O   UNL     1       9.904   9.908 -18.718  0.00  0.00    +0.000 OA
ATOM     18  H   UNL     1      10.205   9.213 -19.340  0.00  0.00    +0.000 HD
ENDBRANCH  14  17
ENDBRANCH  13  14
ENDBRANCH   2  13
TORSDOF 5
ENDMDL
