MODEL 1
REMARK VINA RESULT:      -5.9      0.000      0.000
REMARK  Name = Fulvestrant.pdbqt.pdb
REMARK  12 active torsions:
REMARK  status: ('A' for Active; 'I' for Inactive)
REMARK    1  A    between atoms: C_6  and  O_40
REMARK    2  A    between atoms: C_8  and  C_19
REMARK    3  A    between atoms: C_18  and  O_42
REMARK    4  A    between atoms: C_20  and  C_21
REMARK    5  A    between atoms: C_22  and  C_23
REMARK    6  A    between atoms: C_23  and  C_24
REMARK    7  A    between atoms: C_25  and  C_26
REMARK    8  A    between atoms: C_27  and  S_28
REMARK    9  A    between atoms: S_28  and  C_30
REMARK   10  A    between atoms: C_30  and  C_31
REMARK   11  A    between atoms: C_32  and  C_33
REMARK   12  A    between atoms: C_33  and  C_36
REMARK                            x       y       z     vdW  Elec       q    Type
REMARK                         _______ _______ _______ _____ _____    ______ ____
ROOT
ATOM      1  C   UNL     1       3.308 -16.194 -13.585  0.00  0.00    +0.000 C 
ATOM      2  C   UNL     1       3.210 -15.905 -12.010  0.00  0.00    +0.000 C 
ATOM      3  C   UNL     1       4.595 -16.190 -14.354  0.00  0.00    +0.000 A 
ATOM      4  C   UNL     1       5.957 -16.314 -13.641  0.00  0.00    +0.000 A 
ATOM      5  C   UNL     1       4.546 -16.150 -11.478  0.00  0.00    +0.000 C 
ATOM      6  C   UNL     1       2.161 -16.934 -11.535  0.00  0.00    +0.000 C 
ATOM      7  C   UNL     1       2.308 -17.176 -13.885  0.00  0.00    +0.000 C 
ATOM      8  C   UNL     1       4.625 -16.086 -15.837  0.00  0.00    +0.000 A 
ATOM      9  C   UNL     1       5.835 -16.331 -12.231  0.00  0.00    +0.000 C 
ATOM     10  C   UNL     1       1.617 -17.652 -12.634  0.00  0.00    +0.000 C 
ATOM     11  C   UNL     1       2.693 -14.459 -11.802  0.00  0.00    +0.000 C 
ATOM     12  C   UNL     1       7.262 -16.357 -14.360  0.00  0.00    +0.000 A 
ATOM     13  C   UNL     1       5.952 -16.155 -16.326  0.00  0.00    +0.000 A 
ATOM     14  C   UNL     1       7.252 -16.275 -15.773  0.00  0.00    +0.000 A 
ATOM     15  C   UNL     1       8.485 -16.471 -13.704  0.00  0.00    +0.000 A 
ATOM     16  C   UNL     1       8.418 -16.304 -16.522  0.00  0.00    +0.000 A 
ATOM     17  C   UNL     1       9.668 -16.503 -14.446  0.00  0.00    +0.000 A 
ATOM     18  C   UNL     1       9.624 -16.419 -15.838  0.00  0.00    +0.000 A 
ENDROOT
BRANCH   8  19
ATOM     19  C   UNL     1       3.492 -15.771 -16.625  0.00  0.00    +0.000 C 
ATOM     20  C   UNL     1       2.279 -15.429 -17.495  0.00  0.00    +0.000 C 
BRANCH  20  21
ATOM     21  C   UNL     1       1.084 -15.084 -18.388  0.00  0.00    +0.000 C 
ATOM     22  C   UNL     1      -0.091 -14.725 -19.303  0.00  0.00    +0.000 C 
BRANCH  22  23
ATOM     23  C   UNL     1      -1.245 -14.348 -20.237  0.00  0.00    +0.000 C 
BRANCH  23  24
ATOM     24  C   UNL     1      -2.421 -13.993 -21.153  0.00  0.00    +0.000 C 
ATOM     25  C   UNL     1      -3.615 -13.665 -22.055  0.00  0.00    +0.000 C 
BRANCH  25  26
ATOM     26  C   UNL     1      -4.825 -13.368 -22.947  0.00  0.00    +0.000 C 
ATOM     27  C   UNL     1      -6.019 -13.037 -23.847  0.00  0.00    +0.000 C 
BRANCH  27  28
ATOM     28  S   UNL     1      -7.380 -12.625 -24.885  0.00  0.00    +0.000 S 
ATOM     29  O   UNL     1      -7.443 -14.013 -25.451  0.00  0.00    +0.000 OA
BRANCH  28  30
ATOM     30  C   UNL     1      -8.581 -13.004 -23.655  0.00  0.00    +0.000 C 
BRANCH  30  31
ATOM     31  C   UNL     1      -9.644 -13.324 -22.598  0.00  0.00    +0.000 C 
ATOM     32  C   UNL     1     -10.711 -13.626 -21.541  0.00  0.00    +0.000 C 
BRANCH  32  33
ATOM     33  C   UNL     1     -11.734 -13.905 -20.528  0.00  0.00    +0.000 C 
ATOM     34  F   UNL     1     -11.139 -13.844 -19.304  0.00  0.00    +0.000 F 
ATOM     35  F   UNL     1     -12.132 -15.198 -20.686  0.00  0.00    +0.000 F 
BRANCH  33  36
ATOM     36  C   UNL     1     -12.933 -12.954 -20.599  0.00  0.00    +0.000 C 
ATOM     37  F   UNL     1     -13.010 -12.322 -21.799  0.00  0.00    +0.000 F 
ATOM     38  F   UNL     1     -12.878 -11.989 -19.648  0.00  0.00    +0.000 F 
ATOM     39  F   UNL     1     -14.108 -13.611 -20.426  0.00  0.00    +0.000 F 
ENDBRANCH  33  36
ENDBRANCH  32  33
ENDBRANCH  30  31
ENDBRANCH  28  30
ENDBRANCH  27  28
ENDBRANCH  25  26
ENDBRANCH  23  24
ENDBRANCH  22  23
ENDBRANCH  20  21
ENDBRANCH   8  19
BRANCH   6  40
ATOM     40  O   UNL     1       2.127 -17.425 -10.247  0.00  0.00    +0.000 OA
ATOM     41  H   UNL     1       1.374 -18.026 -10.109  0.00  0.00    +0.000 HD
ENDBRANCH   6  40
BRANCH  18  42
ATOM     42  O   UNL     1      10.807 -16.453 -16.521  0.00  0.00    +0.000 OA
ATOM     43  H   UNL     1      11.499 -16.065 -15.957  0.00  0.00    +0.000 HD
ENDBRANCH  18  42
TORSDOF 12
ENDMDL
MODEL 2
REMARK VINA RESULT:      -5.9      3.803      4.347
REMARK  Name = Fulvestrant.pdbqt.pdb
REMARK  12 active torsions:
REMARK  status: ('A' for Active; 'I' for Inactive)
REMARK    1  A    between atoms: C_6  and  O_40
REMARK    2  A    between atoms: C_8  and  C_19
REMARK    3  A    between atoms: C_18  and  O_42
REMARK    4  A    between atoms: C_20  and  C_21
REMARK    5  A    between atoms: C_22  and  C_23
REMARK    6  A    between atoms: C_23  and  C_24
REMARK    7  A    between atoms: C_25  and  C_26
REMARK    8  A    between atoms: C_27  and  S_28
REMARK    9  A    between atoms: S_28  and  C_30
REMARK   10  A    between atoms: C_30  and  C_31
REMARK   11  A    between atoms: C_32  and  C_33
REMARK   12  A    between atoms: C_33  and  C_36
REMARK                            x       y       z     vdW  Elec       q    Type
REMARK                         _______ _______ _______ _____ _____    ______ ____
ROOT
ATOM      1  C   UNL     1       4.250 -16.575 -13.348  0.00  0.00    +0.000 C 
ATOM      2  C   UNL     1       4.522 -15.947 -11.896  0.00  0.00    +0.000 C 
ATOM      3  C   UNL     1       5.239 -16.526 -14.473  0.00  0.00    +0.000 A 
ATOM      4  C   UNL     1       6.734 -16.241 -14.219  0.00  0.00    +0.000 A 
ATOM      5  C   UNL     1       5.971 -15.825 -11.782  0.00  0.00    +0.000 C 
ATOM      6  C   UNL     1       3.917 -17.004 -10.946  0.00  0.00    +0.000 C 
ATOM      7  C   UNL     1       3.468 -17.757 -13.144  0.00  0.00    +0.000 C 
ATOM      8  C   UNL     1       4.837 -16.767 -15.884  0.00  0.00    +0.000 A 
ATOM      9  C   UNL     1       7.009 -15.949 -12.862  0.00  0.00    +0.000 C 
ATOM     10  C   UNL     1       3.279 -18.042 -11.676  0.00  0.00    +0.000 C 
ATOM     11  C   UNL     1       3.755 -14.605 -11.784  0.00  0.00    +0.000 C 
ATOM     12  C   UNL     1       7.763 -16.222 -15.296  0.00  0.00    +0.000 A 
ATOM     13  C   UNL     1       5.957 -16.717 -16.749  0.00  0.00    +0.000 A 
ATOM     14  C   UNL     1       7.349 -16.475 -16.625  0.00  0.00    +0.000 A 
ATOM     15  C   UNL     1       9.110 -15.966 -15.052  0.00  0.00    +0.000 A 
ATOM     16  C   UNL     1       8.237 -16.475 -17.689  0.00  0.00    +0.000 A 
ATOM     17  C   UNL     1      10.018 -15.963 -16.113  0.00  0.00    +0.000 A 
ATOM     18  C   UNL     1       9.576 -16.215 -17.413  0.00  0.00    +0.000 A 
ENDROOT
BRANCH   8  19
ATOM     19  C   UNL     1       3.491 -16.847 -16.314  0.00  0.00    +0.000 C 
ATOM     20  C   UNL     1       2.028 -16.919 -16.763  0.00  0.00    +0.000 C 
BRANCH  20  21
ATOM     21  C   UNL     1       0.558 -16.976 -17.189  0.00  0.00    +0.000 C 
ATOM     22  C   UNL     1      -0.910 -17.003 -17.624  0.00  0.00    +0.000 C 
BRANCH  22  23
ATOM     23  C   UNL     1      -2.376 -16.996 -18.067  0.00  0.00    +0.000 C 
BRANCH  23  24
ATOM     24  C   UNL     1      -3.853 -16.999 -18.477  0.00  0.00    +0.000 C 
ATOM     25  C   UNL     1      -5.337 -16.995 -18.854  0.00  0.00    +0.000 C 
BRANCH  25  26
ATOM     26  C   UNL     1      -6.831 -16.986 -19.196  0.00  0.00    +0.000 C 
ATOM     27  C   UNL     1      -8.332 -16.986 -19.503  0.00  0.00    +0.000 C 
BRANCH  27  28
ATOM     28  S   UNL     1     -10.062 -16.999 -19.824  0.00  0.00    +0.000 S 
ATOM     29  O   UNL     1     -10.218 -18.374 -19.243  0.00  0.00    +0.000 OA
BRANCH  28  30
ATOM     30  C   UNL     1     -10.468 -16.236 -18.290  0.00  0.00    +0.000 C 
BRANCH  30  31
ATOM     31  C   UNL     1     -10.818 -15.593 -16.943  0.00  0.00    +0.000 C 
ATOM     32  C   UNL     1     -11.149 -14.947 -15.593  0.00  0.00    +0.000 C 
BRANCH  32  33
ATOM     33  C   UNL     1     -11.456 -14.330 -14.300  0.00  0.00    +0.000 C 
ATOM     34  F   UNL     1     -11.544 -15.323 -13.371  0.00  0.00    +0.000 F 
ATOM     35  F   UNL     1     -12.703 -13.786 -14.385  0.00  0.00    +0.000 F 
BRANCH  33  36
ATOM     36  C   UNL     1     -10.431 -13.275 -13.874  0.00  0.00    +0.000 C 
ATOM     37  F   UNL     1     -10.922 -12.013 -13.984  0.00  0.00    +0.000 F 
ATOM     38  F   UNL     1      -9.302 -13.324 -14.624  0.00  0.00    +0.000 F 
ATOM     39  F   UNL     1     -10.049 -13.435 -12.581  0.00  0.00    +0.000 F 
ENDBRANCH  33  36
ENDBRANCH  32  33
ENDBRANCH  30  31
ENDBRANCH  28  30
ENDBRANCH  27  28
ENDBRANCH  25  26
ENDBRANCH  23  24
ENDBRANCH  22  23
ENDBRANCH  20  21
ENDBRANCH   8  19
BRANCH   6  40
ATOM     40  O   UNL     1       4.354 -17.178  -9.649  0.00  0.00    +0.000 OA
ATOM     41  H   UNL     1       5.146 -17.742  -9.607  0.00  0.00    +0.000 HD
ENDBRANCH   6  40
BRANCH  18  42
ATOM     42  O   UNL     1      10.500 -16.201 -18.419  0.00  0.00    +0.000 OA
ATOM     43  H   UNL     1      10.029 -16.239 -19.270  0.00  0.00    +0.000 HD
ENDBRANCH  18  42
TORSDOF 12
ENDMDL
MODEL 3
REMARK VINA RESULT:      -5.8     32.521     34.804
REMARK  Name = Fulvestrant.pdbqt.pdb
REMARK  12 active torsions:
REMARK  status: ('A' for Active; 'I' for Inactive)
REMARK    1  A    between atoms: C_6  and  O_40
REMARK    2  A    between atoms: C_8  and  C_19
REMARK    3  A    between atoms: C_18  and  O_42
REMARK    4  A    between atoms: C_20  and  C_21
REMARK    5  A    between atoms: C_22  and  C_23
REMARK    6  A    between atoms: C_23  and  C_24
REMARK    7  A    between atoms: C_25  and  C_26
REMARK    8  A    between atoms: C_27  and  S_28
REMARK    9  A    between atoms: S_28  and  C_30
REMARK   10  A    between atoms: C_30  and  C_31
REMARK   11  A    between atoms: C_32  and  C_33
REMARK   12  A    between atoms: C_33  and  C_36
REMARK                            x       y       z     vdW  Elec       q    Type
REMARK                         _______ _______ _______ _____ _____    ______ ____
ROOT
ATOM      1  C   UNL     1      -2.073  16.342 -18.214  0.00  0.00    +0.000 C 
ATOM      2  C   UNL     1      -2.816  15.124 -18.948  0.00  0.00    +0.000 C 
ATOM      3  C   UNL     1      -0.615  16.646 -18.374  0.00  0.00    +0.000 A 
ATOM      4  C   UNL     1       0.199  16.080 -19.557  0.00  0.00    +0.000 A 
ATOM      5  C   UNL     1      -1.969  14.769 -20.082  0.00  0.00    +0.000 C 
ATOM      6  C   UNL     1      -4.169  15.745 -19.362  0.00  0.00    +0.000 C 
ATOM      7  C   UNL     1      -3.017  17.418 -18.148  0.00  0.00    +0.000 C 
ATOM      8  C   UNL     1       0.117  17.519 -17.419  0.00  0.00    +0.000 A 
ATOM      9  C   UNL     1      -0.558  15.202 -20.368  0.00  0.00    +0.000 C 
ATOM     10  C   UNL     1      -4.294  17.071 -18.868  0.00  0.00    +0.000 C 
ATOM     11  C   UNL     1      -3.027  13.980 -17.924  0.00  0.00    +0.000 C 
ATOM     12  C   UNL     1       1.640  16.384 -19.785  0.00  0.00    +0.000 A 
ATOM     13  C   UNL     1       1.465  17.692 -17.815  0.00  0.00    +0.000 A 
ATOM     14  C   UNL     1       2.300  17.234 -18.867  0.00  0.00    +0.000 A 
ATOM     15  C   UNL     1       2.362  15.868 -20.858  0.00  0.00    +0.000 A 
ATOM     16  C   UNL     1       3.638  17.569 -19.000  0.00  0.00    +0.000 A 
ATOM     17  C   UNL     1       3.711  16.196 -21.007  0.00  0.00    +0.000 A 
ATOM     18  C   UNL     1       4.333  17.037 -20.082  0.00  0.00    +0.000 A 
ENDROOT
BRANCH   8  19
ATOM     19  C   UNL     1      -0.421  17.956 -16.185  0.00  0.00    +0.000 C 
ATOM     20  C   UNL     1      -1.016  18.412 -14.849  0.00  0.00    +0.000 C 
BRANCH  20  21
ATOM     21  C   UNL     1      -1.629  18.844 -13.514  0.00  0.00    +0.000 C 
ATOM     22  C   UNL     1      -2.231  19.249 -12.165  0.00  0.00    +0.000 C 
BRANCH  22  23
ATOM     23  C   UNL     1      -2.823  19.625 -10.803  0.00  0.00    +0.000 C 
BRANCH  23  24
ATOM     24  C   UNL     1      -3.401  19.970  -9.427  0.00  0.00    +0.000 C 
ATOM     25  C   UNL     1      -3.983  20.281  -8.044  0.00  0.00    +0.000 C 
BRANCH  25  26
ATOM     26  C   UNL     1      -4.572  20.558  -6.657  0.00  0.00    +0.000 C 
ATOM     27  C   UNL     1      -5.149  20.801  -5.259  0.00  0.00    +0.000 C 
BRANCH  27  28
ATOM     28  S   UNL     1      -5.804  21.047  -3.644  0.00  0.00    +0.000 S 
ATOM     29  O   UNL     1      -7.215  20.895  -4.131  0.00  0.00    +0.000 OA
BRANCH  28  30
ATOM     30  C   UNL     1      -5.700  19.342  -3.218  0.00  0.00    +0.000 C 
BRANCH  30  31
ATOM     31  C   UNL     1      -5.599  17.864  -2.826  0.00  0.00    +0.000 C 
ATOM     32  C   UNL     1      -5.483  16.383  -2.447  0.00  0.00    +0.000 C 
BRANCH  32  33
ATOM     33  C   UNL     1      -5.367  14.966  -2.091  0.00  0.00    +0.000 C 
ATOM     34  F   UNL     1      -6.547  14.575  -1.533  0.00  0.00    +0.000 F 
ATOM     35  F   UNL     1      -4.433  14.861  -1.104  0.00  0.00    +0.000 F 
BRANCH  33  36
ATOM     36  C   UNL     1      -5.004  14.071  -3.280  0.00  0.00    +0.000 C 
ATOM     37  F   UNL     1      -5.426  14.595  -4.460  0.00  0.00    +0.000 F 
ATOM     38  F   UNL     1      -5.554  12.836  -3.178  0.00  0.00    +0.000 F 
ATOM     39  F   UNL     1      -3.662  13.895  -3.388  0.00  0.00    +0.000 F 
ENDBRANCH  33  36
ENDBRANCH  32  33
ENDBRANCH  30  31
ENDBRANCH  28  30
ENDBRANCH  27  28
ENDBRANCH  25  26
ENDBRANCH  23  24
ENDBRANCH  22  23
ENDBRANCH  20  21
ENDBRANCH   8  19
BRANCH   6  40
ATOM     40  O   UNL     1      -4.902  15.287 -20.436  0.00  0.00    +0.000 OA
ATOM     41  H   UNL     1      -5.712  15.812 -20.571  0.00  0.00    +0.000 HD
ENDBRANCH   6  40
BRANCH  18  42
ATOM     42  O   UNL     1       5.655  17.329 -20.268  0.00  0.00    +0.000 OA
ATOM     43  H   UNL     1       6.022  17.641 -19.422  0.00  0.00    +0.000 HD
ENDBRANCH  18  42
TORSDOF 12
ENDMDL
MODEL 4
REMARK VINA RESULT:      -5.7     30.335     33.732
REMARK  Name = Fulvestrant.pdbqt.pdb
REMARK  12 active torsions:
REMARK  status: ('A' for Active; 'I' for Inactive)
REMARK    1  A    between atoms: C_6  and  O_40
REMARK    2  A    between atoms: C_8  and  C_19
REMARK    3  A    between atoms: C_18  and  O_42
REMARK    4  A    between atoms: C_20  and  C_21
REMARK    5  A    between atoms: C_22  and  C_23
REMARK    6  A    between atoms: C_23  and  C_24
REMARK    7  A    between atoms: C_25  and  C_26
REMARK    8  A    between atoms: C_27  and  S_28
REMARK    9  A    between atoms: S_28  and  C_30
REMARK   10  A    between atoms: C_30  and  C_31
REMARK   11  A    between atoms: C_32  and  C_33
REMARK   12  A    between atoms: C_33  and  C_36
REMARK                            x       y       z     vdW  Elec       q    Type
REMARK                         _______ _______ _______ _____ _____    ______ ____
ROOT
ATOM      1  C   UNL     1      -3.638  16.033 -16.729  0.00  0.00    +0.000 C 
ATOM      2  C   UNL     1      -3.993  15.781 -15.185  0.00  0.00    +0.000 C 
ATOM      3  C   UNL     1      -4.600  15.798 -17.854  0.00  0.00    +0.000 A 
ATOM      4  C   UNL     1      -6.119  15.690 -17.603  0.00  0.00    +0.000 A 
ATOM      5  C   UNL     1      -5.450  15.796 -15.106  0.00  0.00    +0.000 C 
ATOM      6  C   UNL     1      -3.327  16.982 -14.478  0.00  0.00    +0.000 C 
ATOM      7  C   UNL     1      -2.767  17.170 -16.770  0.00  0.00    +0.000 C 
ATOM      8  C   UNL     1      -4.147  15.675 -19.265  0.00  0.00    +0.000 A 
ATOM      9  C   UNL     1      -6.449  15.743 -16.228  0.00  0.00    +0.000 C 
ATOM     10  C   UNL     1      -2.589  17.772 -15.400  0.00  0.00    +0.000 C 
ATOM     11  C   UNL     1      -3.340  14.449 -14.736  0.00  0.00    +0.000 C 
ATOM     12  C   UNL     1      -7.121  15.499 -18.689  0.00  0.00    +0.000 A 
ATOM     13  C   UNL     1      -5.246  15.507 -20.141  0.00  0.00    +0.000 A 
ATOM     14  C   UNL     1      -6.656  15.405 -20.022  0.00  0.00    +0.000 A 
ATOM     15  C   UNL     1      -8.490  15.405 -18.449  0.00  0.00    +0.000 A 
ATOM     16  C   UNL     1      -7.516  15.224 -21.094  0.00  0.00    +0.000 A 
ATOM     17  C   UNL     1      -9.369  15.224 -19.518  0.00  0.00    +0.000 A 
ATOM     18  C   UNL     1      -8.878  15.134 -20.822  0.00  0.00    +0.000 A 
ENDROOT
BRANCH   8  19
ATOM     19  C   UNL     1      -2.789  15.553 -19.645  0.00  0.00    +0.000 C 
ATOM     20  C   UNL     1      -1.314  15.415 -20.036  0.00  0.00    +0.000 C 
BRANCH  20  21
ATOM     21  C   UNL     1       0.166  15.272 -20.399  0.00  0.00    +0.000 C 
ATOM     22  C   UNL     1       1.646  15.157 -20.779  0.00  0.00    +0.000 C 
BRANCH  22  23
ATOM     23  C   UNL     1       3.121  15.068 -21.181  0.00  0.00    +0.000 C 
BRANCH  23  24
ATOM     24  C   UNL     1       4.588  14.987 -21.616  0.00  0.00    +0.000 C 
ATOM     25  C   UNL     1       6.047  14.877 -22.070  0.00  0.00    +0.000 C 
BRANCH  25  26
ATOM     26  C   UNL     1       7.498  14.737 -22.541  0.00  0.00    +0.000 C 
ATOM     27  C   UNL     1       8.954  14.568 -22.987  0.00  0.00    +0.000 C 
BRANCH  27  28
ATOM     28  S   UNL     1      10.631  14.351 -23.475  0.00  0.00    +0.000 S 
ATOM     29  O   UNL     1      11.019  15.702 -22.948  0.00  0.00    +0.000 OA
BRANCH  28  30
ATOM     30  C   UNL     1      11.087  13.563 -21.967  0.00  0.00    +0.000 C 
BRANCH  30  31
ATOM     31  C   UNL     1      11.495  12.897 -20.649  0.00  0.00    +0.000 C 
ATOM     32  C   UNL     1      11.921  12.230 -19.336  0.00  0.00    +0.000 C 
BRANCH  32  33
ATOM     33  C   UNL     1      12.337  11.590 -18.085  0.00  0.00    +0.000 C 
ATOM     34  F   UNL     1      12.743  12.569 -17.228  0.00  0.00    +0.000 F 
ATOM     35  F   UNL     1      13.445  10.842 -18.349  0.00  0.00    +0.000 F 
BRANCH  33  36
ATOM     36  C   UNL     1      11.240  10.731 -17.449  0.00  0.00    +0.000 C 
ATOM     37  F   UNL     1      10.434  11.458 -16.632  0.00  0.00    +0.000 F 
ATOM     38  F   UNL     1      11.748   9.720 -16.703  0.00  0.00    +0.000 F 
ATOM     39  F   UNL     1      10.438  10.163 -18.386  0.00  0.00    +0.000 F 
ENDBRANCH  33  36
ENDBRANCH  32  33
ENDBRANCH  30  31
ENDBRANCH  28  30
ENDBRANCH  27  28
ENDBRANCH  25  26
ENDBRANCH  23  24
ENDBRANCH  22  23
ENDBRANCH  20  21
ENDBRANCH   8  19
BRANCH   6  40
ATOM     40  O   UNL     1      -3.778  17.484 -13.275  0.00  0.00    +0.000 OA
ATOM     41  H   UNL     1      -3.477  18.399 -13.130  0.00  0.00    +0.000 HD
ENDBRANCH   6  40
BRANCH  18  42
ATOM     42  O   UNL     1      -9.776  14.956 -21.835  0.00  0.00    +0.000 OA
ATOM     43  H   UNL     1     -10.497  14.387 -21.511  0.00  0.00    +0.000 HD
ENDBRANCH  18  42
TORSDOF 12
ENDMDL
MODEL 5
REMARK VINA RESULT:      -5.6     11.387     17.421
REMARK  Name = Fulvestrant.pdbqt.pdb
REMARK  12 active torsions:
REMARK  status: ('A' for Active; 'I' for Inactive)
REMARK    1  A    between atoms: C_6  and  O_40
REMARK    2  A    between atoms: C_8  and  C_19
REMARK    3  A    between atoms: C_18  and  O_42
REMARK    4  A    between atoms: C_20  and  C_21
REMARK    5  A    between atoms: C_22  and  C_23
REMARK    6  A    between atoms: C_23  and  C_24
REMARK    7  A    between atoms: C_25  and  C_26
REMARK    8  A    between atoms: C_27  and  S_28
REMARK    9  A    between atoms: S_28  and  C_30
REMARK   10  A    between atoms: C_30  and  C_31
REMARK   11  A    between atoms: C_32  and  C_33
REMARK   12  A    between atoms: C_33  and  C_36
REMARK                            x       y       z     vdW  Elec       q    Type
REMARK                         _______ _______ _______ _____ _____    ______ ____
ROOT
ATOM      1  C   UNL     1       2.457 -17.037 -15.005  0.00  0.00    +0.000 C 
ATOM      2  C   UNL     1       3.286 -15.952 -15.848  0.00  0.00    +0.000 C 
ATOM      3  C   UNL     1       1.030 -17.396 -15.287  0.00  0.00    +0.000 A 
ATOM      4  C   UNL     1       0.371 -17.067 -16.643  0.00  0.00    +0.000 A 
ATOM      5  C   UNL     1       2.588 -15.823 -17.123  0.00  0.00    +0.000 C 
ATOM      6  C   UNL     1       4.680 -16.606 -15.974  0.00  0.00    +0.000 C 
ATOM      7  C   UNL     1       3.385 -18.063 -14.633  0.00  0.00    +0.000 C 
ATOM      8  C   UNL     1       0.184 -18.102 -14.289  0.00  0.00    +0.000 A 
ATOM      9  C   UNL     1       1.224 -16.330 -17.499  0.00  0.00    +0.000 C 
ATOM     10  C   UNL     1       4.742 -17.821 -15.240  0.00  0.00    +0.000 C 
ATOM     11  C   UNL     1       3.368 -14.640 -15.027  0.00  0.00    +0.000 C 
ATOM     12  C   UNL     1      -1.030 -17.438 -16.989  0.00  0.00    +0.000 A 
ATOM     13  C   UNL     1      -1.104 -18.372 -14.811  0.00  0.00    +0.000 A 
ATOM     14  C   UNL     1      -1.800 -18.127 -16.022  0.00  0.00    +0.000 A 
ATOM     15  C   UNL     1      -1.613 -17.137 -18.218  0.00  0.00    +0.000 A 
ATOM     16  C   UNL     1      -3.111 -18.509 -16.257  0.00  0.00    +0.000 A 
ATOM     17  C   UNL     1      -2.932 -17.516 -18.470  0.00  0.00    +0.000 A 
ATOM     18  C   UNL     1      -3.665 -18.193 -17.494  0.00  0.00    +0.000 A 
ENDROOT
BRANCH   8  19
ATOM     19  C   UNL     1       0.563 -18.301 -12.940  0.00  0.00    +0.000 C 
ATOM     20  C   UNL     1       0.962 -18.500 -11.474  0.00  0.00    +0.000 C 
BRANCH  20  21
ATOM     21  C   UNL     1       1.347 -18.673 -10.002  0.00  0.00    +0.000 C 
ATOM     22  C   UNL     1       1.739 -18.815  -8.528  0.00  0.00    +0.000 C 
BRANCH  22  23
ATOM     23  C   UNL     1       2.140 -18.924  -7.054  0.00  0.00    +0.000 C 
BRANCH  23  24
ATOM     24  C   UNL     1       2.507 -19.044  -5.571  0.00  0.00    +0.000 C 
ATOM     25  C   UNL     1       2.886 -19.129  -4.089  0.00  0.00    +0.000 C 
BRANCH  25  26
ATOM     26  C   UNL     1       3.278 -19.183  -2.609  0.00  0.00    +0.000 C 
ATOM     27  C   UNL     1       3.669 -19.199  -1.128  0.00  0.00    +0.000 C 
BRANCH  27  28
ATOM     28  S   UNL     1       4.120 -19.182   0.573  0.00  0.00    +0.000 S 
ATOM     29  O   UNL     1       5.580 -19.077   0.244  0.00  0.00    +0.000 OA
BRANCH  28  30
ATOM     30  C   UNL     1       3.961 -17.434   0.716  0.00  0.00    +0.000 C 
BRANCH  30  31
ATOM     31  C   UNL     1       3.816 -15.912   0.817  0.00  0.00    +0.000 C 
ATOM     32  C   UNL     1       3.663 -14.389   0.901  0.00  0.00    +0.000 C 
BRANCH  32  33
ATOM     33  C   UNL     1       3.515 -12.933   0.972  0.00  0.00    +0.000 C 
ATOM     34  F   UNL     1       4.586 -12.434   1.651  0.00  0.00    +0.000 F 
ATOM     35  F   UNL     1       2.425 -12.663   1.743  0.00  0.00    +0.000 F 
BRANCH  33  36
ATOM     36  C   UNL     1       3.385 -12.269  -0.403  0.00  0.00    +0.000 C 
ATOM     37  F   UNL     1       2.120 -11.840  -0.644  0.00  0.00    +0.000 F 
ATOM     38  F   UNL     1       3.713 -13.114  -1.412  0.00  0.00    +0.000 F 
ATOM     39  F   UNL     1       4.196 -11.186  -0.519  0.00  0.00    +0.000 F 
ENDBRANCH  33  36
ENDBRANCH  32  33
ENDBRANCH  30  31
ENDBRANCH  28  30
ENDBRANCH  27  28
ENDBRANCH  25  26
ENDBRANCH  23  24
ENDBRANCH  22  23
ENDBRANCH  20  21
ENDBRANCH   8  19
BRANCH   6  40
ATOM     40  O   UNL     1       5.542 -16.330 -17.015  0.00  0.00    +0.000 OA
ATOM     41  H   UNL     1       5.065 -16.037 -17.812  0.00  0.00    +0.000 HD
ENDBRANCH   6  40
BRANCH  18  42
ATOM     42  O   UNL     1      -4.953 -18.543 -17.786  0.00  0.00    +0.000 OA
ATOM     43  H   UNL     1      -5.004 -19.514 -17.840  0.00  0.00    +0.000 HD
ENDBRANCH  18  42
TORSDOF 12
ENDMDL
MODEL 6
REMARK VINA RESULT:      -5.6     29.439     32.526
REMARK  Name = Fulvestrant.pdbqt.pdb
REMARK  12 active torsions:
REMARK  status: ('A' for Active; 'I' for Inactive)
REMARK    1  A    between atoms: C_6  and  O_40
REMARK    2  A    between atoms: C_8  and  C_19
REMARK    3  A    between atoms: C_18  and  O_42
REMARK    4  A    between atoms: C_20  and  C_21
REMARK    5  A    between atoms: C_22  and  C_23
REMARK    6  A    between atoms: C_23  and  C_24
REMARK    7  A    between atoms: C_25  and  C_26
REMARK    8  A    between atoms: C_27  and  S_28
REMARK    9  A    between atoms: S_28  and  C_30
REMARK   10  A    between atoms: C_30  and  C_31
REMARK   11  A    between atoms: C_32  and  C_33
REMARK   12  A    between atoms: C_33  and  C_36
REMARK                            x       y       z     vdW  Elec       q    Type
REMARK                         _______ _______ _______ _____ _____    ______ ____
ROOT
ATOM      1  C   UNL     1      15.755  10.525 -14.162  0.00  0.00    +0.000 C 
ATOM      2  C   UNL     1      17.219  10.855 -14.728  0.00  0.00    +0.000 C 
ATOM      3  C   UNL     1      14.511  10.569 -14.997  0.00  0.00    +0.000 A 
ATOM      4  C   UNL     1      14.575  10.533 -16.538  0.00  0.00    +0.000 A 
ATOM      5  C   UNL     1      17.132  10.692 -16.175  0.00  0.00    +0.000 C 
ATOM      6  C   UNL     1      18.102   9.790 -14.040  0.00  0.00    +0.000 C 
ATOM      7  C   UNL     1      15.915   9.488 -13.187  0.00  0.00    +0.000 C 
ATOM      8  C   UNL     1      13.156  10.631 -14.388  0.00  0.00    +0.000 A 
ATOM      9  C   UNL     1      15.902  10.551 -17.028  0.00  0.00    +0.000 C 
ATOM     10  C   UNL     1      17.344   9.015 -13.122  0.00  0.00    +0.000 C 
ATOM     11  C   UNL     1      17.620  12.280 -14.268  0.00  0.00    +0.000 C 
ATOM     12  C   UNL     1      13.369  10.533 -17.413  0.00  0.00    +0.000 A 
ATOM     13  C   UNL     1      12.148  10.613 -15.382  0.00  0.00    +0.000 A 
ATOM     14  C   UNL     1      12.094  10.573 -16.798  0.00  0.00    +0.000 A 
ATOM     15  C   UNL     1      13.441  10.498 -18.803  0.00  0.00    +0.000 A 
ATOM     16  C   UNL     1      10.920  10.579 -17.534  0.00  0.00    +0.000 A 
ATOM     17  C   UNL     1      12.266  10.502 -19.558  0.00  0.00    +0.000 A 
ATOM     18  C   UNL     1      11.024  10.543 -18.921  0.00  0.00    +0.000 A 
ENDROOT
BRANCH   8  19
ATOM     19  C   UNL     1      12.924  10.868 -13.011  0.00  0.00    +0.000 C 
ATOM     20  C   UNL     1      12.677  11.104 -11.518  0.00  0.00    +0.000 C 
BRANCH  20  21
ATOM     21  C   UNL     1      12.433  11.310 -10.021  0.00  0.00    +0.000 C 
ATOM     22  C   UNL     1      12.216  11.535  -8.521  0.00  0.00    +0.000 C 
BRANCH  22  23
ATOM     23  C   UNL     1      12.029  11.775  -7.020  0.00  0.00    +0.000 C 
BRANCH  23  24
ATOM     24  C   UNL     1      11.861  11.986  -5.511  0.00  0.00    +0.000 C 
ATOM     25  C   UNL     1      11.701  12.162  -3.998  0.00  0.00    +0.000 C 
BRANCH  25  26
ATOM     26  C   UNL     1      11.546  12.304  -2.481  0.00  0.00    +0.000 C 
ATOM     27  C   UNL     1      11.427  12.450  -0.960  0.00  0.00    +0.000 C 
BRANCH  27  28
ATOM     28  S   UNL     1      11.325  12.620   0.789  0.00  0.00    +0.000 S 
ATOM     29  O   UNL     1       9.948  13.210   0.709  0.00  0.00    +0.000 OA
BRANCH  28  30
ATOM     30  C   UNL     1      10.684  10.996   1.023  0.00  0.00    +0.000 C 
BRANCH  30  31
ATOM     31  C   UNL     1      10.145   9.574   1.214  0.00  0.00    +0.000 C 
ATOM     32  C   UNL     1       9.588   8.160   1.409  0.00  0.00    +0.000 C 
BRANCH  32  33
ATOM     33  C   UNL     1       9.048   6.811   1.600  0.00  0.00    +0.000 C 
ATOM     34  F   UNL     1       8.190   6.848   2.658  0.00  0.00    +0.000 F 
ATOM     35  F   UNL     1      10.075   6.001   1.979  0.00  0.00    +0.000 F 
BRANCH  33  36
ATOM     36  C   UNL     1       8.350   6.256   0.354  0.00  0.00    +0.000 C 
ATOM     37  F   UNL     1       7.441   7.129  -0.152  0.00  0.00    +0.000 F 
ATOM     38  F   UNL     1       7.688   5.101   0.609  0.00  0.00    +0.000 F 
ATOM     39  F   UNL     1       9.234   5.990  -0.642  0.00  0.00    +0.000 F 
ENDBRANCH  33  36
ENDBRANCH  32  33
ENDBRANCH  30  31
ENDBRANCH  28  30
ENDBRANCH  27  28
ENDBRANCH  25  26
ENDBRANCH  23  24
ENDBRANCH  22  23
ENDBRANCH  20  21
ENDBRANCH   8  19
BRANCH   6  40
ATOM     40  O   UNL     1      19.285   9.337 -14.585  0.00  0.00    +0.000 OA
ATOM     41  H   UNL     1      19.814   8.839 -13.937  0.00  0.00    +0.000 HD
ENDBRANCH   6  40
BRANCH  18  42
ATOM     42  O   UNL     1       9.903  10.546 -19.701  0.00  0.00    +0.000 OA
ATOM     43  H   UNL     1       9.507  11.435 -19.665  0.00  0.00    +0.000 HD
ENDBRANCH  18  42
TORSDOF 12
ENDMDL
MODEL 7
REMARK VINA RESULT:      -5.6     15.738     16.799
REMARK  Name = Fulvestrant.pdbqt.pdb
REMARK  12 active torsions:
REMARK  status: ('A' for Active; 'I' for Inactive)
REMARK    1  A    between atoms: C_6  and  O_40
REMARK    2  A    between atoms: C_8  and  C_19
REMARK    3  A    between atoms: C_18  and  O_42
REMARK    4  A    between atoms: C_20  and  C_21
REMARK    5  A    between atoms: C_22  and  C_23
REMARK    6  A    between atoms: C_23  and  C_24
REMARK    7  A    between atoms: C_25  and  C_26
REMARK    8  A    between atoms: C_27  and  S_28
REMARK    9  A    between atoms: S_28  and  C_30
REMARK   10  A    between atoms: C_30  and  C_31
REMARK   11  A    between atoms: C_32  and  C_33
REMARK   12  A    between atoms: C_33  and  C_36
REMARK                            x       y       z     vdW  Elec       q    Type
REMARK                         _______ _______ _______ _____ _____    ______ ____
ROOT
ATOM      1  C   UNL     1      10.350   1.120 -18.773  0.00  0.00    +0.000 C 
ATOM      2  C   UNL     1      11.169   2.003 -17.713  0.00  0.00    +0.000 C 
ATOM      3  C   UNL     1      10.691   1.040 -20.230  0.00  0.00    +0.000 A 
ATOM      4  C   UNL     1      12.080   1.462 -20.755  0.00  0.00    +0.000 A 
ATOM      5  C   UNL     1      12.475   2.238 -18.318  0.00  0.00    +0.000 C 
ATOM      6  C   UNL     1      11.223   1.087 -16.471  0.00  0.00    +0.000 C 
ATOM      7  C   UNL     1       9.921  -0.059 -18.081  0.00  0.00    +0.000 C 
ATOM      8  C   UNL     1       9.723   0.535 -21.239  0.00  0.00    +0.000 A 
ATOM      9  C   UNL     1      12.906   1.998 -19.739  0.00  0.00    +0.000 C 
ATOM     10  C   UNL     1      10.470  -0.100 -16.679  0.00  0.00    +0.000 C 
ATOM     11  C   UNL     1      10.362   3.292 -17.411  0.00  0.00    +0.000 C 
ATOM     12  C   UNL     1      12.484   1.363 -22.185  0.00  0.00    +0.000 A 
ATOM     13  C   UNL     1      10.299   0.510 -22.532  0.00  0.00    +0.000 A 
ATOM     14  C   UNL     1      11.544   0.860 -23.116  0.00  0.00    +0.000 A 
ATOM     15  C   UNL     1      13.742   1.745 -22.646  0.00  0.00    +0.000 A 
ATOM     16  C   UNL     1      11.833   0.735 -24.465  0.00  0.00    +0.000 A 
ATOM     17  C   UNL     1      14.049   1.625 -24.002  0.00  0.00    +0.000 A 
ATOM     18  C   UNL     1      13.098   1.126 -24.894  0.00  0.00    +0.000 A 
ENDROOT
BRANCH   8  19
ATOM     19  C   UNL     1       8.355   0.295 -20.963  0.00  0.00    +0.000 C 
ATOM     20  C   UNL     1       6.878   0.047 -20.645  0.00  0.00    +0.000 C 
BRANCH  20  21
ATOM     21  C   UNL     1       5.405  -0.190 -20.301  0.00  0.00    +0.000 C 
ATOM     22  C   UNL     1       3.925  -0.432 -19.988  0.00  0.00    +0.000 C 
BRANCH  22  23
ATOM     23  C   UNL     1       2.439  -0.677 -19.709  0.00  0.00    +0.000 C 
BRANCH  23  24
ATOM     24  C   UNL     1       0.954  -0.953 -19.448  0.00  0.00    +0.000 C 
ATOM     25  C   UNL     1      -0.533  -1.196 -19.172  0.00  0.00    +0.000 C 
BRANCH  25  26
ATOM     26  C   UNL     1      -2.022  -1.408 -18.880  0.00  0.00    +0.000 C 
ATOM     27  C   UNL     1      -3.517  -1.618 -18.624  0.00  0.00    +0.000 C 
BRANCH  27  28
ATOM     28  S   UNL     1      -5.242  -1.855 -18.364  0.00  0.00    +0.000 S 
ATOM     29  O   UNL     1      -5.569  -0.494 -18.905  0.00  0.00    +0.000 OA
BRANCH  28  30
ATOM     30  C   UNL     1      -5.492  -2.608 -19.936  0.00  0.00    +0.000 C 
BRANCH  30  31
ATOM     31  C   UNL     1      -5.730  -3.274 -21.296  0.00  0.00    +0.000 C 
ATOM     32  C   UNL     1      -5.948  -3.941 -22.658  0.00  0.00    +0.000 C 
BRANCH  32  33
ATOM     33  C   UNL     1      -6.149  -4.579 -23.963  0.00  0.00    +0.000 C 
ATOM     34  F   UNL     1      -5.462  -5.756 -23.964  0.00  0.00    +0.000 F 
ATOM     35  F   UNL     1      -5.550  -3.797 -24.904  0.00  0.00    +0.000 F 
BRANCH  33  36
ATOM     36  C   UNL     1      -7.624  -4.808 -24.305  0.00  0.00    +0.000 C 
ATOM     37  F   UNL     1      -8.227  -3.675 -24.747  0.00  0.00    +0.000 F 
ATOM     38  F   UNL     1      -8.336  -5.242 -23.236  0.00  0.00    +0.000 F 
ATOM     39  F   UNL     1      -7.776  -5.739 -25.282  0.00  0.00    +0.000 F 
ENDBRANCH  33  36
ENDBRANCH  32  33
ENDBRANCH  30  31
ENDBRANCH  28  30
ENDBRANCH  27  28
ENDBRANCH  25  26
ENDBRANCH  23  24
ENDBRANCH  22  23
ENDBRANCH  20  21
ENDBRANCH   8  19
BRANCH   6  40
ATOM     40  O   UNL     1      12.226   1.166 -15.528  0.00  0.00    +0.000 OA
ATOM     41  H   UNL     1      12.282   2.055 -15.133  0.00  0.00    +0.000 HD
ENDBRANCH   6  40
BRANCH  18  42
ATOM     42  O   UNL     1      13.444   1.028 -26.212  0.00  0.00    +0.000 OA
ATOM     43  H   UNL     1      13.874   1.859 -26.480  0.00  0.00    +0.000 HD
ENDBRANCH  18  42
TORSDOF 12
ENDMDL
MODEL 8
REMARK VINA RESULT:      -5.5      5.563      6.559
REMARK  Name = Fulvestrant.pdbqt.pdb
REMARK  12 active torsions:
REMARK  status: ('A' for Active; 'I' for Inactive)
REMARK    1  A    between atoms: C_6  and  O_40
REMARK    2  A    between atoms: C_8  and  C_19
REMARK    3  A    between atoms: C_18  and  O_42
REMARK    4  A    between atoms: C_20  and  C_21
REMARK    5  A    between atoms: C_22  and  C_23
REMARK    6  A    between atoms: C_23  and  C_24
REMARK    7  A    between atoms: C_25  and  C_26
REMARK    8  A    between atoms: C_27  and  S_28
REMARK    9  A    between atoms: S_28  and  C_30
REMARK   10  A    between atoms: C_30  and  C_31
REMARK   11  A    between atoms: C_32  and  C_33
REMARK   12  A    between atoms: C_33  and  C_36
REMARK                            x       y       z     vdW  Elec       q    Type
REMARK                         _______ _______ _______ _____ _____    ______ ____
ROOT
ATOM      1  C   UNL     1       0.579 -17.946 -14.504  0.00  0.00    +0.000 C 
ATOM      2  C   UNL     1      -0.557 -18.742 -13.697  0.00  0.00    +0.000 C 
ATOM      3  C   UNL     1       1.754 -17.284 -13.851  0.00  0.00    +0.000 A 
ATOM      4  C   UNL     1       2.189 -17.651 -12.416  0.00  0.00    +0.000 A 
ATOM      5  C   UNL     1       0.039 -19.090 -12.411  0.00  0.00    +0.000 C 
ATOM      6  C   UNL     1      -0.829 -19.965 -14.600  0.00  0.00    +0.000 C 
ATOM      7  C   UNL     1       0.756 -18.633 -15.748  0.00  0.00    +0.000 C 
ATOM      8  C   UNL     1       2.569 -16.257 -14.552  0.00  0.00    +0.000 A 
ATOM      9  C   UNL     1       1.314 -18.578 -11.802  0.00  0.00    +0.000 C 
ATOM     10  C   UNL     1      -0.083 -19.883 -15.807  0.00  0.00    +0.000 C 
ATOM     11  C   UNL     1      -1.817 -17.844 -13.597  0.00  0.00    +0.000 C 
ATOM     12  C   UNL     1       3.373 -17.054 -11.737  0.00  0.00    +0.000 A 
ATOM     13  C   UNL     1       3.648 -15.823 -13.745  0.00  0.00    +0.000 A 
ATOM     14  C   UNL     1       4.138 -16.094 -12.442  0.00  0.00    +0.000 A 
ATOM     15  C   UNL     1       3.757 -17.396 -10.443  0.00  0.00    +0.000 A 
ATOM     16  C   UNL     1       5.252 -15.485 -11.887  0.00  0.00    +0.000 A 
ATOM     17  C   UNL     1       4.878 -16.792  -9.870  0.00  0.00    +0.000 A 
ATOM     18  C   UNL     1       5.610 -15.848 -10.592  0.00  0.00    +0.000 A 
ENDROOT
BRANCH   8  19
ATOM     19  C   UNL     1       2.196 -15.666 -15.783  0.00  0.00    +0.000 C 
ATOM     20  C   UNL     1       1.773 -15.036 -17.114  0.00  0.00    +0.000 C 
BRANCH  20  21
ATOM     21  C   UNL     1       1.326 -14.424 -18.444  0.00  0.00    +0.000 C 
ATOM     22  C   UNL     1       0.854 -13.797 -19.760  0.00  0.00    +0.000 C 
BRANCH  22  23
ATOM     23  C   UNL     1       0.355 -13.158 -21.059  0.00  0.00    +0.000 C 
BRANCH  23  24
ATOM     24  C   UNL     1      -0.135 -12.487 -22.347  0.00  0.00    +0.000 C 
ATOM     25  C   UNL     1      -0.654 -11.836 -23.632  0.00  0.00    +0.000 C 
BRANCH  25  26
ATOM     26  C   UNL     1      -1.200 -11.207 -24.918  0.00  0.00    +0.000 C 
ATOM     27  C   UNL     1      -1.765 -10.611 -26.212  0.00  0.00    +0.000 C 
BRANCH  27  28
ATOM     28  S   UNL     1      -2.427  -9.957 -27.706  0.00  0.00    +0.000 S 
ATOM     29  O   UNL     1      -3.615 -10.871 -27.647  0.00  0.00    +0.000 OA
BRANCH  28  30
ATOM     30  C   UNL     1      -3.301  -8.666 -26.887  0.00  0.00    +0.000 C 
BRANCH  30  31
ATOM     31  C   UNL     1      -4.074  -7.538 -26.194  0.00  0.00    +0.000 C 
ATOM     32  C   UNL     1      -4.864  -6.423 -25.500  0.00  0.00    +0.000 C 
BRANCH  32  33
ATOM     33  C   UNL     1      -5.626  -5.362 -24.837  0.00  0.00    +0.000 C 
ATOM     34  F   UNL     1      -5.572  -4.251 -25.625  0.00  0.00    +0.000 F 
ATOM     35  F   UNL     1      -4.972  -5.036 -23.687  0.00  0.00    +0.000 F 
BRANCH  33  36
ATOM     36  C   UNL     1      -7.078  -5.751 -24.544  0.00  0.00    +0.000 C 
ATOM     37  F   UNL     1      -7.276  -7.091 -24.643  0.00  0.00    +0.000 F 
ATOM     38  F   UNL     1      -7.949  -5.160 -25.399  0.00  0.00    +0.000 F 
ATOM     39  F   UNL     1      -7.454  -5.391 -23.290  0.00  0.00    +0.000 F 
ENDBRANCH  33  36
ENDBRANCH  32  33
ENDBRANCH  30  31
ENDBRANCH  28  30
ENDBRANCH  27  28
ENDBRANCH  25  26
ENDBRANCH  23  24
ENDBRANCH  22  23
ENDBRANCH  20  21
ENDBRANCH   8  19
BRANCH   6  40
ATOM     40  O   UNL     1      -1.308 -21.162 -14.111  0.00  0.00    +0.000 OA
ATOM     41  H   UNL     1      -0.605 -21.686 -13.685  0.00  0.00    +0.000 HD
ENDBRANCH   6  40
BRANCH  18  42
ATOM     42  O   UNL     1       6.699 -15.283  -9.990  0.00  0.00    +0.000 OA
ATOM     43  H   UNL     1       6.535 -14.328  -9.893  0.00  0.00    +0.000 HD
ENDBRANCH  18  42
TORSDOF 12
ENDMDL
MODEL 9
REMARK VINA RESULT:      -5.5     32.632     34.903
REMARK  Name = Fulvestrant.pdbqt.pdb
REMARK  12 active torsions:
REMARK  status: ('A' for Active; 'I' for Inactive)
REMARK    1  A    between atoms: C_6  and  O_40
REMARK    2  A    between atoms: C_8  and  C_19
REMARK    3  A    between atoms: C_18  and  O_42
REMARK    4  A    between atoms: C_20  and  C_21
REMARK    5  A    between atoms: C_22  and  C_23
REMARK    6  A    between atoms: C_23  and  C_24
REMARK    7  A    between atoms: C_25  and  C_26
REMARK    8  A    between atoms: C_27  and  S_28
REMARK    9  A    between atoms: S_28  and  C_30
REMARK   10  A    between atoms: C_30  and  C_31
REMARK   11  A    between atoms: C_32  and  C_33
REMARK   12  A    between atoms: C_33  and  C_36
REMARK                            x       y       z     vdW  Elec       q    Type
REMARK                         _______ _______ _______ _____ _____    ______ ____
ROOT
ATOM      1  C   UNL     1      -3.972  17.129 -14.643  0.00  0.00    +0.000 C 
ATOM      2  C   UNL     1      -5.539  16.910 -14.911  0.00  0.00    +0.000 C 
ATOM      3  C   UNL     1      -3.427  18.114 -13.654  0.00  0.00    +0.000 A 
ATOM      4  C   UNL     1      -4.311  18.699 -12.531  0.00  0.00    +0.000 A 
ATOM      5  C   UNL     1      -6.220  17.430 -13.731  0.00  0.00    +0.000 C 
ATOM      6  C   UNL     1      -5.651  15.376 -15.060  0.00  0.00    +0.000 C 
ATOM      7  C   UNL     1      -3.349  15.847 -14.781  0.00  0.00    +0.000 C 
ATOM      8  C   UNL     1      -2.011  18.564 -13.689  0.00  0.00    +0.000 A 
ATOM      9  C   UNL     1      -5.658  18.275 -12.622  0.00  0.00    +0.000 C 
ATOM     10  C   UNL     1      -4.370  14.764 -15.012  0.00  0.00    +0.000 C 
ATOM     11  C   UNL     1      -5.920  17.619 -16.236  0.00  0.00    +0.000 C 
ATOM     12  C   UNL     1      -3.808  19.648 -11.499  0.00  0.00    +0.000 A 
ATOM     13  C   UNL     1      -1.730  19.453 -12.624  0.00  0.00    +0.000 A 
ATOM     14  C   UNL     1      -2.449  20.040 -11.552  0.00  0.00    +0.000 A 
ATOM     15  C   UNL     1      -4.616  20.167 -10.489  0.00  0.00    +0.000 A 
ATOM     16  C   UNL     1      -1.898  20.920 -10.634  0.00  0.00    +0.000 A 
ATOM     17  C   UNL     1      -4.075  21.054  -9.557  0.00  0.00    +0.000 A 
ATOM     18  C   UNL     1      -2.730  21.421  -9.638  0.00  0.00    +0.000 A 
ENDROOT
BRANCH   8  19
ATOM     19  C   UNL     1      -1.125  18.283 -14.757  0.00  0.00    +0.000 C 
ATOM     20  C   UNL     1      -0.158  17.964 -15.902  0.00  0.00    +0.000 C 
BRANCH  20  21
ATOM     21  C   UNL     1       0.821  17.624 -17.028  0.00  0.00    +0.000 C 
ATOM     22  C   UNL     1       1.799  17.253 -18.148  0.00  0.00    +0.000 C 
BRANCH  22  23
ATOM     23  C   UNL     1       2.777  16.850 -19.256  0.00  0.00    +0.000 C 
BRANCH  23  24
ATOM     24  C   UNL     1       3.770  16.424 -20.342  0.00  0.00    +0.000 C 
ATOM     25  C   UNL     1       4.769  15.968 -21.410  0.00  0.00    +0.000 C 
BRANCH  25  26
ATOM     26  C   UNL     1       5.776  15.483 -22.458  0.00  0.00    +0.000 C 
ATOM     27  C   UNL     1       6.800  15.031 -23.503  0.00  0.00    +0.000 C 
BRANCH  27  28
ATOM     28  S   UNL     1       7.991  14.543 -24.704  0.00  0.00    +0.000 S 
ATOM     29  O   UNL     1       8.719  15.850 -24.598  0.00  0.00    +0.000 OA
BRANCH  28  30
ATOM     30  C   UNL     1       9.048  13.786 -23.516  0.00  0.00    +0.000 C 
BRANCH  30  31
ATOM     31  C   UNL     1       9.979  13.149 -22.479  0.00  0.00    +0.000 C 
ATOM     32  C   UNL     1      10.905  12.494 -21.448  0.00  0.00    +0.000 C 
BRANCH  32  33
ATOM     33  C   UNL     1      11.786  11.859 -20.464  0.00  0.00    +0.000 C 
ATOM     34  F   UNL     1      11.061  10.915 -19.799  0.00  0.00    +0.000 F 
ATOM     35  F   UNL     1      12.117  12.799 -19.535  0.00  0.00    +0.000 F 
BRANCH  33  36
ATOM     36  C   UNL     1      13.043  11.242 -21.085  0.00  0.00    +0.000 C 
ATOM     37  F   UNL     1      14.093  12.103 -21.070  0.00  0.00    +0.000 F 
ATOM     38  F   UNL     1      12.850  10.878 -22.377  0.00  0.00    +0.000 F 
ATOM     39  F   UNL     1      13.440  10.128 -20.419  0.00  0.00    +0.000 F 
ENDBRANCH  33  36
ENDBRANCH  32  33
ENDBRANCH  30  31
ENDBRANCH  28  30
ENDBRANCH  27  28
ENDBRANCH  25  26
ENDBRANCH  23  24
ENDBRANCH  22  23
ENDBRANCH  20  21
ENDBRANCH   8  19
BRANCH   6  40
ATOM     40  O   UNL     1      -6.810  14.682 -14.778  0.00  0.00    +0.000 OA
ATOM     41  H   UNL     1      -7.444  15.226 -14.278  0.00  0.00    +0.000 HD
ENDBRANCH   6  40
BRANCH  18  42
ATOM     42  O   UNL     1      -2.246  22.293  -8.704  0.00  0.00    +0.000 OA
ATOM     43  H   UNL     1      -2.140  23.165  -9.124  0.00  0.00    +0.000 HD
ENDBRANCH  18  42
TORSDOF 12
ENDMDL
