MODEL 1
REMARK VINA RESULT:      -6.4      0.000      0.000
REMARK  Name = Genistein.pdbqt.pdb
REMARK  4 active torsions:
REMARK  status: ('A' for Active; 'I' for Inactive)
REMARK    1  A    between atoms: C_4  and  C_12
REMARK    2  A    between atoms: C_7  and  O_20
REMARK    3  A    between atoms: C_11  and  O_22
REMARK    4  A    between atoms: C_17  and  O_18
REMARK                            x       y       z     vdW  Elec       q    Type
REMARK                         _______ _______ _______ _____ _____    ______ ____
ROOT
ATOM      1  O   UNL     1       6.669  -1.513 -19.281  0.00  0.00    +0.000 OA
ATOM      2  O   UNL     1       6.357   2.639 -18.869  0.00  0.00    +0.000 OA
ATOM      3  C   UNL     1       5.355   0.494 -18.644  0.00  0.00    +0.000 A 
ATOM      4  C   UNL     1       7.726   0.757 -19.517  0.00  0.00    +0.000 A 
ATOM      5  C   UNL     1       5.506  -0.916 -18.801  0.00  0.00    +0.000 A 
ATOM      6  C   UNL     1       6.487   1.427 -19.004  0.00  0.00    +0.000 A 
ATOM      7  C   UNL     1       4.149   1.002 -18.154  0.00  0.00    +0.000 A 
ATOM      8  C   UNL     1       7.506  -0.519 -19.526  0.00  0.00    +0.000 A 
ATOM      9  C   UNL     1       4.462  -1.776 -18.470  0.00  0.00    +0.000 A 
ATOM     10  C   UNL     1       3.109   0.134 -17.825  0.00  0.00    +0.000 A 
ATOM     11  C   UNL     1       3.274  -1.240 -17.984  0.00  0.00    +0.000 A 
ENDROOT
BRANCH   4  12
ATOM     12  C   UNL     1       8.965   1.409 -19.938  0.00  0.00    +0.000 A 
ATOM     13  C   UNL     1       9.056   2.060 -21.171  0.00  0.00    +0.000 A 
ATOM     14  C   UNL     1      10.092   1.397 -19.109  0.00  0.00    +0.000 A 
ATOM     15  C   UNL     1      10.236   2.682 -21.573  0.00  0.00    +0.000 A 
ATOM     16  C   UNL     1      11.280   2.015 -19.498  0.00  0.00    +0.000 A 
ATOM     17  C   UNL     1      11.341   2.654 -20.729  0.00  0.00    +0.000 A 
BRANCH  17  18
ATOM     18  O   UNL     1      12.511   3.254 -21.093  0.00  0.00    +0.000 OA
ATOM     19  H   UNL     1      13.025   2.621 -21.625  0.00  0.00    +0.000 HD
ENDBRANCH  17  18
ENDBRANCH   4  12
BRANCH   7  20
ATOM     20  O   UNL     1       3.914   2.338 -17.970  0.00  0.00    +0.000 OA
ATOM     21  H   UNL     1       3.945   2.787 -18.846  0.00  0.00    +0.000 HD
ENDBRANCH   7  20
BRANCH  11  22
ATOM     22  O   UNL     1       2.263  -2.099 -17.665  0.00  0.00    +0.000 OA
ATOM     23  H   UNL     1       2.264  -2.825 -18.314  0.00  0.00    +0.000 HD
ENDBRANCH  11  22
TORSDOF 4
ENDMDL
MODEL 2
REMARK VINA RESULT:      -6.1     10.365     15.278
REMARK  Name = Genistein.pdbqt.pdb
REMARK  4 active torsions:
REMARK  status: ('A' for Active; 'I' for Inactive)
REMARK    1  A    between atoms: C_4  and  C_12
REMARK    2  A    between atoms: C_7  and  O_20
REMARK    3  A    between atoms: C_11  and  O_22
REMARK    4  A    between atoms: C_17  and  O_18
REMARK                            x       y       z     vdW  Elec       q    Type
REMARK                         _______ _______ _______ _____ _____    ______ ____
ROOT
ATOM      1  O   UNL     1      -5.901   0.280 -20.595  0.00  0.00    +0.000 OA
ATOM      2  O   UNL     1      -6.060  -3.355 -18.529  0.00  0.00    +0.000 OA
ATOM      3  C   UNL     1      -4.947  -1.292 -18.927  0.00  0.00    +0.000 A 
ATOM      4  C   UNL     1      -7.076  -1.904 -20.171  0.00  0.00    +0.000 A 
ATOM      5  C   UNL     1      -4.932  -0.065 -19.654  0.00  0.00    +0.000 A 
ATOM      6  C   UNL     1      -6.048  -2.301 -19.154  0.00  0.00    +0.000 A 
ATOM      7  C   UNL     1      -3.932  -1.550 -18.001  0.00  0.00    +0.000 A 
ATOM      8  C   UNL     1      -6.746  -0.736 -20.625  0.00  0.00    +0.000 A 
ATOM      9  C   UNL     1      -3.917   0.865 -19.445  0.00  0.00    +0.000 A 
ATOM     10  C   UNL     1      -2.919  -0.614 -17.798  0.00  0.00    +0.000 A 
ATOM     11  C   UNL     1      -2.921   0.579 -18.517  0.00  0.00    +0.000 A 
ENDROOT
BRANCH   4  12
ATOM     12  C   UNL     1      -8.241  -2.680 -20.588  0.00  0.00    +0.000 A 
ATOM     13  C   UNL     1      -8.165  -3.583 -21.652  0.00  0.00    +0.000 A 
ATOM     14  C   UNL     1      -9.466  -2.537 -19.926  0.00  0.00    +0.000 A 
ATOM     15  C   UNL     1      -9.276  -4.324 -22.050  0.00  0.00    +0.000 A 
ATOM     16  C   UNL     1     -10.586  -3.272 -20.314  0.00  0.00    +0.000 A 
ATOM     17  C   UNL     1     -10.480  -4.161 -21.375  0.00  0.00    +0.000 A 
BRANCH  17  18
ATOM     18  O   UNL     1     -11.586  -4.872 -21.739  0.00  0.00    +0.000 OA
ATOM     19  H   UNL     1     -11.359  -5.409 -22.519  0.00  0.00    +0.000 HD
ENDBRANCH  17  18
ENDBRANCH   4  12
BRANCH   7  20
ATOM     20  O   UNL     1      -3.864  -2.697 -17.259  0.00  0.00    +0.000 OA
ATOM     21  H   UNL     1      -2.917  -2.927 -17.118  0.00  0.00    +0.000 HD
ENDBRANCH   7  20
BRANCH  11  22
ATOM     22  O   UNL     1      -1.934   1.503 -18.326  0.00  0.00    +0.000 OA
ATOM     23  H   UNL     1      -1.121   1.031 -18.075  0.00  0.00    +0.000 HD
ENDBRANCH  11  22
TORSDOF 4
ENDMDL
MODEL 3
REMARK VINA RESULT:      -5.8     11.727     15.501
REMARK  Name = Genistein.pdbqt.pdb
REMARK  4 active torsions:
REMARK  status: ('A' for Active; 'I' for Inactive)
REMARK    1  A    between atoms: C_4  and  C_12
REMARK    2  A    between atoms: C_7  and  O_20
REMARK    3  A    between atoms: C_11  and  O_22
REMARK    4  A    between atoms: C_17  and  O_18
REMARK                            x       y       z     vdW  Elec       q    Type
REMARK                         _______ _______ _______ _____ _____    ______ ____
ROOT
ATOM      1  O   UNL     1      -7.805  -4.026 -21.585  0.00  0.00    +0.000 OA
ATOM      2  O   UNL     1      -8.990  -0.935 -19.026  0.00  0.00    +0.000 OA
ATOM      3  C   UNL     1      -9.594  -2.628 -20.583  0.00  0.00    +0.000 A 
ATOM      4  C   UNL     1      -7.169  -2.235 -19.937  0.00  0.00    +0.000 A 
ATOM      5  C   UNL     1      -9.145  -3.673 -21.443  0.00  0.00    +0.000 A 
ATOM      6  C   UNL     1      -8.604  -1.833 -19.765  0.00  0.00    +0.000 A 
ATOM      7  C   UNL     1     -10.961  -2.346 -20.506  0.00  0.00    +0.000 A 
ATOM      8  C   UNL     1      -7.135  -3.210 -20.788  0.00  0.00    +0.000 A 
ATOM      9  C   UNL     1     -10.058  -4.405 -22.198  0.00  0.00    +0.000 A 
ATOM     10  C   UNL     1     -11.869  -3.082 -21.265  0.00  0.00    +0.000 A 
ATOM     11  C   UNL     1     -11.412  -4.101 -22.099  0.00  0.00    +0.000 A 
ENDROOT
BRANCH   4  12
ATOM     12  C   UNL     1      -6.008  -1.643 -19.275  0.00  0.00    +0.000 A 
ATOM     13  C   UNL     1      -5.537  -2.143 -18.058  0.00  0.00    +0.000 A 
ATOM     14  C   UNL     1      -5.338  -0.556 -19.851  0.00  0.00    +0.000 A 
ATOM     15  C   UNL     1      -4.430  -1.580 -17.427  0.00  0.00    +0.000 A 
ATOM     16  C   UNL     1      -4.230   0.017 -19.230  0.00  0.00    +0.000 A 
ATOM     17  C   UNL     1      -3.784  -0.501 -18.021  0.00  0.00    +0.000 A 
BRANCH  17  18
ATOM     18  O   UNL     1      -2.698   0.073 -17.429  0.00  0.00    +0.000 OA
ATOM     19  H   UNL     1      -2.999   0.549 -16.635  0.00  0.00    +0.000 HD
ENDBRANCH  17  18
ENDBRANCH   4  12
BRANCH   7  20
ATOM     20  O   UNL     1     -11.484  -1.363 -19.710  0.00  0.00    +0.000 OA
ATOM     21  H   UNL     1     -12.155  -0.861 -20.227  0.00  0.00    +0.000 HD
ENDBRANCH   7  20
BRANCH  11  22
ATOM     22  O   UNL     1     -12.292  -4.829 -22.846  0.00  0.00    +0.000 OA
ATOM     23  H   UNL     1     -12.714  -5.486 -22.265  0.00  0.00    +0.000 HD
ENDBRANCH  11  22
TORSDOF 4
ENDMDL
MODEL 4
REMARK VINA RESULT:      -5.8     11.539     13.355
REMARK  Name = Genistein.pdbqt.pdb
REMARK  4 active torsions:
REMARK  status: ('A' for Active; 'I' for Inactive)
REMARK    1  A    between atoms: C_4  and  C_12
REMARK    2  A    between atoms: C_7  and  O_20
REMARK    3  A    between atoms: C_11  and  O_22
REMARK    4  A    between atoms: C_17  and  O_18
REMARK                            x       y       z     vdW  Elec       q    Type
REMARK                         _______ _______ _______ _____ _____    ______ ____
ROOT
ATOM      1  O   UNL     1      12.672   9.513 -15.257  0.00  0.00    +0.000 OA
ATOM      2  O   UNL     1       9.778  12.256 -13.991  0.00  0.00    +0.000 OA
ATOM      3  C   UNL     1      11.204  11.460 -15.719  0.00  0.00    +0.000 A 
ATOM      4  C   UNL     1      11.162  10.358 -13.431  0.00  0.00    +0.000 A 
ATOM      5  C   UNL     1      12.189  10.505 -16.108  0.00  0.00    +0.000 A 
ATOM      6  C   UNL     1      10.624  11.435 -14.324  0.00  0.00    +0.000 A 
ATOM      7  C   UNL     1      10.780  12.420 -16.644  0.00  0.00    +0.000 A 
ATOM      8  C   UNL     1      12.034   9.684 -14.112  0.00  0.00    +0.000 A 
ATOM      9  C   UNL     1      12.724  10.529 -17.393  0.00  0.00    +0.000 A 
ATOM     10  C   UNL     1      11.320  12.437 -17.928  0.00  0.00    +0.000 A 
ATOM     11  C   UNL     1      12.281  11.496 -18.290  0.00  0.00    +0.000 A 
ENDROOT
BRANCH   4  12
ATOM     12  C   UNL     1      10.784  10.101 -12.043  0.00  0.00    +0.000 A 
ATOM     13  C   UNL     1       9.997   8.999 -11.700  0.00  0.00    +0.000 A 
ATOM     14  C   UNL     1      11.207  10.959 -11.020  0.00  0.00    +0.000 A 
ATOM     15  C   UNL     1       9.638   8.753 -10.376  0.00  0.00    +0.000 A 
ATOM     16  C   UNL     1      10.854  10.725  -9.692  0.00  0.00    +0.000 A 
ATOM     17  C   UNL     1      10.071   9.622  -9.381  0.00  0.00    +0.000 A 
BRANCH  17  18
ATOM     18  O   UNL     1       9.736   9.409  -8.076  0.00  0.00    +0.000 OA
ATOM     19  H   UNL     1       9.799   8.454  -7.897  0.00  0.00    +0.000 HD
ENDBRANCH  17  18
ENDBRANCH   4  12
BRANCH   7  20
ATOM     20  O   UNL     1       9.840  13.374 -16.361  0.00  0.00    +0.000 OA
ATOM     21  H   UNL     1       9.582  13.292 -15.414  0.00  0.00    +0.000 HD
ENDBRANCH   7  20
BRANCH  11  22
ATOM     22  O   UNL     1      12.817  11.503 -19.546  0.00  0.00    +0.000 OA
ATOM     23  H   UNL     1      12.175  11.920 -20.148  0.00  0.00    +0.000 HD
ENDBRANCH  11  22
TORSDOF 4
ENDMDL
MODEL 5
REMARK VINA RESULT:      -5.7      1.614      6.959
REMARK  Name = Genistein.pdbqt.pdb
REMARK  4 active torsions:
REMARK  status: ('A' for Active; 'I' for Inactive)
REMARK    1  A    between atoms: C_4  and  C_12
REMARK    2  A    between atoms: C_7  and  O_20
REMARK    3  A    between atoms: C_11  and  O_22
REMARK    4  A    between atoms: C_17  and  O_18
REMARK                            x       y       z     vdW  Elec       q    Type
REMARK                         _______ _______ _______ _____ _____    ______ ____
ROOT
ATOM      1  O   UNL     1       9.614   1.076 -18.595  0.00  0.00    +0.000 OA
ATOM      2  O   UNL     1       6.765   2.278 -21.413  0.00  0.00    +0.000 OA
ATOM      3  C   UNL     1       9.046   2.175 -20.747  0.00  0.00    +0.000 A 
ATOM      4  C   UNL     1       7.203   1.186 -19.303  0.00  0.00    +0.000 A 
ATOM      5  C   UNL     1       9.982   1.747 -19.759  0.00  0.00    +0.000 A 
ATOM      6  C   UNL     1       7.569   1.909 -20.565  0.00  0.00    +0.000 A 
ATOM      7  C   UNL     1       9.509   2.841 -21.884  0.00  0.00    +0.000 A 
ATOM      8  C   UNL     1       8.299   0.958 -18.651  0.00  0.00    +0.000 A 
ATOM      9  C   UNL     1      11.342   1.992 -19.927  0.00  0.00    +0.000 A 
ATOM     10  C   UNL     1      10.872   3.083 -22.045  0.00  0.00    +0.000 A 
ATOM     11  C   UNL     1      11.772   2.657 -21.070  0.00  0.00    +0.000 A 
ENDROOT
BRANCH   4  12
ATOM     12  C   UNL     1       5.861   0.802 -18.872  0.00  0.00    +0.000 A 
ATOM     13  C   UNL     1       5.352  -0.471 -19.142  0.00  0.00    +0.000 A 
ATOM     14  C   UNL     1       5.052   1.706 -18.173  0.00  0.00    +0.000 A 
ATOM     15  C   UNL     1       4.072  -0.838 -18.730  0.00  0.00    +0.000 A 
ATOM     16  C   UNL     1       3.770   1.352 -17.756  0.00  0.00    +0.000 A 
ATOM     17  C   UNL     1       3.291   0.080 -18.039  0.00  0.00    +0.000 A 
BRANCH  17  18
ATOM     18  O   UNL     1       2.034  -0.248 -17.621  0.00  0.00    +0.000 OA
ATOM     19  H   UNL     1       2.113  -0.850 -16.860  0.00  0.00    +0.000 HD
ENDBRANCH  17  18
ENDBRANCH   4  12
BRANCH   7  20
ATOM     20  O   UNL     1       8.686   3.288 -22.883  0.00  0.00    +0.000 OA
ATOM     21  H   UNL     1       7.784   2.922 -22.735  0.00  0.00    +0.000 HD
ENDBRANCH   7  20
BRANCH  11  22
ATOM     22  O   UNL     1      13.110   2.888 -21.216  0.00  0.00    +0.000 OA
ATOM     23  H   UNL     1      13.236   3.836 -21.401  0.00  0.00    +0.000 HD
ENDBRANCH  11  22
TORSDOF 4
ENDMDL
MODEL 6
REMARK VINA RESULT:      -5.7      1.159      2.761
REMARK  Name = Genistein.pdbqt.pdb
REMARK  4 active torsions:
REMARK  status: ('A' for Active; 'I' for Inactive)
REMARK    1  A    between atoms: C_4  and  C_12
REMARK    2  A    between atoms: C_7  and  O_20
REMARK    3  A    between atoms: C_11  and  O_22
REMARK    4  A    between atoms: C_17  and  O_18
REMARK                            x       y       z     vdW  Elec       q    Type
REMARK                         _______ _______ _______ _____ _____    ______ ____
ROOT
ATOM      1  O   UNL     1       6.578   2.816 -18.696  0.00  0.00    +0.000 OA
ATOM      2  O   UNL     1       8.522  -0.702 -19.859  0.00  0.00    +0.000 OA
ATOM      3  C   UNL     1       6.547   0.362 -19.072  0.00  0.00    +0.000 A 
ATOM      4  C   UNL     1       8.666   1.687 -19.529  0.00  0.00    +0.000 A 
ATOM      5  C   UNL     1       5.924   1.585 -18.684  0.00  0.00    +0.000 A 
ATOM      6  C   UNL     1       7.987   0.350 -19.526  0.00  0.00    +0.000 A 
ATOM      7  C   UNL     1       5.809  -0.824 -19.027  0.00  0.00    +0.000 A 
ATOM      8  C   UNL     1       7.804   2.563 -19.120  0.00  0.00    +0.000 A 
ATOM      9  C   UNL     1       4.596   1.597 -18.265  0.00  0.00    +0.000 A 
ATOM     10  C   UNL     1       4.481  -0.805 -18.606  0.00  0.00    +0.000 A 
ATOM     11  C   UNL     1       3.889   0.400 -18.232  0.00  0.00    +0.000 A 
ENDROOT
BRANCH   4  12
ATOM     12  C   UNL     1      10.046   1.968 -19.917  0.00  0.00    +0.000 A 
ATOM     13  C   UNL     1      11.107   1.723 -19.041  0.00  0.00    +0.000 A 
ATOM     14  C   UNL     1      10.337   2.491 -21.183  0.00  0.00    +0.000 A 
ATOM     15  C   UNL     1      12.424   1.990 -19.411  0.00  0.00    +0.000 A 
ATOM     16  C   UNL     1      11.650   2.764 -21.566  0.00  0.00    +0.000 A 
ATOM     17  C   UNL     1      12.684   2.510 -20.674  0.00  0.00    +0.000 A 
BRANCH  17  18
ATOM     18  O   UNL     1      13.962   2.782 -21.067  0.00  0.00    +0.000 OA
ATOM     19  H   UNL     1      14.018   2.654 -22.031  0.00  0.00    +0.000 HD
ENDBRANCH  17  18
ENDBRANCH   4  12
BRANCH   7  20
ATOM     20  O   UNL     1       6.322  -2.043 -19.380  0.00  0.00    +0.000 OA
ATOM     21  H   UNL     1       5.708  -2.746 -19.068  0.00  0.00    +0.000 HD
ENDBRANCH   7  20
BRANCH  11  22
ATOM     22  O   UNL     1       2.588   0.431 -17.818  0.00  0.00    +0.000 OA
ATOM     23  H   UNL     1       2.569   0.252 -16.861  0.00  0.00    +0.000 HD
ENDBRANCH  11  22
TORSDOF 4
ENDMDL
MODEL 7
REMARK VINA RESULT:      -5.7      1.700      7.048
REMARK  Name = Genistein.pdbqt.pdb
REMARK  4 active torsions:
REMARK  status: ('A' for Active; 'I' for Inactive)
REMARK    1  A    between atoms: C_4  and  C_12
REMARK    2  A    between atoms: C_7  and  O_20
REMARK    3  A    between atoms: C_11  and  O_22
REMARK    4  A    between atoms: C_17  and  O_18
REMARK                            x       y       z     vdW  Elec       q    Type
REMARK                         _______ _______ _______ _____ _____    ______ ____
ROOT
ATOM      1  O   UNL     1       8.720   1.836 -21.532  0.00  0.00    +0.000 OA
ATOM      2  O   UNL     1       8.731   1.451 -17.366  0.00  0.00    +0.000 OA
ATOM      3  C   UNL     1       9.926   1.934 -19.364  0.00  0.00    +0.000 A 
ATOM      4  C   UNL     1       7.459   1.326 -19.415  0.00  0.00    +0.000 A 
ATOM      5  C   UNL     1       9.875   2.054 -20.785  0.00  0.00    +0.000 A 
ATOM      6  C   UNL     1       8.688   1.554 -18.586  0.00  0.00    +0.000 A 
ATOM      7  C   UNL     1      11.132   2.173 -18.701  0.00  0.00    +0.000 A 
ATOM      8  C   UNL     1       7.782   1.521 -20.655  0.00  0.00    +0.000 A 
ATOM      9  C   UNL     1      11.017   2.403 -21.502  0.00  0.00    +0.000 A 
ATOM     10  C   UNL     1      12.270   2.522 -19.425  0.00  0.00    +0.000 A 
ATOM     11  C   UNL     1      12.202   2.635 -20.813  0.00  0.00    +0.000 A 
ENDROOT
BRANCH   4  12
ATOM     12  C   UNL     1       6.133   0.950 -18.931  0.00  0.00    +0.000 A 
ATOM     13  C   UNL     1       5.338   1.857 -18.224  0.00  0.00    +0.000 A 
ATOM     14  C   UNL     1       5.626  -0.333 -19.168  0.00  0.00    +0.000 A 
ATOM     15  C   UNL     1       4.073   1.500 -17.763  0.00  0.00    +0.000 A 
ATOM     16  C   UNL     1       4.362  -0.704 -18.711  0.00  0.00    +0.000 A 
ATOM     17  C   UNL     1       3.595   0.218 -18.012  0.00  0.00    +0.000 A 
BRANCH  17  18
ATOM     18  O   UNL     1       2.360  -0.163 -17.574  0.00  0.00    +0.000 OA
ATOM     19  H   UNL     1       1.700   0.434 -17.968  0.00  0.00    +0.000 HD
ENDBRANCH  17  18
ENDBRANCH   4  12
BRANCH   7  20
ATOM     20  O   UNL     1      11.275   2.082 -17.342  0.00  0.00    +0.000 OA
ATOM     21  H   UNL     1      11.379   1.134 -17.098  0.00  0.00    +0.000 HD
ENDBRANCH   7  20
BRANCH  11  22
ATOM     22  O   UNL     1      13.310   2.977 -21.533  0.00  0.00    +0.000 OA
ATOM     23  H   UNL     1      13.028   3.538 -22.277  0.00  0.00    +0.000 HD
ENDBRANCH  11  22
TORSDOF 4
ENDMDL
MODEL 8
REMARK VINA RESULT:      -5.5      7.954      9.651
REMARK  Name = Genistein.pdbqt.pdb
REMARK  4 active torsions:
REMARK  status: ('A' for Active; 'I' for Inactive)
REMARK    1  A    between atoms: C_4  and  C_12
REMARK    2  A    between atoms: C_7  and  O_20
REMARK    3  A    between atoms: C_11  and  O_22
REMARK    4  A    between atoms: C_17  and  O_18
REMARK                            x       y       z     vdW  Elec       q    Type
REMARK                         _______ _______ _______ _____ _____    ______ ____
ROOT
ATOM      1  O   UNL     1      -3.412  -0.634 -21.556  0.00  0.00    +0.000 OA
ATOM      2  O   UNL     1      -1.940   1.837 -18.517  0.00  0.00    +0.000 OA
ATOM      3  C   UNL     1      -3.268  -0.030 -19.152  0.00  0.00    +0.000 A 
ATOM      4  C   UNL     1      -2.007   1.340 -20.880  0.00  0.00    +0.000 A 
ATOM      5  C   UNL     1      -3.746  -0.846 -20.220  0.00  0.00    +0.000 A 
ATOM      6  C   UNL     1      -2.350   1.136 -19.435  0.00  0.00    +0.000 A 
ATOM      7  C   UNL     1      -3.658  -0.321 -17.842  0.00  0.00    +0.000 A 
ATOM      8  C   UNL     1      -2.615   0.420 -21.560  0.00  0.00    +0.000 A 
ATOM      9  C   UNL     1      -4.593  -1.921 -19.959  0.00  0.00    +0.000 A 
ATOM     10  C   UNL     1      -4.506  -1.398 -17.589  0.00  0.00    +0.000 A 
ATOM     11  C   UNL     1      -4.963  -2.185 -18.644  0.00  0.00    +0.000 A 
ENDROOT
BRANCH   4  12
ATOM     12  C   UNL     1      -1.148   2.383 -21.438  0.00  0.00    +0.000 A 
ATOM     13  C   UNL     1       0.204   2.143 -21.696  0.00  0.00    +0.000 A 
ATOM     14  C   UNL     1      -1.665   3.650 -21.730  0.00  0.00    +0.000 A 
ATOM     15  C   UNL     1       1.024   3.136 -22.228  0.00  0.00    +0.000 A 
ATOM     16  C   UNL     1      -0.856   4.653 -22.262  0.00  0.00    +0.000 A 
ATOM     17  C   UNL     1       0.484   4.386 -22.507  0.00  0.00    +0.000 A 
BRANCH  17  18
ATOM     18  O   UNL     1       1.259   5.380 -23.029  0.00  0.00    +0.000 OA
ATOM     19  H   UNL     1       1.431   5.173 -23.965  0.00  0.00    +0.000 HD
ENDBRANCH  17  18
ENDBRANCH   4  12
BRANCH   7  20
ATOM     20  O   UNL     1      -3.250   0.406 -16.756  0.00  0.00    +0.000 OA
ATOM     21  H   UNL     1      -3.439   1.357 -16.924  0.00  0.00    +0.000 HD
ENDBRANCH   7  20
BRANCH  11  22
ATOM     22  O   UNL     1      -5.793  -3.243 -18.408  0.00  0.00    +0.000 OA
ATOM     23  H   UNL     1      -6.368  -3.016 -17.656  0.00  0.00    +0.000 HD
ENDBRANCH  11  22
TORSDOF 4
ENDMDL
MODEL 9
REMARK VINA RESULT:      -5.5     15.766     17.541
REMARK  Name = Genistein.pdbqt.pdb
REMARK  4 active torsions:
REMARK  status: ('A' for Active; 'I' for Inactive)
REMARK    1  A    between atoms: C_4  and  C_12
REMARK    2  A    between atoms: C_7  and  O_20
REMARK    3  A    between atoms: C_11  and  O_22
REMARK    4  A    between atoms: C_17  and  O_18
REMARK                            x       y       z     vdW  Elec       q    Type
REMARK                         _______ _______ _______ _____ _____    ______ ____
ROOT
ATOM      1  O   UNL     1      13.665  -5.121  -5.797  0.00  0.00    +0.000 OA
ATOM      2  O   UNL     1      11.243  -8.297  -7.043  0.00  0.00    +0.000 OA
ATOM      3  C   UNL     1      12.604  -6.433  -7.617  0.00  0.00    +0.000 A 
ATOM      4  C   UNL     1      12.225  -7.093  -5.193  0.00  0.00    +0.000 A 
ATOM      5  C   UNL     1      13.421  -5.363  -7.147  0.00  0.00    +0.000 A 
ATOM      6  C   UNL     1      11.946  -7.378  -6.639  0.00  0.00    +0.000 A 
ATOM      7  C   UNL     1      12.418  -6.599  -8.993  0.00  0.00    +0.000 A 
ATOM      8  C   UNL     1      12.999  -6.055  -5.141  0.00  0.00    +0.000 A 
ATOM      9  C   UNL     1      14.026  -4.492  -8.049  0.00  0.00    +0.000 A 
ATOM     10  C   UNL     1      13.027  -5.723  -9.889  0.00  0.00    +0.000 A 
ATOM     11  C   UNL     1      13.822  -4.683  -9.412  0.00  0.00    +0.000 A 
ENDROOT
BRANCH   4  12
ATOM     12  C   UNL     1      11.724  -7.838  -4.040  0.00  0.00    +0.000 A 
ATOM     13  C   UNL     1      12.246  -9.091  -3.706  0.00  0.00    +0.000 A 
ATOM     14  C   UNL     1      10.703  -7.310  -3.241  0.00  0.00    +0.000 A 
ATOM     15  C   UNL     1      11.769  -9.801  -2.607  0.00  0.00    +0.000 A 
ATOM     16  C   UNL     1      10.216  -8.010  -2.138  0.00  0.00    +0.000 A 
ATOM     17  C   UNL     1      10.755  -9.252  -1.831  0.00  0.00    +0.000 A 
BRANCH  17  18
ATOM     18  O   UNL     1      10.265  -9.923  -0.748  0.00  0.00    +0.000 OA
ATOM     19  H   UNL     1      10.550  -9.452   0.056  0.00  0.00    +0.000 HD
ENDBRANCH  17  18
ENDBRANCH   4  12
BRANCH   7  20
ATOM     20  O   UNL     1      11.652  -7.595  -9.534  0.00  0.00    +0.000 OA
ATOM     21  H   UNL     1      11.178  -7.237 -10.320  0.00  0.00    +0.000 HD
ENDBRANCH   7  20
BRANCH  11  22
ATOM     22  O   UNL     1      14.425  -3.819 -10.281  0.00  0.00    +0.000 OA
ATOM     23  H   UNL     1      15.377  -4.019 -10.297  0.00  0.00    +0.000 HD
ENDBRANCH  11  22
TORSDOF 4
ENDMDL
