MODEL 1
REMARK VINA RESULT:      -2.2      0.000      0.000
REMARK  Name = HydrogenPeroxide.pdbqt.pdb
REMARK  1 active torsions:
REMARK  status: ('A' for Active; 'I' for Inactive)
REMARK    1  A    between atoms: O_1  and  O_3
REMARK                            x       y       z     vdW  Elec       q    Type
REMARK                         _______ _______ _______ _____ _____    ______ ____
ROOT
ATOM      1  O   UNL     1       9.248   1.262  -4.671  0.00  0.00    +0.000 OA
ATOM      2  H   UNL     1       9.756   0.475  -4.394  0.00  0.00    +0.000 HD
ENDROOT
BRANCH   1   3
ATOM      3  O   UNL     1       8.216   0.549  -5.406  0.00  0.00    +0.000 OA
ATOM      4  H   UNL     1       8.356   0.994  -6.263  0.00  0.00    +0.000 HD
ENDBRANCH   1   3
TORSDOF 1
ENDMDL
MODEL 2
REMARK VINA RESULT:      -2.2     18.371     18.913
REMARK  Name = HydrogenPeroxide.pdbqt.pdb
REMARK  1 active torsions:
REMARK  status: ('A' for Active; 'I' for Inactive)
REMARK    1  A    between atoms: O_1  and  O_3
REMARK                            x       y       z     vdW  Elec       q    Type
REMARK                         _______ _______ _______ _____ _____    ______ ____
ROOT
ATOM      1  O   UNL     1      -9.552   0.638  -6.596  0.00  0.00    +0.000 OA
ATOM      2  H   UNL     1      -8.861   0.124  -6.137  0.00  0.00    +0.000 HD
ENDROOT
BRANCH   1   3
ATOM      3  O   UNL     1     -10.689   0.056  -5.904  0.00  0.00    +0.000 OA
ATOM      4  H   UNL     1     -10.982   0.872  -5.456  0.00  0.00    +0.000 HD
ENDBRANCH   1   3
TORSDOF 1
ENDMDL
MODEL 3
REMARK VINA RESULT:      -2.2     13.553     14.010
REMARK  Name = HydrogenPeroxide.pdbqt.pdb
REMARK  1 active torsions:
REMARK  status: ('A' for Active; 'I' for Inactive)
REMARK    1  A    between atoms: O_1  and  O_3
REMARK                            x       y       z     vdW  Elec       q    Type
REMARK                         _______ _______ _______ _____ _____    ______ ____
ROOT
ATOM      1  O   UNL     1       9.324  -5.713 -16.605  0.00  0.00    +0.000 OA
ATOM      2  H   UNL     1       9.897  -6.495 -16.486  0.00  0.00    +0.000 HD
ENDROOT
BRANCH   1   3
ATOM      3  O   UNL     1       9.057  -5.909 -18.020  0.00  0.00    +0.000 OA
ATOM      4  H   UNL     1       9.791  -5.358 -18.354  0.00  0.00    +0.000 HD
ENDBRANCH   1   3
TORSDOF 1
ENDMDL
MODEL 4
REMARK VINA RESULT:      -2.2      2.310      2.442
REMARK  Name = HydrogenPeroxide.pdbqt.pdb
REMARK  1 active torsions:
REMARK  status: ('A' for Active; 'I' for Inactive)
REMARK    1  A    between atoms: O_1  and  O_3
REMARK                            x       y       z     vdW  Elec       q    Type
REMARK                         _______ _______ _______ _____ _____    ______ ____
ROOT
ATOM      1  O   UNL     1       9.665  -0.496  -5.846  0.00  0.00    +0.000 OA
ATOM      2  H   UNL     1       8.833  -0.041  -6.082  0.00  0.00    +0.000 HD
ENDROOT
BRANCH   1   3
ATOM      3  O   UNL     1       9.218  -1.843  -6.155  0.00  0.00    +0.000 OA
ATOM      4  H   UNL     1      10.010  -2.307  -5.822  0.00  0.00    +0.000 HD
ENDBRANCH   1   3
TORSDOF 1
ENDMDL
MODEL 5
REMARK VINA RESULT:      -2.1     19.499     19.698
REMARK  Name = HydrogenPeroxide.pdbqt.pdb
REMARK  1 active torsions:
REMARK  status: ('A' for Active; 'I' for Inactive)
REMARK    1  A    between atoms: O_1  and  O_3
REMARK                            x       y       z     vdW  Elec       q    Type
REMARK                         _______ _______ _______ _____ _____    ______ ____
ROOT
ATOM      1  O   UNL     1     -10.440   2.838  -7.931  0.00  0.00    +0.000 OA
ATOM      2  H   UNL     1      -9.518   2.527  -8.004  0.00  0.00    +0.000 HD
ENDROOT
BRANCH   1   3
ATOM      3  O   UNL     1     -11.016   1.572  -7.508  0.00  0.00    +0.000 OA
ATOM      4  H   UNL     1     -10.191   1.051  -7.546  0.00  0.00    +0.000 HD
ENDBRANCH   1   3
TORSDOF 1
ENDMDL
MODEL 6
REMARK VINA RESULT:      -2.0     17.049     17.053
REMARK  Name = HydrogenPeroxide.pdbqt.pdb
REMARK  1 active torsions:
REMARK  status: ('A' for Active; 'I' for Inactive)
REMARK    1  A    between atoms: O_1  and  O_3
REMARK                            x       y       z     vdW  Elec       q    Type
REMARK                         _______ _______ _______ _____ _____    ______ ____
ROOT
ATOM      1  O   UNL     1      -2.120   1.465 -18.157  0.00  0.00    +0.000 OA
ATOM      2  H   UNL     1      -2.667   1.497 -18.965  0.00  0.00    +0.000 HD
ENDROOT
BRANCH   1   3
ATOM      3  O   UNL     1      -3.200   1.169 -17.230  0.00  0.00    +0.000 OA
ATOM      4  H   UNL     1      -3.702   0.578 -17.823  0.00  0.00    +0.000 HD
ENDBRANCH   1   3
TORSDOF 1
ENDMDL
MODEL 7
REMARK VINA RESULT:      -2.0     12.832     13.428
REMARK  Name = HydrogenPeroxide.pdbqt.pdb
REMARK  1 active torsions:
REMARK  status: ('A' for Active; 'I' for Inactive)
REMARK    1  A    between atoms: O_1  and  O_3
REMARK                            x       y       z     vdW  Elec       q    Type
REMARK                         _______ _______ _______ _____ _____    ______ ____
ROOT
ATOM      1  O   UNL     1       3.518  -1.892 -16.309  0.00  0.00    +0.000 OA
ATOM      2  H   UNL     1       4.313  -2.327 -16.670  0.00  0.00    +0.000 HD
ENDROOT
BRANCH   1   3
ATOM      3  O   UNL     1       2.598  -2.326 -17.347  0.00  0.00    +0.000 OA
ATOM      4  H   UNL     1       2.665  -3.283 -17.168  0.00  0.00    +0.000 HD
ENDBRANCH   1   3
TORSDOF 1
ENDMDL
MODEL 8
REMARK VINA RESULT:      -2.0      1.198      1.488
REMARK  Name = HydrogenPeroxide.pdbqt.pdb
REMARK  1 active torsions:
REMARK  status: ('A' for Active; 'I' for Inactive)
REMARK    1  A    between atoms: O_1  and  O_3
REMARK                            x       y       z     vdW  Elec       q    Type
REMARK                         _______ _______ _______ _____ _____    ______ ____
ROOT
ATOM      1  O   UNL     1       9.128   1.458  -4.666  0.00  0.00    +0.000 OA
ATOM      2  H   UNL     1       9.384   1.687  -3.751  0.00  0.00    +0.000 HD
ENDROOT
BRANCH   1   3
ATOM      3  O   UNL     1       8.217   2.571  -4.872  0.00  0.00    +0.000 OA
ATOM      4  H   UNL     1       8.291   2.603  -5.845  0.00  0.00    +0.000 HD
ENDBRANCH   1   3
TORSDOF 1
ENDMDL
MODEL 9
REMARK VINA RESULT:      -1.9      6.124      6.506
REMARK  Name = HydrogenPeroxide.pdbqt.pdb
REMARK  1 active torsions:
REMARK  status: ('A' for Active; 'I' for Inactive)
REMARK    1  A    between atoms: O_1  and  O_3
REMARK                            x       y       z     vdW  Elec       q    Type
REMARK                         _______ _______ _______ _____ _____    ______ ____
ROOT
ATOM      1  O   UNL     1      13.690   5.117  -7.874  0.00  0.00    +0.000 OA
ATOM      2  H   UNL     1      13.299   5.163  -8.767  0.00  0.00    +0.000 HD
ENDROOT
BRANCH   1   3
ATOM      3  O   UNL     1      13.188   3.796  -7.535  0.00  0.00    +0.000 OA
ATOM      4  H   UNL     1      13.038   3.969  -6.587  0.00  0.00    +0.000 HD
ENDBRANCH   1   3
TORSDOF 1
ENDMDL
