MODEL 1
REMARK VINA RESULT:      -5.2      0.000      0.000
REMARK  Name = Hyoscyamine.pdbqt.pdb
REMARK  6 active torsions:
REMARK  status: ('A' for Active; 'I' for Inactive)
REMARK    1  A    between atoms: C_2  and  O_3
REMARK    2  A    between atoms: C_2  and  C_13
REMARK    3  A    between atoms: O_3  and  C_4
REMARK    4  A    between atoms: C_13  and  C_14
REMARK    5  A    between atoms: C_13  and  C_20
REMARK    6  A    between atoms: C_20  and  O_21
REMARK                            x       y       z     vdW  Elec       q    Type
REMARK                         _______ _______ _______ _____ _____    ______ ____
ROOT
ATOM      1  O   UNL     1       8.524  -1.567 -20.442  0.00  0.00    +0.000 OA
ATOM      2  C   UNL     1       8.153  -0.440 -20.137  0.00  0.00    +0.000 C 
ENDROOT
BRANCH   2   3
ATOM      3  O   UNL     1       6.919   0.101 -20.350  0.00  0.00    +0.000 OA
BRANCH   3   4
ATOM      4  C   UNL     1       6.052  -0.079 -19.272  0.00  0.00    +0.000 C 
ATOM      5  C   UNL     1       5.132  -1.202 -19.234  0.00  0.00    +0.000 C 
ATOM      6  C   UNL     1       3.737  -1.182 -18.776  0.00  0.00    +0.000 C 
ATOM      7  N   UNL     1       3.179   0.135 -19.334  0.00  0.00    +0.000 NA
ATOM      8  C   UNL     1       3.612  -1.039 -17.336  0.00  0.00    +0.000 C 
ATOM      9  C   UNL     1       3.896   1.072 -18.350  0.00  0.00    +0.000 C 
ATOM     10  C   UNL     1       1.719   0.209 -19.179  0.00  0.00    +0.000 C 
ATOM     11  C   UNL     1       3.712   0.459 -17.042  0.00  0.00    +0.000 C 
ATOM     12  C   UNL     1       5.297   1.064 -18.800  0.00  0.00    +0.000 C 
ENDBRANCH   3   4
ENDBRANCH   2   3
BRANCH   2  13
ATOM     13  C   UNL     1       9.054   0.563 -19.494  0.00  0.00    +0.000 C 
BRANCH  13  14
ATOM     14  C   UNL     1       9.758   0.333 -18.219  0.00  0.00    +0.000 A 
ATOM     15  C   UNL     1       9.581   1.214 -17.146  0.00  0.00    +0.000 A 
ATOM     16  C   UNL     1      10.268   1.030 -15.947  0.00  0.00    +0.000 A 
ATOM     17  C   UNL     1      11.151  -0.036 -15.809  0.00  0.00    +0.000 A 
ATOM     18  C   UNL     1      11.346  -0.915 -16.869  0.00  0.00    +0.000 A 
ATOM     19  C   UNL     1      10.656  -0.726 -18.065  0.00  0.00    +0.000 A 
ENDBRANCH  13  14
BRANCH  13  20
ATOM     20  C   UNL     1       9.280   1.781 -20.210  0.00  0.00    +0.000 C 
BRANCH  20  21
ATOM     21  O   UNL     1       9.491   2.912 -20.875  0.00  0.00    +0.000 OA
ATOM     22  H   UNL     1       9.304   3.681 -20.308  0.00  0.00    +0.000 HD
ENDBRANCH  20  21
ENDBRANCH  13  20
ENDBRANCH   2  13
TORSDOF 6
ENDMDL
MODEL 2
REMARK VINA RESULT:      -4.9     13.334     15.402
REMARK  Name = Hyoscyamine.pdbqt.pdb
REMARK  6 active torsions:
REMARK  status: ('A' for Active; 'I' for Inactive)
REMARK    1  A    between atoms: C_2  and  O_3
REMARK    2  A    between atoms: C_2  and  C_13
REMARK    3  A    between atoms: O_3  and  C_4
REMARK    4  A    between atoms: C_13  and  C_14
REMARK    5  A    between atoms: C_13  and  C_20
REMARK    6  A    between atoms: C_20  and  O_21
REMARK                            x       y       z     vdW  Elec       q    Type
REMARK                         _______ _______ _______ _____ _____    ______ ____
ROOT
ATOM      1  O   UNL     1      12.292  -3.666  -6.638  0.00  0.00    +0.000 OA
ATOM      2  C   UNL     1      12.370  -4.562  -7.470  0.00  0.00    +0.000 C 
ENDROOT
BRANCH   2   3
ATOM      3  O   UNL     1      13.012  -4.509  -8.673  0.00  0.00    +0.000 OA
BRANCH   3   4
ATOM      4  C   UNL     1      14.361  -4.176  -8.555  0.00  0.00    +0.000 C 
ATOM      5  C   UNL     1      15.226  -4.882  -7.626  0.00  0.00    +0.000 C 
ATOM      6  C   UNL     1      16.265  -4.294  -6.770  0.00  0.00    +0.000 C 
ATOM      7  N   UNL     1      15.635  -2.992  -6.257  0.00  0.00    +0.000 NA
ATOM      8  C   UNL     1      17.433  -3.854  -7.512  0.00  0.00    +0.000 C 
ATOM      9  C   UNL     1      15.754  -2.198  -7.567  0.00  0.00    +0.000 C 
ATOM     10  C   UNL     1      16.443  -2.388  -5.187  0.00  0.00    +0.000 C 
ATOM     11  C   UNL     1      17.105  -2.458  -8.044  0.00  0.00    +0.000 C 
ATOM     12  C   UNL     1      14.714  -2.775  -8.433  0.00  0.00    +0.000 C 
ENDBRANCH   3   4
ENDBRANCH   2   3
BRANCH   2  13
ATOM     13  C   UNL     1      11.709  -5.890  -7.293  0.00  0.00    +0.000 C 
BRANCH  13  14
ATOM     14  C   UNL     1      10.927  -6.264  -6.101  0.00  0.00    +0.000 A 
ATOM     15  C   UNL     1       9.583  -5.890  -5.992  0.00  0.00    +0.000 A 
ATOM     16  C   UNL     1       8.841  -6.205  -4.855  0.00  0.00    +0.000 A 
ATOM     17  C   UNL     1       9.439  -6.893  -3.804  0.00  0.00    +0.000 A 
ATOM     18  C   UNL     1      10.776  -7.263  -3.891  0.00  0.00    +0.000 A 
ATOM     19  C   UNL     1      11.513  -6.945  -5.031  0.00  0.00    +0.000 A 
ENDBRANCH  13  14
BRANCH  13  20
ATOM     20  C   UNL     1      11.801  -6.808  -8.387  0.00  0.00    +0.000 C 
BRANCH  20  21
ATOM     21  O   UNL     1      11.887  -7.660  -9.403  0.00  0.00    +0.000 OA
ATOM     22  H   UNL     1      11.030  -8.095  -9.557  0.00  0.00    +0.000 HD
ENDBRANCH  20  21
ENDBRANCH  13  20
ENDBRANCH   2  13
TORSDOF 6
ENDMDL
MODEL 3
REMARK VINA RESULT:      -4.9     22.108     24.132
REMARK  Name = Hyoscyamine.pdbqt.pdb
REMARK  6 active torsions:
REMARK  status: ('A' for Active; 'I' for Inactive)
REMARK    1  A    between atoms: C_2  and  O_3
REMARK    2  A    between atoms: C_2  and  C_13
REMARK    3  A    between atoms: O_3  and  C_4
REMARK    4  A    between atoms: C_13  and  C_14
REMARK    5  A    between atoms: C_13  and  C_20
REMARK    6  A    between atoms: C_20  and  O_21
REMARK                            x       y       z     vdW  Elec       q    Type
REMARK                         _______ _______ _______ _____ _____    ______ ____
ROOT
ATOM      1  O   UNL     1     -12.964   5.073 -11.811  0.00  0.00    +0.000 OA
ATOM      2  C   UNL     1     -13.124   5.342 -10.627  0.00  0.00    +0.000 C 
ENDROOT
BRANCH   2   3
ATOM      3  O   UNL     1     -13.476   4.477  -9.631  0.00  0.00    +0.000 OA
BRANCH   3   4
ATOM      4  C   UNL     1     -14.775   3.988  -9.770  0.00  0.00    +0.000 C 
ATOM      5  C   UNL     1     -15.921   4.804  -9.409  0.00  0.00    +0.000 C 
ATOM      6  C   UNL     1     -17.135   4.357  -8.712  0.00  0.00    +0.000 C 
ATOM      7  N   UNL     1     -16.615   3.399  -7.632  0.00  0.00    +0.000 NA
ATOM      8  C   UNL     1     -17.994   3.528  -9.539  0.00  0.00    +0.000 C 
ATOM      9  C   UNL     1     -16.283   2.226  -8.567  0.00  0.00    +0.000 C 
ATOM     10  C   UNL     1     -17.674   3.041  -6.676  0.00  0.00    +0.000 C 
ATOM     11  C   UNL     1     -17.438   2.106  -9.447  0.00  0.00    +0.000 C 
ATOM     12  C   UNL     1     -15.065   2.659  -9.269  0.00  0.00    +0.000 C 
ENDBRANCH   3   4
ENDBRANCH   2   3
BRANCH   2  13
ATOM     13  C   UNL     1     -12.988   6.727 -10.085  0.00  0.00    +0.000 C 
BRANCH  13  14
ATOM     14  C   UNL     1     -12.259   7.054  -8.846  0.00  0.00    +0.000 A 
ATOM     15  C   UNL     1     -12.959   7.422  -7.691  0.00  0.00    +0.000 A 
ATOM     16  C   UNL     1     -12.282   7.769  -6.523  0.00  0.00    +0.000 A 
ATOM     17  C   UNL     1     -10.892   7.762  -6.498  0.00  0.00    +0.000 A 
ATOM     18  C   UNL     1     -10.180   7.410  -7.640  0.00  0.00    +0.000 A 
ATOM     19  C   UNL     1     -10.863   7.063  -8.805  0.00  0.00    +0.000 A 
ENDBRANCH  13  14
BRANCH  13  20
ATOM     20  C   UNL     1     -13.550   7.784 -10.868  0.00  0.00    +0.000 C 
BRANCH  20  21
ATOM     21  O   UNL     1     -14.072   8.767 -11.594  0.00  0.00    +0.000 OA
ATOM     22  H   UNL     1     -13.856   9.632 -11.204  0.00  0.00    +0.000 HD
ENDBRANCH  20  21
ENDBRANCH  13  20
ENDBRANCH   2  13
TORSDOF 6
ENDMDL
MODEL 4
REMARK VINA RESULT:      -4.9      4.547      9.218
REMARK  Name = Hyoscyamine.pdbqt.pdb
REMARK  6 active torsions:
REMARK  status: ('A' for Active; 'I' for Inactive)
REMARK    1  A    between atoms: C_2  and  O_3
REMARK    2  A    between atoms: C_2  and  C_13
REMARK    3  A    between atoms: O_3  and  C_4
REMARK    4  A    between atoms: C_13  and  C_14
REMARK    5  A    between atoms: C_13  and  C_20
REMARK    6  A    between atoms: C_20  and  O_21
REMARK                            x       y       z     vdW  Elec       q    Type
REMARK                         _______ _______ _______ _____ _____    ______ ____
ROOT
ATOM      1  O   UNL     1      -0.494  -0.306 -21.622  0.00  0.00    +0.000 OA
ATOM      2  C   UNL     1      -0.441  -0.406 -20.403  0.00  0.00    +0.000 C 
ENDROOT
BRANCH   2   3
ATOM      3  O   UNL     1       0.439  -1.158 -19.681  0.00  0.00    +0.000 OA
BRANCH   3   4
ATOM      4  C   UNL     1       1.368  -0.387 -18.981  0.00  0.00    +0.000 C 
ATOM      5  C   UNL     1       2.203   0.581 -19.669  0.00  0.00    +0.000 C 
ATOM      6  C   UNL     1       3.626   0.849 -19.424  0.00  0.00    +0.000 C 
ATOM      7  N   UNL     1       4.236  -0.543 -19.208  0.00  0.00    +0.000 NA
ATOM      8  C   UNL     1       3.868   1.541 -18.170  0.00  0.00    +0.000 C 
ATOM      9  C   UNL     1       3.665  -0.781 -17.801  0.00  0.00    +0.000 C 
ATOM     10  C   UNL     1       5.705  -0.489 -19.190  0.00  0.00    +0.000 C 
ATOM     11  C   UNL     1       3.900   0.465 -17.084  0.00  0.00    +0.000 C 
ATOM     12  C   UNL     1       2.238  -1.054 -18.033  0.00  0.00    +0.000 C 
ENDBRANCH   3   4
ENDBRANCH   2   3
BRANCH   2  13
ATOM     13  C   UNL     1      -1.402   0.284 -19.491  0.00  0.00    +0.000 C 
BRANCH  13  14
ATOM     14  C   UNL     1      -2.396  -0.423 -18.662  0.00  0.00    +0.000 A 
ATOM     15  C   UNL     1      -3.146   0.276 -17.709  0.00  0.00    +0.000 A 
ATOM     16  C   UNL     1      -4.063  -0.386 -16.894  0.00  0.00    +0.000 A 
ATOM     17  C   UNL     1      -4.236  -1.760 -17.016  0.00  0.00    +0.000 A 
ATOM     18  C   UNL     1      -3.491  -2.472 -17.951  0.00  0.00    +0.000 A 
ATOM     19  C   UNL     1      -2.576  -1.805 -18.763  0.00  0.00    +0.000 A 
ENDBRANCH  13  14
BRANCH  13  20
ATOM     20  C   UNL     1      -1.286   1.706 -19.386  0.00  0.00    +0.000 C 
BRANCH  20  21
ATOM     21  O   UNL     1      -1.179   3.027 -19.288  0.00  0.00    +0.000 OA
ATOM     22  H   UNL     1      -1.832   3.376 -18.657  0.00  0.00    +0.000 HD
ENDBRANCH  20  21
ENDBRANCH  13  20
ENDBRANCH   2  13
TORSDOF 6
ENDMDL
MODEL 5
REMARK VINA RESULT:      -4.8      5.505      8.557
REMARK  Name = Hyoscyamine.pdbqt.pdb
REMARK  6 active torsions:
REMARK  status: ('A' for Active; 'I' for Inactive)
REMARK    1  A    between atoms: C_2  and  O_3
REMARK    2  A    between atoms: C_2  and  C_13
REMARK    3  A    between atoms: O_3  and  C_4
REMARK    4  A    between atoms: C_13  and  C_14
REMARK    5  A    between atoms: C_13  and  C_20
REMARK    6  A    between atoms: C_20  and  O_21
REMARK                            x       y       z     vdW  Elec       q    Type
REMARK                         _______ _______ _______ _____ _____    ______ ____
ROOT
ATOM      1  O   UNL     1       0.478  -2.056 -21.583  0.00  0.00    +0.000 OA
ATOM      2  C   UNL     1       0.217  -2.713 -20.583  0.00  0.00    +0.000 C 
ENDROOT
BRANCH   2   3
ATOM      3  O   UNL     1      -0.983  -3.283 -20.268  0.00  0.00    +0.000 OA
BRANCH   3   4
ATOM      4  C   UNL     1      -1.906  -2.365 -19.767  0.00  0.00    +0.000 C 
ATOM      5  C   UNL     1      -2.484  -2.534 -18.445  0.00  0.00    +0.000 C 
ATOM      6  C   UNL     1      -3.881  -2.300 -18.059  0.00  0.00    +0.000 C 
ATOM      7  N   UNL     1      -4.694  -2.863 -19.233  0.00  0.00    +0.000 NA
ATOM      8  C   UNL     1      -4.235  -0.892 -18.026  0.00  0.00    +0.000 C 
ATOM      9  C   UNL     1      -4.398  -1.729 -20.226  0.00  0.00    +0.000 C 
ATOM     10  C   UNL     1      -6.127  -2.936 -18.910  0.00  0.00    +0.000 C 
ATOM     11  C   UNL     1      -4.585  -0.502 -19.463  0.00  0.00    +0.000 C 
ATOM     12  C   UNL     1      -3.000  -1.954 -20.624  0.00  0.00    +0.000 C 
ENDBRANCH   3   4
ENDBRANCH   2   3
BRANCH   2  13
ATOM     13  C   UNL     1       1.210  -2.964 -19.496  0.00  0.00    +0.000 C 
BRANCH  13  14
ATOM     14  C   UNL     1       2.182  -1.959 -19.027  0.00  0.00    +0.000 A 
ATOM     15  C   UNL     1       3.543  -2.277 -18.949  0.00  0.00    +0.000 A 
ATOM     16  C   UNL     1       4.469  -1.349 -18.473  0.00  0.00    +0.000 A 
ATOM     17  C   UNL     1       4.042  -0.092 -18.060  0.00  0.00    +0.000 A 
ATOM     18  C   UNL     1       2.692   0.237 -18.121  0.00  0.00    +0.000 A 
ATOM     19  C   UNL     1       1.771  -0.695 -18.598  0.00  0.00    +0.000 A 
ENDBRANCH  13  14
BRANCH  13  20
ATOM     20  C   UNL     1       1.149  -4.237 -18.846  0.00  0.00    +0.000 C 
BRANCH  20  21
ATOM     21  O   UNL     1       1.093  -5.419 -18.242  0.00  0.00    +0.000 OA
ATOM     22  H   UNL     1       1.178  -5.314 -17.278  0.00  0.00    +0.000 HD
ENDBRANCH  20  21
ENDBRANCH  13  20
ENDBRANCH   2  13
TORSDOF 6
ENDMDL
MODEL 6
REMARK VINA RESULT:      -4.8     18.140     20.488
REMARK  Name = Hyoscyamine.pdbqt.pdb
REMARK  6 active torsions:
REMARK  status: ('A' for Active; 'I' for Inactive)
REMARK    1  A    between atoms: C_2  and  O_3
REMARK    2  A    between atoms: C_2  and  C_13
REMARK    3  A    between atoms: O_3  and  C_4
REMARK    4  A    between atoms: C_13  and  C_14
REMARK    5  A    between atoms: C_13  and  C_20
REMARK    6  A    between atoms: C_20  and  O_21
REMARK                            x       y       z     vdW  Elec       q    Type
REMARK                         _______ _______ _______ _____ _____    ______ ____
ROOT
ATOM      1  O   UNL     1      -5.035  18.033 -16.704  0.00  0.00    +0.000 OA
ATOM      2  C   UNL     1      -5.320  17.049 -16.033  0.00  0.00    +0.000 C 
ENDROOT
BRANCH   2   3
ATOM      3  O   UNL     1      -5.803  15.858 -16.492  0.00  0.00    +0.000 OA
BRANCH   3   4
ATOM      4  C   UNL     1      -4.815  15.050 -17.054  0.00  0.00    +0.000 C 
ATOM      5  C   UNL     1      -3.534  14.870 -16.394  0.00  0.00    +0.000 C 
ATOM      6  C   UNL     1      -2.212  14.830 -17.033  0.00  0.00    +0.000 C 
ATOM      7  N   UNL     1      -2.278  15.932 -18.099  0.00  0.00    +0.000 NA
ATOM      8  C   UNL     1      -1.984  13.613 -17.794  0.00  0.00    +0.000 C 
ATOM      9  C   UNL     1      -3.181  15.180 -19.089  0.00  0.00    +0.000 C 
ATOM     10  C   UNL     1      -0.953  16.200 -18.677  0.00  0.00    +0.000 C 
ATOM     11  C   UNL     1      -2.622  13.838 -19.165  0.00  0.00    +0.000 C 
ATOM     12  C   UNL     1      -4.512  15.217 -18.462  0.00  0.00    +0.000 C 
ENDBRANCH   3   4
ENDBRANCH   2   3
BRANCH   2  13
ATOM     13  C   UNL     1      -5.212  17.025 -14.544  0.00  0.00    +0.000 C 
BRANCH  13  14
ATOM     14  C   UNL     1      -4.227  17.814 -13.781  0.00  0.00    +0.000 A 
ATOM     15  C   UNL     1      -2.872  17.782 -14.132  0.00  0.00    +0.000 A 
ATOM     16  C   UNL     1      -1.925  18.493 -13.398  0.00  0.00    +0.000 A 
ATOM     17  C   UNL     1      -2.320  19.241 -12.294  0.00  0.00    +0.000 A 
ATOM     18  C   UNL     1      -3.661  19.276 -11.925  0.00  0.00    +0.000 A 
ATOM     19  C   UNL     1      -4.604  18.562 -12.664  0.00  0.00    +0.000 A 
ENDBRANCH  13  14
BRANCH  13  20
ATOM     20  C   UNL     1      -6.173  16.235 -13.839  0.00  0.00    +0.000 C 
BRANCH  20  21
ATOM     21  O   UNL     1      -7.066  15.500 -13.184  0.00  0.00    +0.000 OA
ATOM     22  H   UNL     1      -6.689  14.634 -12.950  0.00  0.00    +0.000 HD
ENDBRANCH  20  21
ENDBRANCH  13  20
ENDBRANCH   2  13
TORSDOF 6
ENDMDL
MODEL 7
REMARK VINA RESULT:      -4.7     16.438     18.510
REMARK  Name = Hyoscyamine.pdbqt.pdb
REMARK  6 active torsions:
REMARK  status: ('A' for Active; 'I' for Inactive)
REMARK    1  A    between atoms: C_2  and  O_3
REMARK    2  A    between atoms: C_2  and  C_13
REMARK    3  A    between atoms: O_3  and  C_4
REMARK    4  A    between atoms: C_13  and  C_14
REMARK    5  A    between atoms: C_13  and  C_20
REMARK    6  A    between atoms: C_20  and  O_21
REMARK                            x       y       z     vdW  Elec       q    Type
REMARK                         _______ _______ _______ _____ _____    ______ ____
ROOT
ATOM      1  O   UNL     1       3.491 -17.989 -16.123  0.00  0.00    +0.000 OA
ATOM      2  C   UNL     1       3.145 -16.836 -16.350  0.00  0.00    +0.000 C 
ENDROOT
BRANCH   2   3
ATOM      3  O   UNL     1       3.915 -15.714 -16.244  0.00  0.00    +0.000 OA
BRANCH   3   4
ATOM      4  C   UNL     1       4.071 -15.284 -14.926  0.00  0.00    +0.000 C 
ATOM      5  C   UNL     1       4.870 -16.047 -13.982  0.00  0.00    +0.000 C 
ATOM      6  C   UNL     1       4.555 -16.306 -12.571  0.00  0.00    +0.000 C 
ATOM      7  N   UNL     1       3.047 -16.590 -12.570  0.00  0.00    +0.000 NA
ATOM      8  C   UNL     1       4.696 -15.130 -11.730  0.00  0.00    +0.000 C 
ATOM      9  C   UNL     1       2.585 -15.140 -12.782  0.00  0.00    +0.000 C 
ATOM     10  C   UNL     1       2.599 -17.112 -11.270  0.00  0.00    +0.000 C 
ATOM     11  C   UNL     1       3.388 -14.349 -11.861  0.00  0.00    +0.000 C 
ATOM     12  C   UNL     1       2.890 -14.868 -14.195  0.00  0.00    +0.000 C 
ENDBRANCH   3   4
ENDBRANCH   2   3
BRANCH   2  13
ATOM     13  C   UNL     1       1.755 -16.473 -16.757  0.00  0.00    +0.000 C 
BRANCH  13  14
ATOM     14  C   UNL     1       0.551 -17.183 -16.286  0.00  0.00    +0.000 A 
ATOM     15  C   UNL     1      -0.487 -17.480 -17.176  0.00  0.00    +0.000 A 
ATOM     16  C   UNL     1      -1.646 -18.118 -16.738  0.00  0.00    +0.000 A 
ATOM     17  C   UNL     1      -1.786 -18.460 -15.397  0.00  0.00    +0.000 A 
ATOM     18  C   UNL     1      -0.769 -18.162 -14.497  0.00  0.00    +0.000 A 
ATOM     19  C   UNL     1       0.388 -17.523 -14.941  0.00  0.00    +0.000 A 
ENDBRANCH  13  14
BRANCH  13  20
ATOM     20  C   UNL     1       1.607 -15.327 -17.601  0.00  0.00    +0.000 C 
BRANCH  20  21
ATOM     21  O   UNL     1       1.469 -14.263 -18.385  0.00  0.00    +0.000 OA
ATOM     22  H   UNL     1       2.045 -14.338 -19.166  0.00  0.00    +0.000 HD
ENDBRANCH  20  21
ENDBRANCH  13  20
ENDBRANCH   2  13
TORSDOF 6
ENDMDL
MODEL 8
REMARK VINA RESULT:      -4.7     18.504     20.821
REMARK  Name = Hyoscyamine.pdbqt.pdb
REMARK  6 active torsions:
REMARK  status: ('A' for Active; 'I' for Inactive)
REMARK    1  A    between atoms: C_2  and  O_3
REMARK    2  A    between atoms: C_2  and  C_13
REMARK    3  A    between atoms: O_3  and  C_4
REMARK    4  A    between atoms: C_13  and  C_14
REMARK    5  A    between atoms: C_13  and  C_20
REMARK    6  A    between atoms: C_20  and  O_21
REMARK                            x       y       z     vdW  Elec       q    Type
REMARK                         _______ _______ _______ _____ _____    ______ ____
ROOT
ATOM      1  O   UNL     1      -7.137  16.516 -15.165  0.00  0.00    +0.000 OA
ATOM      2  C   UNL     1      -6.139  16.291 -14.491  0.00  0.00    +0.000 C 
ENDROOT
BRANCH   2   3
ATOM      3  O   UNL     1      -5.543  15.080 -14.290  0.00  0.00    +0.000 OA
BRANCH   3   4
ATOM      4  C   UNL     1      -4.793  14.654 -15.387  0.00  0.00    +0.000 C 
ATOM      5  C   UNL     1      -3.383  14.338 -15.247  0.00  0.00    +0.000 C 
ATOM      6  C   UNL     1      -2.309  14.672 -16.192  0.00  0.00    +0.000 C 
ATOM      7  N   UNL     1      -2.644  16.097 -16.651  0.00  0.00    +0.000 NA
ATOM      8  C   UNL     1      -2.358  13.885 -17.412  0.00  0.00    +0.000 C 
ATOM      9  C   UNL     1      -3.824  15.727 -17.562  0.00  0.00    +0.000 C 
ATOM     10  C   UNL     1      -1.538  16.690 -17.418  0.00  0.00    +0.000 C 
ATOM     11  C   UNL     1      -3.361  14.582 -18.333  0.00  0.00    +0.000 C 
ATOM     12  C   UNL     1      -4.910  15.394 -16.627  0.00  0.00    +0.000 C 
ENDBRANCH   3   4
ENDBRANCH   2   3
BRANCH   2  13
ATOM     13  C   UNL     1      -5.422  17.354 -13.726  0.00  0.00    +0.000 C 
BRANCH  13  14
ATOM     14  C   UNL     1      -4.270  18.108 -14.255  0.00  0.00    +0.000 A 
ATOM     15  C   UNL     1      -3.013  17.995 -13.650  0.00  0.00    +0.000 A 
ATOM     16  C   UNL     1      -1.924  18.729 -14.116  0.00  0.00    +0.000 A 
ATOM     17  C   UNL     1      -2.081  19.597 -15.192  0.00  0.00    +0.000 A 
ATOM     18  C   UNL     1      -3.326  19.729 -15.799  0.00  0.00    +0.000 A 
ATOM     19  C   UNL     1      -4.411  18.992 -15.328  0.00  0.00    +0.000 A 
ENDBRANCH  13  14
BRANCH  13  20
ATOM     20  C   UNL     1      -5.942  17.685 -12.436  0.00  0.00    +0.000 C 
BRANCH  20  21
ATOM     21  O   UNL     1      -6.426  17.992 -11.237  0.00  0.00    +0.000 OA
ATOM     22  H   UNL     1      -5.782  17.770 -10.542  0.00  0.00    +0.000 HD
ENDBRANCH  20  21
ENDBRANCH  13  20
ENDBRANCH   2  13
TORSDOF 6
ENDMDL
MODEL 9
REMARK VINA RESULT:      -4.6     24.570     26.827
REMARK  Name = Hyoscyamine.pdbqt.pdb
REMARK  6 active torsions:
REMARK  status: ('A' for Active; 'I' for Inactive)
REMARK    1  A    between atoms: C_2  and  O_3
REMARK    2  A    between atoms: C_2  and  C_13
REMARK    3  A    between atoms: O_3  and  C_4
REMARK    4  A    between atoms: C_13  and  C_14
REMARK    5  A    between atoms: C_13  and  C_20
REMARK    6  A    between atoms: C_20  and  O_21
REMARK                            x       y       z     vdW  Elec       q    Type
REMARK                         _______ _______ _______ _____ _____    ______ ____
ROOT
ATOM      1  O   UNL     1     -18.641  -7.143  -7.131  0.00  0.00    +0.000 OA
ATOM      2  C   UNL     1     -17.758  -6.946  -7.956  0.00  0.00    +0.000 C 
ENDROOT
BRANCH   2   3
ATOM      3  O   UNL     1     -16.661  -7.727  -8.184  0.00  0.00    +0.000 OA
BRANCH   3   4
ATOM      4  C   UNL     1     -15.902  -7.946  -7.034  0.00  0.00    +0.000 C 
ATOM      5  C   UNL     1     -15.047  -6.904  -6.495  0.00  0.00    +0.000 C 
ATOM      6  C   UNL     1     -13.697  -7.072  -5.941  0.00  0.00    +0.000 C 
ATOM      7  N   UNL     1     -13.028  -8.081  -6.884  0.00  0.00    +0.000 NA
ATOM      8  C   UNL     1     -13.690  -7.737  -4.649  0.00  0.00    +0.000 C 
ATOM      9  C   UNL     1     -13.780  -9.327  -6.390  0.00  0.00    +0.000 C 
ATOM     10  C   UNL     1     -11.584  -8.186  -6.623  0.00  0.00    +0.000 C 
ATOM     11  C   UNL     1     -13.741  -9.238  -4.937  0.00  0.00    +0.000 C 
ATOM     12  C   UNL     1     -15.134  -9.172  -6.943  0.00  0.00    +0.000 C 
ENDBRANCH   3   4
ENDBRANCH   2   3
BRANCH   2  13
ATOM     13  C   UNL     1     -17.733  -5.748  -8.846  0.00  0.00    +0.000 C 
BRANCH  13  14
ATOM     14  C   UNL     1     -16.884  -4.566  -8.607  0.00  0.00    +0.000 A 
ATOM     15  C   UNL     1     -15.785  -4.307  -9.433  0.00  0.00    +0.000 A 
ATOM     16  C   UNL     1     -14.952  -3.215  -9.197  0.00  0.00    +0.000 A 
ATOM     17  C   UNL     1     -15.204  -2.370  -8.121  0.00  0.00    +0.000 A 
ATOM     18  C   UNL     1     -16.286  -2.618  -7.284  0.00  0.00    +0.000 A 
ATOM     19  C   UNL     1     -17.115  -3.713  -7.525  0.00  0.00    +0.000 A 
ENDBRANCH  13  14
BRANCH  13  20
ATOM     20  C   UNL     1     -18.541  -5.802 -10.026  0.00  0.00    +0.000 C 
BRANCH  20  21
ATOM     21  O   UNL     1     -19.291  -5.853 -11.122  0.00  0.00    +0.000 OA
ATOM     22  H   UNL     1     -18.813  -6.301 -11.842  0.00  0.00    +0.000 HD
ENDBRANCH  20  21
ENDBRANCH  13  20
ENDBRANCH   2  13
TORSDOF 6
ENDMDL
