MODEL 1
REMARK VINA RESULT:      -7.7      0.000      0.000
REMARK  Name = 
REMARK  21 active torsions:
REMARK  status: ('A' for Active; 'I' for Inactive)
REMARK    1  A    between atoms: O_3  and  C_22
REMARK    2  A    between atoms: O_3  and  C_28
REMARK    3  A    between atoms: O_4  and  C_25
REMARK    4  A    between atoms: O_4  and  C_30
REMARK    5  A    between atoms: O_5  and  C_16
REMARK    6  A    between atoms: O_6  and  C_17
REMARK    7  A    between atoms: O_7  and  C_18
REMARK    8  A    between atoms: O_8  and  C_20
REMARK    9  A    between atoms: O_9  and  C_21
REMARK   10  A    between atoms: O_10  and  C_23
REMARK   11  A    between atoms: O_11  and  C_26
REMARK   12  A    between atoms: O_13  and  C_36
REMARK   13  A    between atoms: O_15  and  C_45
REMARK   14  A    between atoms: O_15  and  C_48
REMARK   15  A    between atoms: C_19  and  C_26
REMARK   16  A    between atoms: C_24  and  C_27
REMARK   17  A    between atoms: C_29  and  C_37
REMARK   18  A    between atoms: C_35  and  C_38
REMARK   19  A    between atoms: C_37  and  C_39
REMARK   20  A    between atoms: C_42  and  C_46
REMARK   21  A    between atoms: C_42  and  C_47
REMARK                            x       y       z     vdW  Elec       q    Type
REMARK                         _______ _______ _______ _____ _____    ______ ____
ROOT
ATOM      1  O   UNL     1       4.443  -1.728 -19.769  0.00  0.00    +0.000 OA
ATOM      2  O   UNL     1       2.837   1.780 -18.506  0.00  0.00    +0.000 OA
ATOM      3  C   UNL     1       7.519   0.203 -19.328  0.00  0.00    +0.000 A 
ATOM      4  C   UNL     1       6.657  -0.868 -19.625  0.00  0.00    +0.000 A 
ATOM      5  C   UNL     1       2.460  -0.443 -19.260  0.00  0.00    +0.000 A 
ATOM      6  C   UNL     1       5.269  -0.670 -19.475  0.00  0.00    +0.000 A 
ATOM      7  C   UNL     1       4.768   0.554 -19.033  0.00  0.00    +0.000 A 
ATOM      8  C   UNL     1       3.314   0.718 -18.903  0.00  0.00    +0.000 A 
ATOM      9  C   UNL     1       7.018   1.417 -18.846  0.00  0.00    +0.000 A 
ATOM     10  C   UNL     1       3.074  -1.559 -19.693  0.00  0.00    +0.000 A 
ATOM     11  C   UNL     1       5.645   1.594 -18.715  0.00  0.00    +0.000 A 
ENDROOT
BRANCH  10  12
ATOM     12  C   UNL     1       2.326  -2.760 -20.094  0.00  0.00    +0.000 A 
ATOM     13  C   UNL     1       1.781  -3.602 -19.118  0.00  0.00    +0.000 A 
ATOM     14  C   UNL     1       2.155  -3.090 -21.445  0.00  0.00    +0.000 A 
ATOM     15  C   UNL     1       1.065  -4.742 -19.492  0.00  0.00    +0.000 A 
ATOM     16  C   UNL     1       1.435  -4.232 -21.816  0.00  0.00    +0.000 A 
ATOM     17  C   UNL     1       0.882  -5.060 -20.839  0.00  0.00    +0.000 A 
BRANCH  17  18
ATOM     18  O   UNL     1       0.158  -6.197 -21.065  0.00  0.00    +0.000 OA
ATOM     19  C   UNL     1       0.481  -6.942 -22.232  0.00  0.00    +0.000 C 
ENDBRANCH  17  18
ENDBRANCH  10  12
BRANCH  11  20
ATOM     20  O   UNL     1       5.229   2.814 -18.256  0.00  0.00    +0.000 OA
ATOM     21  H   UNL     1       4.684   2.672 -17.450  0.00  0.00    +0.000 HD
ENDBRANCH  11  20
BRANCH   4  22
ATOM     22  C   UNL     1       7.190  -2.193 -20.134  0.00  0.00    +0.000 C 
BRANCH  22  23
ATOM     23  C   UNL     1       6.814  -2.450 -21.570  0.00  0.00    +0.000 C 
ATOM     24  C   UNL     1       6.135  -3.492 -22.090  0.00  0.00    +0.000 C 
ATOM     25  C   UNL     1       5.587  -4.656 -21.312  0.00  0.00    +0.000 C 
ATOM     26  C   UNL     1       5.859  -3.557 -23.569  0.00  0.00    +0.000 C 
ENDBRANCH  22  23
ENDBRANCH   4  22
BRANCH   5  27
ATOM     27  O   UNL     1       1.084  -0.312 -19.213  0.00  0.00    +0.000 OA
BRANCH  27  33
ATOM     28  O   UNL     1       0.262   1.418 -20.608  0.00  0.00    +0.000 OA
ATOM     29  C   UNL     1      -1.868  -0.325 -19.748  0.00  0.00    +0.000 C 
ATOM     30  C   UNL     1      -2.064   1.191 -19.873  0.00  0.00    +0.000 C 
ATOM     31  C   UNL     1      -0.770  -0.819 -20.689  0.00  0.00    +0.000 C 
ATOM     32  C   UNL     1      -0.720   1.904 -19.683  0.00  0.00    +0.000 C 
ATOM     33  C   UNL     1       0.516   0.010 -20.488  0.00  0.00    +0.000 C 
ATOM     34  C   UNL     1      -0.850   3.408 -19.904  0.00  0.00    +0.000 C 
BRANCH  29  35
ATOM     35  O   UNL     1      -3.117  -0.970 -20.061  0.00  0.00    +0.000 OA
ATOM     36  H   UNL     1      -3.168  -0.954 -21.040  0.00  0.00    +0.000 HD
ENDBRANCH  29  35
BRANCH  30  37
ATOM     37  O   UNL     1      -3.020   1.615 -18.894  0.00  0.00    +0.000 OA
ATOM     38  H   UNL     1      -3.577   2.278 -19.350  0.00  0.00    +0.000 HD
ENDBRANCH  30  37
BRANCH  31  39
ATOM     39  O   UNL     1      -1.277  -0.723 -22.037  0.00  0.00    +0.000 OA
ATOM     40  H   UNL     1      -2.100  -1.246 -22.073  0.00  0.00    +0.000 HD
ENDBRANCH  31  39
ENDBRANCH  27  33
ENDBRANCH   5  27
BRANCH   3  41
ATOM     41  O   UNL     1       8.875   0.016 -19.416  0.00  0.00    +0.000 OA
BRANCH  41  47
ATOM     42  O   UNL     1      10.068   0.924 -17.585  0.00  0.00    +0.000 OA
ATOM     43  C   UNL     1      11.325  -1.593 -17.093  0.00  0.00    +0.000 C 
ATOM     44  C   UNL     1      11.840  -0.298 -16.459  0.00  0.00    +0.000 C 
ATOM     45  C   UNL     1      10.574  -1.307 -18.392  0.00  0.00    +0.000 C 
ATOM     46  C   UNL     1      10.677   0.692 -16.303  0.00  0.00    +0.000 C 
ATOM     47  C   UNL     1       9.479  -0.255 -18.134  0.00  0.00    +0.000 C 
BRANCH  44  48
ATOM     48  O   UNL     1      12.440  -0.602 -15.199  0.00  0.00    +0.000 OA
ATOM     49  H   UNL     1      12.552  -1.575 -15.197  0.00  0.00    +0.000 HD
ENDBRANCH  44  48
BRANCH  45  50
ATOM     50  O   UNL     1      10.030  -2.542 -18.885  0.00  0.00    +0.000 OA
ATOM     51  H   UNL     1       9.151  -2.634 -18.467  0.00  0.00    +0.000 HD
ENDBRANCH  45  50
BRANCH  43  52
ATOM     52  O   UNL     1      12.440  -2.465 -17.343  0.00  0.00    +0.000 OA
ATOM     53  H   UNL     1      12.056  -3.365 -17.380  0.00  0.00    +0.000 HD
ENDBRANCH  43  52
BRANCH  46  54
ATOM     54  C   UNL     1      11.165   2.036 -15.747  0.00  0.00    +0.000 C 
BRANCH  54  55
ATOM     55  O   UNL     1      10.939   2.086 -14.336  0.00  0.00    +0.000 OA
ATOM     56  H   UNL     1      10.417   1.299 -14.106  0.00  0.00    +0.000 HD
ENDBRANCH  54  55
ENDBRANCH  46  54
ENDBRANCH  41  47
ENDBRANCH   3  41
TORSDOF 17
ENDMDL
MODEL 2
REMARK VINA RESULT:      -7.0      6.142     11.027
REMARK  Name = 
REMARK  21 active torsions:
REMARK  status: ('A' for Active; 'I' for Inactive)
REMARK    1  A    between atoms: O_3  and  C_22
REMARK    2  A    between atoms: O_3  and  C_28
REMARK    3  A    between atoms: O_4  and  C_25
REMARK    4  A    between atoms: O_4  and  C_30
REMARK    5  A    between atoms: O_5  and  C_16
REMARK    6  A    between atoms: O_6  and  C_17
REMARK    7  A    between atoms: O_7  and  C_18
REMARK    8  A    between atoms: O_8  and  C_20
REMARK    9  A    between atoms: O_9  and  C_21
REMARK   10  A    between atoms: O_10  and  C_23
REMARK   11  A    between atoms: O_11  and  C_26
REMARK   12  A    between atoms: O_13  and  C_36
REMARK   13  A    between atoms: O_15  and  C_45
REMARK   14  A    between atoms: O_15  and  C_48
REMARK   15  A    between atoms: C_19  and  C_26
REMARK   16  A    between atoms: C_24  and  C_27
REMARK   17  A    between atoms: C_29  and  C_37
REMARK   18  A    between atoms: C_35  and  C_38
REMARK   19  A    between atoms: C_37  and  C_39
REMARK   20  A    between atoms: C_42  and  C_46
REMARK   21  A    between atoms: C_42  and  C_47
REMARK                            x       y       z     vdW  Elec       q    Type
REMARK                         _______ _______ _______ _____ _____    ______ ____
ROOT
ATOM      1  O   UNL     1      -6.480  -0.907 -19.429  0.00  0.00    +0.000 OA
ATOM      2  O   UNL     1      -6.999  -0.070 -23.368  0.00  0.00    +0.000 OA
ATOM      3  C   UNL     1      -3.513   1.160 -19.988  0.00  0.00    +0.000 A 
ATOM      4  C   UNL     1      -4.466   0.357 -19.336  0.00  0.00    +0.000 A 
ATOM      5  C   UNL     1      -7.795  -1.204 -21.435  0.00  0.00    +0.000 A 
ATOM      6  C   UNL     1      -5.559  -0.126 -20.084  0.00  0.00    +0.000 A 
ATOM      7  C   UNL     1      -5.694   0.194 -21.435  0.00  0.00    +0.000 A 
ATOM      8  C   UNL     1      -6.843  -0.341 -22.178  0.00  0.00    +0.000 A 
ATOM      9  C   UNL     1      -3.671   1.514 -21.332  0.00  0.00    +0.000 A 
ATOM     10  C   UNL     1      -7.534  -1.450 -20.139  0.00  0.00    +0.000 A 
ATOM     11  C   UNL     1      -4.751   1.019 -22.054  0.00  0.00    +0.000 A 
ENDROOT
BRANCH  10  12
ATOM     12  C   UNL     1      -8.397  -2.309 -19.315  0.00  0.00    +0.000 A 
ATOM     13  C   UNL     1      -9.412  -1.739 -18.538  0.00  0.00    +0.000 A 
ATOM     14  C   UNL     1      -8.218  -3.697 -19.279  0.00  0.00    +0.000 A 
ATOM     15  C   UNL     1     -10.239  -2.548 -17.755  0.00  0.00    +0.000 A 
ATOM     16  C   UNL     1      -9.050  -4.506 -18.497  0.00  0.00    +0.000 A 
ATOM     17  C   UNL     1     -10.069  -3.934 -17.735  0.00  0.00    +0.000 A 
BRANCH  17  18
ATOM     18  O   UNL     1     -10.949  -4.607 -16.934  0.00  0.00    +0.000 OA
ATOM     19  C   UNL     1     -10.515  -5.856 -16.412  0.00  0.00    +0.000 C 
ENDBRANCH  17  18
ENDBRANCH  10  12
BRANCH  11  20
ATOM     20  O   UNL     1      -4.828   1.393 -23.369  0.00  0.00    +0.000 OA
ATOM     21  H   UNL     1      -4.814   0.580 -23.922  0.00  0.00    +0.000 HD
ENDBRANCH  11  20
BRANCH   4  22
ATOM     22  C   UNL     1      -4.314  -0.021 -17.875  0.00  0.00    +0.000 C 
BRANCH  22  23
ATOM     23  C   UNL     1      -4.235  -1.512 -17.673  0.00  0.00    +0.000 C 
ATOM     24  C   UNL     1      -3.299  -2.374 -18.116  0.00  0.00    +0.000 C 
ATOM     25  C   UNL     1      -2.088  -2.009 -18.930  0.00  0.00    +0.000 C 
ATOM     26  C   UNL     1      -3.406  -3.842 -17.799  0.00  0.00    +0.000 C 
ENDBRANCH  22  23
ENDBRANCH   4  22
BRANCH   5  27
ATOM     27  O   UNL     1      -8.855  -1.780 -22.111  0.00  0.00    +0.000 OA
BRANCH  27  33
ATOM     28  O   UNL     1      -8.589  -2.741 -24.260  0.00  0.00    +0.000 OA
ATOM     29  C   UNL     1     -10.775  -3.970 -22.836  0.00  0.00    +0.000 C 
ATOM     30  C   UNL     1     -10.844  -3.696 -24.344  0.00  0.00    +0.000 C 
ATOM     31  C   UNL     1      -9.329  -4.143 -22.373  0.00  0.00    +0.000 C 
ATOM     32  C   UNL     1      -9.936  -2.512 -24.697  0.00  0.00    +0.000 C 
ATOM     33  C   UNL     1      -8.472  -2.950 -22.846  0.00  0.00    +0.000 C 
ATOM     34  C   UNL     1      -9.892  -2.272 -26.203  0.00  0.00    +0.000 C 
BRANCH  29  35
ATOM     35  O   UNL     1     -11.531  -5.163 -22.558  0.00  0.00    +0.000 OA
ATOM     36  H   UNL     1     -11.758  -5.100 -21.606  0.00  0.00    +0.000 HD
ENDBRANCH  29  35
BRANCH  30  37
ATOM     37  O   UNL     1     -12.205  -3.430 -24.703  0.00  0.00    +0.000 OA
ATOM     38  H   UNL     1     -12.396  -2.540 -24.343  0.00  0.00    +0.000 HD
ENDBRANCH  30  37
BRANCH  31  39
ATOM     39  O   UNL     1      -8.852  -5.400 -22.897  0.00  0.00    +0.000 OA
ATOM     40  H   UNL     1      -8.272  -5.195 -23.654  0.00  0.00    +0.000 HD
ENDBRANCH  31  39
ENDBRANCH  27  33
ENDBRANCH   5  27
BRANCH   3  41
ATOM     41  O   UNL     1      -2.471   1.683 -19.266  0.00  0.00    +0.000 OA
BRANCH  41  47
ATOM     42  O   UNL     1      -0.359   0.618 -19.225  0.00  0.00    +0.000 OA
ATOM     43  C   UNL     1       0.838   2.831 -20.577  0.00  0.00    +0.000 C 
ATOM     44  C   UNL     1       1.682   1.762 -19.877  0.00  0.00    +0.000 C 
ATOM     45  C   UNL     1      -0.555   2.922 -19.957  0.00  0.00    +0.000 C 
ATOM     46  C   UNL     1       0.915   0.432 -19.865  0.00  0.00    +0.000 C 
ATOM     47  C   UNL     1      -1.202   1.525 -19.934  0.00  0.00    +0.000 C 
BRANCH  44  48
ATOM     48  O   UNL     1       2.933   1.638 -20.555  0.00  0.00    +0.000 OA
ATOM     49  H   UNL     1       2.740   1.855 -21.491  0.00  0.00    +0.000 HD
ENDBRANCH  44  48
BRANCH  45  50
ATOM     50  O   UNL     1      -1.331   3.864 -20.716  0.00  0.00    +0.000 OA
ATOM     51  H   UNL     1      -1.429   3.474 -21.607  0.00  0.00    +0.000 HD
ENDBRANCH  45  50
BRANCH  43  52
ATOM     52  O   UNL     1       1.512   4.096 -20.478  0.00  0.00    +0.000 OA
ATOM     53  H   UNL     1       1.996   4.061 -19.628  0.00  0.00    +0.000 HD
ENDBRANCH  43  52
BRANCH  46  54
ATOM     54  C   UNL     1       1.691  -0.647 -19.099  0.00  0.00    +0.000 C 
BRANCH  54  55
ATOM     55  O   UNL     1       1.683  -0.348 -17.701  0.00  0.00    +0.000 OA
ATOM     56  H   UNL     1       0.849  -0.695 -17.343  0.00  0.00    +0.000 HD
ENDBRANCH  54  55
ENDBRANCH  46  54
ENDBRANCH  41  47
ENDBRANCH   3  41
TORSDOF 17
ENDMDL
MODEL 3
REMARK VINA RESULT:      -6.7      4.033     12.302
REMARK  Name = 
REMARK  21 active torsions:
REMARK  status: ('A' for Active; 'I' for Inactive)
REMARK    1  A    between atoms: O_3  and  C_22
REMARK    2  A    between atoms: O_3  and  C_28
REMARK    3  A    between atoms: O_4  and  C_25
REMARK    4  A    between atoms: O_4  and  C_30
REMARK    5  A    between atoms: O_5  and  C_16
REMARK    6  A    between atoms: O_6  and  C_17
REMARK    7  A    between atoms: O_7  and  C_18
REMARK    8  A    between atoms: O_8  and  C_20
REMARK    9  A    between atoms: O_9  and  C_21
REMARK   10  A    between atoms: O_10  and  C_23
REMARK   11  A    between atoms: O_11  and  C_26
REMARK   12  A    between atoms: O_13  and  C_36
REMARK   13  A    between atoms: O_15  and  C_45
REMARK   14  A    between atoms: O_15  and  C_48
REMARK   15  A    between atoms: C_19  and  C_26
REMARK   16  A    between atoms: C_24  and  C_27
REMARK   17  A    between atoms: C_29  and  C_37
REMARK   18  A    between atoms: C_35  and  C_38
REMARK   19  A    between atoms: C_37  and  C_39
REMARK   20  A    between atoms: C_42  and  C_46
REMARK   21  A    between atoms: C_42  and  C_47
REMARK                            x       y       z     vdW  Elec       q    Type
REMARK                         _______ _______ _______ _____ _____    ______ ____
ROOT
ATOM      1  O   UNL     1      -1.995   0.246 -20.266  0.00  0.00    +0.000 OA
ATOM      2  O   UNL     1       0.060  -3.028 -19.026  0.00  0.00    +0.000 OA
ATOM      3  C   UNL     1      -4.779  -1.738 -18.962  0.00  0.00    +0.000 A 
ATOM      4  C   UNL     1      -4.069  -0.676 -19.551  0.00  0.00    +0.000 A 
ATOM      5  C   UNL     1       0.127  -0.894 -20.072  0.00  0.00    +0.000 A 
ATOM      6  C   UNL     1      -2.672  -0.802 -19.689  0.00  0.00    +0.000 A 
ATOM      7  C   UNL     1      -2.012  -1.947 -19.242  0.00  0.00    +0.000 A 
ATOM      8  C   UNL     1      -0.556  -2.038 -19.417  0.00  0.00    +0.000 A 
ATOM      9  C   UNL     1      -4.112  -2.867 -18.478  0.00  0.00    +0.000 A 
ATOM     10  C   UNL     1      -0.633   0.139 -20.474  0.00  0.00    +0.000 A 
ATOM     11  C   UNL     1      -2.734  -2.975 -18.632  0.00  0.00    +0.000 A 
ENDROOT
BRANCH  10  12
ATOM     12  C   UNL     1      -0.065   1.313 -21.154  0.00  0.00    +0.000 A 
ATOM     13  C   UNL     1       0.328   1.222 -22.494  0.00  0.00    +0.000 A 
ATOM     14  C   UNL     1       0.106   2.529 -20.480  0.00  0.00    +0.000 A 
ATOM     15  C   UNL     1       0.865   2.334 -23.147  0.00  0.00    +0.000 A 
ATOM     16  C   UNL     1       0.641   3.642 -21.138  0.00  0.00    +0.000 A 
ATOM     17  C   UNL     1       1.019   3.550 -22.478  0.00  0.00    +0.000 A 
BRANCH  17  18
ATOM     18  O   UNL     1       1.549   4.556 -23.236  0.00  0.00    +0.000 OA
ATOM     19  C   UNL     1       0.673   5.616 -23.600  0.00  0.00    +0.000 C 
ENDBRANCH  17  18
ENDBRANCH  10  12
BRANCH  11  20
ATOM     20  O   UNL     1      -2.154  -4.117 -18.151  0.00  0.00    +0.000 OA
ATOM     21  H   UNL     1      -1.190  -4.076 -18.337  0.00  0.00    +0.000 HD
ENDBRANCH  11  20
BRANCH   4  22
ATOM     22  C   UNL     1      -4.780   0.560 -20.067  0.00  0.00    +0.000 C 
BRANCH  22  23
ATOM     23  C   UNL     1      -5.046   0.493 -21.548  0.00  0.00    +0.000 C 
ATOM     24  C   UNL     1      -4.552   1.275 -22.529  0.00  0.00    +0.000 C 
ATOM     25  C   UNL     1      -3.593   2.417 -22.339  0.00  0.00    +0.000 C 
ATOM     26  C   UNL     1      -4.948   1.037 -23.963  0.00  0.00    +0.000 C 
ENDBRANCH  22  23
ENDBRANCH   4  22
BRANCH   5  27
ATOM     27  O   UNL     1       1.487  -0.966 -20.314  0.00  0.00    +0.000 OA
BRANCH  27  33
ATOM     28  O   UNL     1       3.514   0.251 -20.163  0.00  0.00    +0.000 OA
ATOM     29  C   UNL     1       3.304  -1.687 -18.037  0.00  0.00    +0.000 C 
ATOM     30  C   UNL     1       4.639  -1.392 -18.734  0.00  0.00    +0.000 C 
ATOM     31  C   UNL     1       2.367  -0.481 -18.108  0.00  0.00    +0.000 C 
ATOM     32  C   UNL     1       4.379  -0.894 -20.161  0.00  0.00    +0.000 C 
ATOM     33  C   UNL     1       2.233   0.004 -19.567  0.00  0.00    +0.000 C 
ATOM     34  C   UNL     1       5.675  -0.488 -20.855  0.00  0.00    +0.000 C 
BRANCH  29  35
ATOM     35  O   UNL     1       3.576  -2.023 -16.664  0.00  0.00    +0.000 OA
ATOM     36  H   UNL     1       2.846  -1.611 -16.155  0.00  0.00    +0.000 HD
ENDBRANCH  29  35
BRANCH  30  37
ATOM     37  O   UNL     1       5.431  -2.585 -18.737  0.00  0.00    +0.000 OA
ATOM     38  H   UNL     1       5.046  -3.147 -19.440  0.00  0.00    +0.000 HD
ENDBRANCH  30  37
BRANCH  31  39
ATOM     39  O   UNL     1       2.904   0.539 -17.240  0.00  0.00    +0.000 OA
ATOM     40  H   UNL     1       2.245   1.256 -17.196  0.00  0.00    +0.000 HD
ENDBRANCH  31  39
ENDBRANCH  27  33
ENDBRANCH   5  27
BRANCH   3  41
ATOM     41  O   UNL     1      -6.132  -1.614 -18.770  0.00  0.00    +0.000 OA
BRANCH  41  47
ATOM     42  O   UNL     1      -6.514  -2.970 -20.671  0.00  0.00    +0.000 OA
ATOM     43  C   UNL     1      -9.212  -3.435 -19.858  0.00  0.00    +0.000 C 
ATOM     44  C   UNL     1      -8.730  -3.761 -21.274  0.00  0.00    +0.000 C 
ATOM     45  C   UNL     1      -8.357  -2.338 -19.227  0.00  0.00    +0.000 C 
ATOM     46  C   UNL     1      -7.229  -4.080 -21.242  0.00  0.00    +0.000 C 
ATOM     47  C   UNL     1      -6.870  -2.730 -19.310  0.00  0.00    +0.000 C 
BRANCH  44  48
ATOM     48  O   UNL     1      -9.487  -4.861 -21.782  0.00  0.00    +0.000 OA
ATOM     49  H   UNL     1      -9.170  -5.643 -21.283  0.00  0.00    +0.000 HD
ENDBRANCH  44  48
BRANCH  45  50
ATOM     50  O   UNL     1      -8.790  -2.146 -17.870  0.00  0.00    +0.000 OA
ATOM     51  H   UNL     1      -9.750  -1.966 -17.918  0.00  0.00    +0.000 HD
ENDBRANCH  45  50
BRANCH  43  52
ATOM     52  O   UNL     1     -10.588  -3.024 -19.917  0.00  0.00    +0.000 OA
ATOM     53  H   UNL     1     -10.903  -3.314 -20.796  0.00  0.00    +0.000 HD
ENDBRANCH  43  52
BRANCH  46  54
ATOM     54  C   UNL     1      -6.686  -4.333 -22.655  0.00  0.00    +0.000 C 
BRANCH  54  55
ATOM     55  O   UNL     1      -7.112  -5.618 -23.113  0.00  0.00    +0.000 OA
ATOM     56  H   UNL     1      -6.813  -6.266 -22.454  0.00  0.00    +0.000 HD
ENDBRANCH  54  55
ENDBRANCH  46  54
ENDBRANCH  41  47
ENDBRANCH   3  41
TORSDOF 17
ENDMDL
MODEL 4
REMARK VINA RESULT:      -6.7      2.599      4.525
REMARK  Name = 
REMARK  21 active torsions:
REMARK  status: ('A' for Active; 'I' for Inactive)
REMARK    1  A    between atoms: O_3  and  C_22
REMARK    2  A    between atoms: O_3  and  C_28
REMARK    3  A    between atoms: O_4  and  C_25
REMARK    4  A    between atoms: O_4  and  C_30
REMARK    5  A    between atoms: O_5  and  C_16
REMARK    6  A    between atoms: O_6  and  C_17
REMARK    7  A    between atoms: O_7  and  C_18
REMARK    8  A    between atoms: O_8  and  C_20
REMARK    9  A    between atoms: O_9  and  C_21
REMARK   10  A    between atoms: O_10  and  C_23
REMARK   11  A    between atoms: O_11  and  C_26
REMARK   12  A    between atoms: O_13  and  C_36
REMARK   13  A    between atoms: O_15  and  C_45
REMARK   14  A    between atoms: O_15  and  C_48
REMARK   15  A    between atoms: C_19  and  C_26
REMARK   16  A    between atoms: C_24  and  C_27
REMARK   17  A    between atoms: C_29  and  C_37
REMARK   18  A    between atoms: C_35  and  C_38
REMARK   19  A    between atoms: C_37  and  C_39
REMARK   20  A    between atoms: C_42  and  C_46
REMARK   21  A    between atoms: C_42  and  C_47
REMARK                            x       y       z     vdW  Elec       q    Type
REMARK                         _______ _______ _______ _____ _____    ______ ____
ROOT
ATOM      1  O   UNL     1       3.212   1.161 -20.516  0.00  0.00    +0.000 OA
ATOM      2  O   UNL     1       1.845  -1.622 -17.895  0.00  0.00    +0.000 OA
ATOM      3  C   UNL     1       6.361  -0.549 -19.776  0.00  0.00    +0.000 A 
ATOM      4  C   UNL     1       5.445   0.360 -20.337  0.00  0.00    +0.000 A 
ATOM      5  C   UNL     1       1.345   0.240 -19.286  0.00  0.00    +0.000 A 
ATOM      6  C   UNL     1       4.091   0.265 -19.957  0.00  0.00    +0.000 A 
ATOM      7  C   UNL     1       3.671  -0.713 -19.055  0.00  0.00    +0.000 A 
ATOM      8  C   UNL     1       2.252  -0.767 -18.679  0.00  0.00    +0.000 A 
ATOM      9  C   UNL     1       5.932  -1.554 -18.904  0.00  0.00    +0.000 A 
ATOM     10  C   UNL     1       1.886   1.141 -20.126  0.00  0.00    +0.000 A 
ATOM     11  C   UNL     1       4.594  -1.624 -18.534  0.00  0.00    +0.000 A 
ENDROOT
BRANCH  10  12
ATOM     12  C   UNL     1       1.085   2.196 -20.766  0.00  0.00    +0.000 A 
ATOM     13  C   UNL     1       0.837   2.145 -22.142  0.00  0.00    +0.000 A 
ATOM     14  C   UNL     1       0.571   3.267 -20.024  0.00  0.00    +0.000 A 
ATOM     15  C   UNL     1       0.073   3.140 -22.757  0.00  0.00    +0.000 A 
ATOM     16  C   UNL     1      -0.196   4.261 -20.642  0.00  0.00    +0.000 A 
ATOM     17  C   UNL     1      -0.453   4.199 -22.012  0.00  0.00    +0.000 A 
BRANCH  17  18
ATOM     18  O   UNL     1      -1.185   5.098 -22.735  0.00  0.00    +0.000 OA
ATOM     19  C   UNL     1      -0.627   5.537 -23.968  0.00  0.00    +0.000 C 
ENDBRANCH  17  18
ENDBRANCH  10  12
BRANCH  11  20
ATOM     20  O   UNL     1       4.253  -2.622 -17.662  0.00  0.00    +0.000 OA
ATOM     21  H   UNL     1       3.320  -2.879 -17.836  0.00  0.00    +0.000 HD
ENDBRANCH  11  20
BRANCH   4  22
ATOM     22  C   UNL     1       5.896   1.445 -21.296  0.00  0.00    +0.000 C 
BRANCH  22  23
ATOM     23  C   UNL     1       6.003   0.948 -22.714  0.00  0.00    +0.000 C 
ATOM     24  C   UNL     1       5.251   1.279 -23.783  0.00  0.00    +0.000 C 
ATOM     25  C   UNL     1       4.108   2.256 -23.780  0.00  0.00    +0.000 C 
ATOM     26  C   UNL     1       5.528   0.662 -25.129  0.00  0.00    +0.000 C 
ENDBRANCH  22  23
ENDBRANCH   4  22
BRANCH   5  27
ATOM     27  O   UNL     1       0.014   0.265 -18.912  0.00  0.00    +0.000 OA
BRANCH  27  33
ATOM     28  O   UNL     1      -1.582   0.217 -20.662  0.00  0.00    +0.000 OA
ATOM     29  C   UNL     1      -2.765  -0.576 -18.154  0.00  0.00    +0.000 C 
ATOM     30  C   UNL     1      -3.527   0.281 -19.172  0.00  0.00    +0.000 C 
ATOM     31  C   UNL     1      -1.707  -1.440 -18.841  0.00  0.00    +0.000 C 
ATOM     32  C   UNL     1      -2.533   1.081 -20.024  0.00  0.00    +0.000 C 
ATOM     33  C   UNL     1      -0.808  -0.565 -19.741  0.00  0.00    +0.000 C 
ATOM     34  C   UNL     1      -3.244   1.867 -21.121  0.00  0.00    +0.000 C 
BRANCH  29  35
ATOM     35  O   UNL     1      -3.714  -1.410 -17.463  0.00  0.00    +0.000 OA
ATOM     36  H   UNL     1      -3.227  -1.752 -16.684  0.00  0.00    +0.000 HD
ENDBRANCH  29  35
BRANCH  30  37
ATOM     37  O   UNL     1      -4.422   1.149 -18.467  0.00  0.00    +0.000 OA
ATOM     38  H   UNL     1      -4.548   1.920 -19.057  0.00  0.00    +0.000 HD
ENDBRANCH  30  37
BRANCH  31  39
ATOM     39  O   UNL     1      -2.400  -2.462 -19.588  0.00  0.00    +0.000 OA
ATOM     40  H   UNL     1      -2.666  -2.066 -20.439  0.00  0.00    +0.000 HD
ENDBRANCH  31  39
ENDBRANCH  27  33
ENDBRANCH   5  27
BRANCH   3  41
ATOM     41  O   UNL     1       7.673  -0.508 -20.173  0.00  0.00    +0.000 OA
BRANCH  41  47
ATOM     42  O   UNL     1       9.045   1.049 -19.036  0.00  0.00    +0.000 OA
ATOM     43  C   UNL     1      10.816  -1.036 -18.215  0.00  0.00    +0.000 C 
ATOM     44  C   UNL     1      11.209   0.440 -18.117  0.00  0.00    +0.000 C 
ATOM     45  C   UNL     1       9.765  -1.251 -19.302  0.00  0.00    +0.000 C 
ATOM     46  C   UNL     1       9.947   1.296 -17.942  0.00  0.00    +0.000 C 
ATOM     47  C   UNL     1       8.577  -0.299 -19.068  0.00  0.00    +0.000 C 
BRANCH  44  48
ATOM     48  O   UNL     1      12.111   0.612 -17.022  0.00  0.00    +0.000 OA
ATOM     49  H   UNL     1      12.814  -0.057 -17.162  0.00  0.00    +0.000 HD
ENDBRANCH  44  48
BRANCH  45  50
ATOM     50  O   UNL     1       9.362  -2.631 -19.279  0.00  0.00    +0.000 OA
ATOM     51  H   UNL     1      10.121  -3.125 -18.911  0.00  0.00    +0.000 HD
ENDBRANCH  45  50
BRANCH  43  52
ATOM     52  O   UNL     1      11.991  -1.814 -18.496  0.00  0.00    +0.000 OA
ATOM     53  H   UNL     1      12.410  -1.967 -17.625  0.00  0.00    +0.000 HD
ENDBRANCH  43  52
BRANCH  46  54
ATOM     54  C   UNL     1      10.289   2.791 -17.923  0.00  0.00    +0.000 C 
BRANCH  54  55
ATOM     55  O   UNL     1      11.566   3.003 -18.531  0.00  0.00    +0.000 OA
ATOM     56  H   UNL     1      11.423   3.599 -19.285  0.00  0.00    +0.000 HD
ENDBRANCH  54  55
ENDBRANCH  46  54
ENDBRANCH  41  47
ENDBRANCH   3  41
TORSDOF 17
ENDMDL
MODEL 5
REMARK VINA RESULT:      -6.7      6.454     11.476
REMARK  Name = 
REMARK  21 active torsions:
REMARK  status: ('A' for Active; 'I' for Inactive)
REMARK    1  A    between atoms: O_3  and  C_22
REMARK    2  A    between atoms: O_3  and  C_28
REMARK    3  A    between atoms: O_4  and  C_25
REMARK    4  A    between atoms: O_4  and  C_30
REMARK    5  A    between atoms: O_5  and  C_16
REMARK    6  A    between atoms: O_6  and  C_17
REMARK    7  A    between atoms: O_7  and  C_18
REMARK    8  A    between atoms: O_8  and  C_20
REMARK    9  A    between atoms: O_9  and  C_21
REMARK   10  A    between atoms: O_10  and  C_23
REMARK   11  A    between atoms: O_11  and  C_26
REMARK   12  A    between atoms: O_13  and  C_36
REMARK   13  A    between atoms: O_15  and  C_45
REMARK   14  A    between atoms: O_15  and  C_48
REMARK   15  A    between atoms: C_19  and  C_26
REMARK   16  A    between atoms: C_24  and  C_27
REMARK   17  A    between atoms: C_29  and  C_37
REMARK   18  A    between atoms: C_35  and  C_38
REMARK   19  A    between atoms: C_37  and  C_39
REMARK   20  A    between atoms: C_42  and  C_46
REMARK   21  A    between atoms: C_42  and  C_47
REMARK                            x       y       z     vdW  Elec       q    Type
REMARK                         _______ _______ _______ _____ _____    ______ ____
ROOT
ATOM      1  O   UNL     1      -6.519  -0.575 -20.346  0.00  0.00    +0.000 OA
ATOM      2  O   UNL     1      -7.268   0.042 -24.288  0.00  0.00    +0.000 OA
ATOM      3  C   UNL     1      -3.821   1.780 -21.097  0.00  0.00    +0.000 A 
ATOM      4  C   UNL     1      -4.655   0.905 -20.379  0.00  0.00    +0.000 A 
ATOM      5  C   UNL     1      -7.864  -1.094 -22.286  0.00  0.00    +0.000 A 
ATOM      6  C   UNL     1      -5.714   0.276 -21.065  0.00  0.00    +0.000 A 
ATOM      7  C   UNL     1      -5.932   0.525 -22.420  0.00  0.00    +0.000 A 
ATOM      8  C   UNL     1      -7.040  -0.162 -23.097  0.00  0.00    +0.000 A 
ATOM      9  C   UNL     1      -4.065   2.060 -22.445  0.00  0.00    +0.000 A 
ATOM     10  C   UNL     1      -7.531  -1.257 -20.993  0.00  0.00    +0.000 A 
ATOM     11  C   UNL     1      -5.109   1.422 -23.106  0.00  0.00    +0.000 A 
ENDROOT
BRANCH  10  12
ATOM     12  C   UNL     1      -8.264  -2.172 -20.105  0.00  0.00    +0.000 A 
ATOM     13  C   UNL     1      -8.118  -3.555 -20.253  0.00  0.00    +0.000 A 
ATOM     14  C   UNL     1      -9.123  -1.685 -19.112  0.00  0.00    +0.000 A 
ATOM     15  C   UNL     1      -8.807  -4.431 -19.411  0.00  0.00    +0.000 A 
ATOM     16  C   UNL     1      -9.810  -2.564 -18.266  0.00  0.00    +0.000 A 
ATOM     17  C   UNL     1      -9.650  -3.942 -18.410  0.00  0.00    +0.000 A 
BRANCH  17  18
ATOM     18  O   UNL     1     -10.257  -4.905 -17.653  0.00  0.00    +0.000 OA
ATOM     19  C   UNL     1     -10.944  -4.467 -16.488  0.00  0.00    +0.000 C 
ENDBRANCH  17  18
ENDBRANCH  10  12
BRANCH  11  20
ATOM     20  O   UNL     1      -5.273   1.732 -24.429  0.00  0.00    +0.000 OA
ATOM     21  H   UNL     1      -4.513   2.286 -24.713  0.00  0.00    +0.000 HD
ENDBRANCH  11  20
BRANCH   4  22
ATOM     22  C   UNL     1      -4.410   0.605 -18.912  0.00  0.00    +0.000 C 
BRANCH  22  23
ATOM     23  C   UNL     1      -3.650  -0.680 -18.709  0.00  0.00    +0.000 C 
ATOM     24  C   UNL     1      -4.086  -1.844 -18.189  0.00  0.00    +0.000 C 
ATOM     25  C   UNL     1      -5.479  -2.112 -17.689  0.00  0.00    +0.000 C 
ATOM     26  C   UNL     1      -3.155  -3.023 -18.075  0.00  0.00    +0.000 C 
ENDBRANCH  22  23
ENDBRANCH   4  22
BRANCH   5  27
ATOM     27  O   UNL     1      -8.877  -1.809 -22.898  0.00  0.00    +0.000 OA
BRANCH  27  33
ATOM     28  O   UNL     1     -11.058  -1.760 -21.974  0.00  0.00    +0.000 OA
ATOM     29  C   UNL     1     -11.133  -2.421 -24.780  0.00  0.00    +0.000 C 
ATOM     30  C   UNL     1     -12.075  -3.085 -23.767  0.00  0.00    +0.000 C 
ATOM     31  C   UNL     1     -10.696  -1.037 -24.302  0.00  0.00    +0.000 C 
ATOM     32  C   UNL     1     -11.424  -3.086 -22.378  0.00  0.00    +0.000 C 
ATOM     33  C   UNL     1     -10.135  -1.121 -22.867  0.00  0.00    +0.000 C 
ATOM     34  C   UNL     1     -12.371  -3.642 -21.319  0.00  0.00    +0.000 C 
BRANCH  29  35
ATOM     35  O   UNL     1     -11.824  -2.316 -26.039  0.00  0.00    +0.000 OA
ATOM     36  H   UNL     1     -11.691  -3.186 -26.471  0.00  0.00    +0.000 HD
ENDBRANCH  29  35
BRANCH  30  37
ATOM     37  O   UNL     1     -12.362  -4.417 -24.207  0.00  0.00    +0.000 OA
ATOM     38  H   UNL     1     -13.335  -4.451 -24.305  0.00  0.00    +0.000 HD
ENDBRANCH  30  37
BRANCH  31  39
ATOM     39  O   UNL     1     -11.843  -0.165 -24.390  0.00  0.00    +0.000 OA
ATOM     40  H   UNL     1     -11.506   0.742 -24.513  0.00  0.00    +0.000 HD
ENDBRANCH  31  39
ENDBRANCH  27  33
ENDBRANCH   5  27
BRANCH   3  41
ATOM     41  O   UNL     1      -2.818   2.443 -20.437  0.00  0.00    +0.000 OA
BRANCH  41  47
ATOM     42  O   UNL     1      -0.882   1.174 -19.947  0.00  0.00    +0.000 OA
ATOM     43  C   UNL     1       0.750   3.012 -21.401  0.00  0.00    +0.000 C 
ATOM     44  C   UNL     1       1.355   1.977 -20.448  0.00  0.00    +0.000 C 
ATOM     45  C   UNL     1      -0.687   3.347 -21.006  0.00  0.00    +0.000 C 
ATOM     46  C   UNL     1       0.429   0.755 -20.366  0.00  0.00    +0.000 C 
ATOM     47  C   UNL     1      -1.505   2.048 -20.887  0.00  0.00    +0.000 C 
BRANCH  44  48
ATOM     48  O   UNL     1       2.656   1.616 -20.916  0.00  0.00    +0.000 OA
ATOM     49  H   UNL     1       2.537   1.406 -21.865  0.00  0.00    +0.000 HD
ENDBRANCH  44  48
BRANCH  45  50
ATOM     50  O   UNL     1      -1.233   4.241 -21.989  0.00  0.00    +0.000 OA
ATOM     51  H   UNL     1      -1.780   4.882 -21.494  0.00  0.00    +0.000 HD
ENDBRANCH  45  50
BRANCH  43  52
ATOM     52  O   UNL     1       1.563   4.197 -21.378  0.00  0.00    +0.000 OA
ATOM     53  H   UNL     1       2.345   3.959 -20.840  0.00  0.00    +0.000 HD
ENDBRANCH  43  52
BRANCH  46  54
ATOM     54  C   UNL     1       0.956  -0.273 -19.356  0.00  0.00    +0.000 C 
BRANCH  54  55
ATOM     55  O   UNL     1       1.806   0.375 -18.406  0.00  0.00    +0.000 OA
ATOM     56  H   UNL     1       2.223   1.123 -18.865  0.00  0.00    +0.000 HD
ENDBRANCH  54  55
ENDBRANCH  46  54
ENDBRANCH  41  47
ENDBRANCH   3  41
TORSDOF 17
ENDMDL
MODEL 6
REMARK VINA RESULT:      -6.6      2.017      9.434
REMARK  Name = 
REMARK  21 active torsions:
REMARK  status: ('A' for Active; 'I' for Inactive)
REMARK    1  A    between atoms: O_3  and  C_22
REMARK    2  A    between atoms: O_3  and  C_28
REMARK    3  A    between atoms: O_4  and  C_25
REMARK    4  A    between atoms: O_4  and  C_30
REMARK    5  A    between atoms: O_5  and  C_16
REMARK    6  A    between atoms: O_6  and  C_17
REMARK    7  A    between atoms: O_7  and  C_18
REMARK    8  A    between atoms: O_8  and  C_20
REMARK    9  A    between atoms: O_9  and  C_21
REMARK   10  A    between atoms: O_10  and  C_23
REMARK   11  A    between atoms: O_11  and  C_26
REMARK   12  A    between atoms: O_13  and  C_36
REMARK   13  A    between atoms: O_15  and  C_45
REMARK   14  A    between atoms: O_15  and  C_48
REMARK   15  A    between atoms: C_19  and  C_26
REMARK   16  A    between atoms: C_24  and  C_27
REMARK   17  A    between atoms: C_29  and  C_37
REMARK   18  A    between atoms: C_35  and  C_38
REMARK   19  A    between atoms: C_37  and  C_39
REMARK   20  A    between atoms: C_42  and  C_46
REMARK   21  A    between atoms: C_42  and  C_47
REMARK                            x       y       z     vdW  Elec       q    Type
REMARK                         _______ _______ _______ _____ _____    ______ ____
ROOT
ATOM      1  O   UNL     1       5.681  -2.013 -19.872  0.00  0.00    +0.000 OA
ATOM      2  O   UNL     1       7.189   1.683 -19.131  0.00  0.00    +0.000 OA
ATOM      3  C   UNL     1       2.708  -0.442 -18.430  0.00  0.00    +0.000 A 
ATOM      4  C   UNL     1       3.546  -1.411 -19.011  0.00  0.00    +0.000 A 
ATOM      5  C   UNL     1       7.582  -0.521 -19.932  0.00  0.00    +0.000 A 
ATOM      6  C   UNL     1       4.878  -1.053 -19.305  0.00  0.00    +0.000 A 
ATOM      7  C   UNL     1       5.347   0.233 -19.034  0.00  0.00    +0.000 A 
ATOM      8  C   UNL     1       6.745   0.557 -19.346  0.00  0.00    +0.000 A 
ATOM      9  C   UNL     1       3.167   0.858 -18.197  0.00  0.00    +0.000 A 
ATOM     10  C   UNL     1       7.009  -1.723 -20.122  0.00  0.00    +0.000 A 
ATOM     11  C   UNL     1       4.487   1.187 -18.485  0.00  0.00    +0.000 A 
ENDROOT
BRANCH  10  12
ATOM     12  C   UNL     1       7.751  -2.866 -20.673  0.00  0.00    +0.000 A 
ATOM     13  C   UNL     1       7.914  -2.991 -22.057  0.00  0.00    +0.000 A 
ATOM     14  C   UNL     1       8.293  -3.851 -19.837  0.00  0.00    +0.000 A 
ATOM     15  C   UNL     1       8.621  -4.072 -22.589  0.00  0.00    +0.000 A 
ATOM     16  C   UNL     1       9.004  -4.931 -20.372  0.00  0.00    +0.000 A 
ATOM     17  C   UNL     1       9.176  -5.043 -21.752  0.00  0.00    +0.000 A 
BRANCH  17  18
ATOM     18  O   UNL     1       9.846  -6.041 -22.401  0.00  0.00    +0.000 OA
ATOM     19  C   UNL     1       9.060  -6.968 -23.140  0.00  0.00    +0.000 C 
ENDBRANCH  17  18
ENDBRANCH  10  12
BRANCH  11  20
ATOM     20  O   UNL     1       4.868   2.473 -18.212  0.00  0.00    +0.000 OA
ATOM     21  H   UNL     1       5.508   2.758 -18.902  0.00  0.00    +0.000 HD
ENDBRANCH  11  20
BRANCH   4  22
ATOM     22  C   UNL     1       3.056  -2.820 -19.282  0.00  0.00    +0.000 C 
BRANCH  22  23
ATOM     23  C   UNL     1       2.685  -3.030 -20.727  0.00  0.00    +0.000 C 
ATOM     24  C   UNL     1       3.234  -3.871 -21.625  0.00  0.00    +0.000 C 
ATOM     25  C   UNL     1       4.372  -4.816 -21.357  0.00  0.00    +0.000 C 
ATOM     26  C   UNL     1       2.707  -3.929 -23.035  0.00  0.00    +0.000 C 
ENDBRANCH  22  23
ENDBRANCH   4  22
BRANCH   5  27
ATOM     27  O   UNL     1       8.921  -0.278 -20.182  0.00  0.00    +0.000 OA
BRANCH  27  33
ATOM     28  O   UNL     1      10.016   0.409 -18.196  0.00  0.00    +0.000 OA
ATOM     29  C   UNL     1      11.916  -0.139 -20.296  0.00  0.00    +0.000 C 
ATOM     30  C   UNL     1      12.108   1.024 -19.314  0.00  0.00    +0.000 C 
ATOM     31  C   UNL     1      11.079  -1.255 -19.671  0.00  0.00    +0.000 C 
ATOM     32  C   UNL     1      10.744   1.492 -18.791  0.00  0.00    +0.000 C 
ATOM     33  C   UNL     1       9.767  -0.680 -19.097  0.00  0.00    +0.000 C 
ATOM     34  C   UNL     1      10.895   2.578 -17.731  0.00  0.00    +0.000 C 
BRANCH  29  35
ATOM     35  O   UNL     1      13.215  -0.640 -20.664  0.00  0.00    +0.000 OA
ATOM     36  H   UNL     1      13.069  -1.118 -21.507  0.00  0.00    +0.000 HD
ENDBRANCH  29  35
BRANCH  30  37
ATOM     37  O   UNL     1      12.799   2.085 -19.984  0.00  0.00    +0.000 OA
ATOM     38  H   UNL     1      12.233   2.875 -19.865  0.00  0.00    +0.000 HD
ENDBRANCH  30  37
BRANCH  31  39
ATOM     39  O   UNL     1      11.887  -1.889 -18.658  0.00  0.00    +0.000 OA
ATOM     40  H   UNL     1      12.342  -1.180 -18.166  0.00  0.00    +0.000 HD
ENDBRANCH  31  39
ENDBRANCH  27  33
ENDBRANCH   5  27
BRANCH   3  41
ATOM     41  O   UNL     1       1.395  -0.753 -18.185  0.00  0.00    +0.000 OA
BRANCH  41  47
ATOM     42  O   UNL     1       0.617   1.268 -19.139  0.00  0.00    +0.000 OA
ATOM     43  C   UNL     1      -1.948   0.109 -19.625  0.00  0.00    +0.000 C 
ATOM     44  C   UNL     1      -1.719   1.621 -19.700  0.00  0.00    +0.000 C 
ATOM     45  C   UNL     1      -0.923  -0.555 -18.707  0.00  0.00    +0.000 C 
ATOM     46  C   UNL     1      -0.260   1.900 -20.087  0.00  0.00    +0.000 C 
ATOM     47  C   UNL     1       0.498  -0.154 -19.144  0.00  0.00    +0.000 C 
BRANCH  44  48
ATOM     48  O   UNL     1      -2.628   2.184 -20.648  0.00  0.00    +0.000 OA
ATOM     49  H   UNL     1      -2.996   1.418 -21.136  0.00  0.00    +0.000 HD
ENDBRANCH  44  48
BRANCH  45  50
ATOM     50  O   UNL     1      -1.122  -1.977 -18.755  0.00  0.00    +0.000 OA
ATOM     51  H   UNL     1      -1.322  -2.251 -17.838  0.00  0.00    +0.000 HD
ENDBRANCH  45  50
BRANCH  43  52
ATOM     52  O   UNL     1      -3.280  -0.138 -19.147  0.00  0.00    +0.000 OA
ATOM     53  H   UNL     1      -3.472  -1.065 -19.397  0.00  0.00    +0.000 HD
ENDBRANCH  43  52
BRANCH  46  54
ATOM     54  C   UNL     1       0.034   3.406 -20.093  0.00  0.00    +0.000 C 
BRANCH  54  55
ATOM     55  O   UNL     1      -0.779   4.060 -19.115  0.00  0.00    +0.000 OA
ATOM     56  H   UNL     1      -1.654   4.191 -19.517  0.00  0.00    +0.000 HD
ENDBRANCH  54  55
ENDBRANCH  46  54
ENDBRANCH  41  47
ENDBRANCH   3  41
TORSDOF 17
ENDMDL
MODEL 7
REMARK VINA RESULT:      -6.5      5.283      9.756
REMARK  Name = 
REMARK  21 active torsions:
REMARK  status: ('A' for Active; 'I' for Inactive)
REMARK    1  A    between atoms: O_3  and  C_22
REMARK    2  A    between atoms: O_3  and  C_28
REMARK    3  A    between atoms: O_4  and  C_25
REMARK    4  A    between atoms: O_4  and  C_30
REMARK    5  A    between atoms: O_5  and  C_16
REMARK    6  A    between atoms: O_6  and  C_17
REMARK    7  A    between atoms: O_7  and  C_18
REMARK    8  A    between atoms: O_8  and  C_20
REMARK    9  A    between atoms: O_9  and  C_21
REMARK   10  A    between atoms: O_10  and  C_23
REMARK   11  A    between atoms: O_11  and  C_26
REMARK   12  A    between atoms: O_13  and  C_36
REMARK   13  A    between atoms: O_15  and  C_45
REMARK   14  A    between atoms: O_15  and  C_48
REMARK   15  A    between atoms: C_19  and  C_26
REMARK   16  A    between atoms: C_24  and  C_27
REMARK   17  A    between atoms: C_29  and  C_37
REMARK   18  A    between atoms: C_35  and  C_38
REMARK   19  A    between atoms: C_37  and  C_39
REMARK   20  A    between atoms: C_42  and  C_46
REMARK   21  A    between atoms: C_42  and  C_47
REMARK                            x       y       z     vdW  Elec       q    Type
REMARK                         _______ _______ _______ _____ _____    ______ ____
ROOT
ATOM      1  O   UNL     1      -4.744  -0.166 -20.628  0.00  0.00    +0.000 OA
ATOM      2  O   UNL     1      -4.881   3.298 -22.742  0.00  0.00    +0.000 OA
ATOM      3  C   UNL     1      -1.470   1.200 -19.735  0.00  0.00    +0.000 A 
ATOM      4  C   UNL     1      -2.572   0.328 -19.791  0.00  0.00    +0.000 A 
ATOM      5  C   UNL     1      -5.960   1.262 -22.153  0.00  0.00    +0.000 A 
ATOM      6  C   UNL     1      -3.676   0.698 -20.586  0.00  0.00    +0.000 A 
ATOM      7  C   UNL     1      -3.675   1.902 -21.291  0.00  0.00    +0.000 A 
ATOM      8  C   UNL     1      -4.843   2.240 -22.116  0.00  0.00    +0.000 A 
ATOM      9  C   UNL     1      -1.487   2.425 -20.408  0.00  0.00    +0.000 A 
ATOM     10  C   UNL     1      -5.821   0.129 -21.442  0.00  0.00    +0.000 A 
ATOM     11  C   UNL     1      -2.581   2.766 -21.195  0.00  0.00    +0.000 A 
ENDROOT
BRANCH  10  12
ATOM     12  C   UNL     1      -6.855  -0.917 -21.425  0.00  0.00    +0.000 A 
ATOM     13  C   UNL     1      -7.633  -1.111 -20.278  0.00  0.00    +0.000 A 
ATOM     14  C   UNL     1      -7.073  -1.739 -22.537  0.00  0.00    +0.000 A 
ATOM     15  C   UNL     1      -8.619  -2.099 -20.255  0.00  0.00    +0.000 A 
ATOM     16  C   UNL     1      -8.064  -2.727 -22.513  0.00  0.00    +0.000 A 
ATOM     17  C   UNL     1      -8.846  -2.907 -21.372  0.00  0.00    +0.000 A 
BRANCH  17  18
ATOM     18  O   UNL     1      -9.844  -3.829 -21.218  0.00  0.00    +0.000 OA
ATOM     19  C   UNL     1     -10.522  -3.837 -19.968  0.00  0.00    +0.000 C 
ENDBRANCH  17  18
ENDBRANCH  10  12
BRANCH  11  20
ATOM     20  O   UNL     1      -2.518   3.972 -21.839  0.00  0.00    +0.000 OA
ATOM     21  H   UNL     1      -1.635   4.049 -22.263  0.00  0.00    +0.000 HD
ENDBRANCH  11  20
BRANCH   4  22
ATOM     22  C   UNL     1      -2.571  -0.996 -19.053  0.00  0.00    +0.000 C 
BRANCH  22  23
ATOM     23  C   UNL     1      -3.084  -0.867 -17.642  0.00  0.00    +0.000 C 
ATOM     24  C   UNL     1      -4.229  -1.344 -17.114  0.00  0.00    +0.000 C 
ATOM     25  C   UNL     1      -5.269  -2.140 -17.853  0.00  0.00    +0.000 C 
ATOM     26  C   UNL     1      -4.556  -1.103 -15.663  0.00  0.00    +0.000 C 
ENDBRANCH  22  23
ENDBRANCH   4  22
BRANCH   5  27
ATOM     27  O   UNL     1      -7.050   1.511 -22.967  0.00  0.00    +0.000 OA
BRANCH  27  33
ATOM     28  O   UNL     1      -9.053   1.770 -21.728  0.00  0.00    +0.000 OA
ATOM     29  C   UNL     1      -9.396   2.648 -24.454  0.00  0.00    +0.000 C 
ATOM     30  C   UNL     1     -10.503   1.901 -23.700  0.00  0.00    +0.000 C 
ATOM     31  C   UNL     1      -8.480   3.399 -23.487  0.00  0.00    +0.000 C 
ATOM     32  C   UNL     1      -9.881   1.009 -22.618  0.00  0.00    +0.000 C 
ATOM     33  C   UNL     1      -7.971   2.444 -22.387  0.00  0.00    +0.000 C 
ATOM     34  C   UNL     1     -10.953   0.327 -21.773  0.00  0.00    +0.000 C 
BRANCH  29  35
ATOM     35  O   UNL     1     -10.015   3.572 -25.368  0.00  0.00    +0.000 OA
ATOM     36  H   UNL     1      -9.764   3.249 -26.259  0.00  0.00    +0.000 HD
ENDBRANCH  29  35
BRANCH  30  37
ATOM     37  O   UNL     1     -11.260   1.127 -24.638  0.00  0.00    +0.000 OA
ATOM     38  H   UNL     1     -11.914   0.638 -24.099  0.00  0.00    +0.000 HD
ENDBRANCH  30  37
BRANCH  31  39
ATOM     39  O   UNL     1      -9.231   4.505 -22.947  0.00  0.00    +0.000 OA
ATOM     40  H   UNL     1      -8.794   5.324 -23.246  0.00  0.00    +0.000 HD
ENDBRANCH  31  39
ENDBRANCH  27  33
ENDBRANCH   5  27
BRANCH   3  41
ATOM     41  O   UNL     1      -0.408   0.885 -18.925  0.00  0.00    +0.000 OA
BRANCH  41  47
ATOM     42  O   UNL     1       0.896  -1.049 -19.323  0.00  0.00    +0.000 OA
ATOM     43  C   UNL     1       3.181   0.557 -19.924  0.00  0.00    +0.000 C 
ATOM     44  C   UNL     1       3.301  -0.945 -19.649  0.00  0.00    +0.000 C 
ATOM     45  C   UNL     1       1.940   1.139 -19.250  0.00  0.00    +0.000 C 
ATOM     46  C   UNL     1       1.992  -1.643 -20.042  0.00  0.00    +0.000 C 
ATOM     47  C   UNL     1       0.699   0.324 -19.660  0.00  0.00    +0.000 C 
BRANCH  44  48
ATOM     48  O   UNL     1       4.411  -1.466 -20.382  0.00  0.00    +0.000 OA
ATOM     49  H   UNL     1       5.205  -1.110 -19.932  0.00  0.00    +0.000 HD
ENDBRANCH  44  48
BRANCH  45  50
ATOM     50  O   UNL     1       1.825   2.522 -19.625  0.00  0.00    +0.000 OA
ATOM     51  H   UNL     1       2.730   2.890 -19.571  0.00  0.00    +0.000 HD
ENDBRANCH  45  50
BRANCH  43  52
ATOM     52  O   UNL     1       4.365   1.215 -19.443  0.00  0.00    +0.000 OA
ATOM     53  H   UNL     1       5.099   0.831 -19.964  0.00  0.00    +0.000 HD
ENDBRANCH  43  52
BRANCH  46  54
ATOM     54  C   UNL     1       2.039  -3.139 -19.705  0.00  0.00    +0.000 C 
BRANCH  54  55
ATOM     55  O   UNL     1       1.918  -3.320 -18.292  0.00  0.00    +0.000 OA
ATOM     56  H   UNL     1       1.158  -3.908 -18.147  0.00  0.00    +0.000 HD
ENDBRANCH  54  55
ENDBRANCH  46  54
ENDBRANCH  41  47
ENDBRANCH   3  41
TORSDOF 17
ENDMDL
MODEL 8
REMARK VINA RESULT:      -6.4      7.148     13.703
REMARK  Name = 
REMARK  21 active torsions:
REMARK  status: ('A' for Active; 'I' for Inactive)
REMARK    1  A    between atoms: O_3  and  C_22
REMARK    2  A    between atoms: O_3  and  C_28
REMARK    3  A    between atoms: O_4  and  C_25
REMARK    4  A    between atoms: O_4  and  C_30
REMARK    5  A    between atoms: O_5  and  C_16
REMARK    6  A    between atoms: O_6  and  C_17
REMARK    7  A    between atoms: O_7  and  C_18
REMARK    8  A    between atoms: O_8  and  C_20
REMARK    9  A    between atoms: O_9  and  C_21
REMARK   10  A    between atoms: O_10  and  C_23
REMARK   11  A    between atoms: O_11  and  C_26
REMARK   12  A    between atoms: O_13  and  C_36
REMARK   13  A    between atoms: O_15  and  C_45
REMARK   14  A    between atoms: O_15  and  C_48
REMARK   15  A    between atoms: C_19  and  C_26
REMARK   16  A    between atoms: C_24  and  C_27
REMARK   17  A    between atoms: C_29  and  C_37
REMARK   18  A    between atoms: C_35  and  C_38
REMARK   19  A    between atoms: C_37  and  C_39
REMARK   20  A    between atoms: C_42  and  C_46
REMARK   21  A    between atoms: C_42  and  C_47
REMARK                            x       y       z     vdW  Elec       q    Type
REMARK                         _______ _______ _______ _____ _____    ______ ____
ROOT
ATOM      1  O   UNL     1      -5.586  -1.285 -22.270  0.00  0.00    +0.000 OA
ATOM      2  O   UNL     1      -3.585  -1.054 -18.745  0.00  0.00    +0.000 OA
ATOM      3  C   UNL     1      -7.967  -3.048 -20.124  0.00  0.00    +0.000 A 
ATOM      4  C   UNL     1      -7.389  -2.472 -21.269  0.00  0.00    +0.000 A 
ATOM      5  C   UNL     1      -3.612  -0.568 -21.073  0.00  0.00    +0.000 A 
ATOM      6  C   UNL     1      -6.134  -1.843 -21.140  0.00  0.00    +0.000 A 
ATOM      7  C   UNL     1      -5.489  -1.786 -19.904  0.00  0.00    +0.000 A 
ATOM      8  C   UNL     1      -4.177  -1.131 -19.820  0.00  0.00    +0.000 A 
ATOM      9  C   UNL     1      -7.339  -2.955 -18.878  0.00  0.00    +0.000 A 
ATOM     10  C   UNL     1      -4.331  -0.711 -22.200  0.00  0.00    +0.000 A 
ATOM     11  C   UNL     1      -6.097  -2.339 -18.774  0.00  0.00    +0.000 A 
ENDROOT
BRANCH  10  12
ATOM     12  C   UNL     1      -3.856  -0.212 -23.500  0.00  0.00    +0.000 A 
ATOM     13  C   UNL     1      -2.760  -0.820 -24.123  0.00  0.00    +0.000 A 
ATOM     14  C   UNL     1      -4.475   0.875 -24.130  0.00  0.00    +0.000 A 
ATOM     15  C   UNL     1      -2.306  -0.355 -25.360  0.00  0.00    +0.000 A 
ATOM     16  C   UNL     1      -4.020   1.337 -25.370  0.00  0.00    +0.000 A 
ATOM     17  C   UNL     1      -2.935   0.719 -25.993  0.00  0.00    +0.000 A 
BRANCH  17  18
ATOM     18  O   UNL     1      -2.395   1.067 -27.200  0.00  0.00    +0.000 OA
ATOM     19  C   UNL     1      -2.377   0.064 -28.208  0.00  0.00    +0.000 C 
ENDBRANCH  17  18
ENDBRANCH  10  12
BRANCH  11  20
ATOM     20  O   UNL     1      -5.535  -2.304 -17.527  0.00  0.00    +0.000 OA
ATOM     21  H   UNL     1      -4.916  -3.063 -17.445  0.00  0.00    +0.000 HD
ENDBRANCH  11  20
BRANCH   4  22
ATOM     22  C   UNL     1      -8.068  -2.552 -22.623  0.00  0.00    +0.000 C 
BRANCH  22  23
ATOM     23  C   UNL     1      -7.649  -3.771 -23.403  0.00  0.00    +0.000 C 
ATOM     24  C   UNL     1      -8.367  -4.874 -23.694  0.00  0.00    +0.000 C 
ATOM     25  C   UNL     1      -9.794  -5.122 -23.288  0.00  0.00    +0.000 C 
ATOM     26  C   UNL     1      -7.754  -5.991 -24.497  0.00  0.00    +0.000 C 
ENDBRANCH  22  23
ENDBRANCH   4  22
BRANCH   5  27
ATOM     27  O   UNL     1      -2.351   0.001 -21.051  0.00  0.00    +0.000 OA
BRANCH  27  33
ATOM     28  O   UNL     1      -2.360   2.277 -21.707  0.00  0.00    +0.000 OA
ATOM     29  C   UNL     1       0.138   1.567 -20.454  0.00  0.00    +0.000 C 
ATOM     30  C   UNL     1       0.078   2.520 -21.654  0.00  0.00    +0.000 C 
ATOM     31  C   UNL     1      -1.168   1.596 -19.660  0.00  0.00    +0.000 C 
ATOM     32  C   UNL     1      -1.166   2.212 -22.498  0.00  0.00    +0.000 C 
ATOM     33  C   UNL     1      -2.369   1.362 -20.602  0.00  0.00    +0.000 C 
ATOM     34  C   UNL     1      -1.322   3.206 -23.645  0.00  0.00    +0.000 C 
BRANCH  29  35
ATOM     35  O   UNL     1       1.237   1.966 -19.614  0.00  0.00    +0.000 OA
ATOM     36  H   UNL     1       1.022   2.882 -19.339  0.00  0.00    +0.000 HD
ENDBRANCH  29  35
BRANCH  30  37
ATOM     37  O   UNL     1       1.277   2.370 -22.424  0.00  0.00    +0.000 OA
ATOM     38  H   UNL     1       1.856   1.793 -21.885  0.00  0.00    +0.000 HD
ENDBRANCH  30  37
BRANCH  31  39
ATOM     39  O   UNL     1      -1.241   2.871 -18.989  0.00  0.00    +0.000 OA
ATOM     40  H   UNL     1      -0.490   2.912 -18.367  0.00  0.00    +0.000 HD
ENDBRANCH  31  39
ENDBRANCH  27  33
ENDBRANCH   5  27
BRANCH   3  41
ATOM     41  O   UNL     1      -9.211  -3.618 -20.216  0.00  0.00    +0.000 OA
BRANCH  41  47
ATOM     42  O   UNL     1     -10.090  -1.442 -19.910  0.00  0.00    +0.000 OA
ATOM     43  C   UNL     1     -11.024  -2.134 -17.301  0.00  0.00    +0.000 C 
ATOM     44  C   UNL     1     -10.939  -0.678 -17.766  0.00  0.00    +0.000 C 
ATOM     45  C   UNL     1     -10.032  -3.011 -18.061  0.00  0.00    +0.000 C 
ATOM     46  C   UNL     1     -11.094  -0.619 -19.293  0.00  0.00    +0.000 C 
ATOM     47  C   UNL     1     -10.231  -2.823 -19.577  0.00  0.00    +0.000 C 
BRANCH  44  48
ATOM     48  O   UNL     1     -11.954   0.083 -17.108  0.00  0.00    +0.000 OA
ATOM     49  H   UNL     1     -11.807  -0.068 -16.151  0.00  0.00    +0.000 HD
ENDBRANCH  44  48
BRANCH  45  50
ATOM     50  O   UNL     1     -10.227  -4.376 -17.657  0.00  0.00    +0.000 OA
ATOM     51  H   UNL     1      -9.809  -4.457 -16.776  0.00  0.00    +0.000 HD
ENDBRANCH  45  50
BRANCH  43  52
ATOM     52  O   UNL     1     -10.760  -2.189 -15.890  0.00  0.00    +0.000 OA
ATOM     53  H   UNL     1     -11.573  -2.560 -15.492  0.00  0.00    +0.000 HD
ENDBRANCH  43  52
BRANCH  46  54
ATOM     54  C   UNL     1     -10.932   0.816 -19.811  0.00  0.00    +0.000 C 
BRANCH  54  55
ATOM     55  O   UNL     1     -10.541   1.676 -18.738  0.00  0.00    +0.000 OA
ATOM     56  H   UNL     1     -10.383   1.108 -17.965  0.00  0.00    +0.000 HD
ENDBRANCH  54  55
ENDBRANCH  46  54
ENDBRANCH  41  47
ENDBRANCH   3  41
TORSDOF 17
ENDMDL
MODEL 9
REMARK VINA RESULT:      -6.2     14.593     19.703
REMARK  Name = 
REMARK  21 active torsions:
REMARK  status: ('A' for Active; 'I' for Inactive)
REMARK    1  A    between atoms: O_3  and  C_22
REMARK    2  A    between atoms: O_3  and  C_28
REMARK    3  A    between atoms: O_4  and  C_25
REMARK    4  A    between atoms: O_4  and  C_30
REMARK    5  A    between atoms: O_5  and  C_16
REMARK    6  A    between atoms: O_6  and  C_17
REMARK    7  A    between atoms: O_7  and  C_18
REMARK    8  A    between atoms: O_8  and  C_20
REMARK    9  A    between atoms: O_9  and  C_21
REMARK   10  A    between atoms: O_10  and  C_23
REMARK   11  A    between atoms: O_11  and  C_26
REMARK   12  A    between atoms: O_13  and  C_36
REMARK   13  A    between atoms: O_15  and  C_45
REMARK   14  A    between atoms: O_15  and  C_48
REMARK   15  A    between atoms: C_19  and  C_26
REMARK   16  A    between atoms: C_24  and  C_27
REMARK   17  A    between atoms: C_29  and  C_37
REMARK   18  A    between atoms: C_35  and  C_38
REMARK   19  A    between atoms: C_37  and  C_39
REMARK   20  A    between atoms: C_42  and  C_46
REMARK   21  A    between atoms: C_42  and  C_47
REMARK                            x       y       z     vdW  Elec       q    Type
REMARK                         _______ _______ _______ _____ _____    ______ ____
ROOT
ATOM      1  O   UNL     1       4.280 -16.515 -12.391  0.00  0.00    +0.000 OA
ATOM      2  O   UNL     1       7.737 -16.173 -14.492  0.00  0.00    +0.000 OA
ATOM      3  C   UNL     1       2.919 -15.350 -15.581  0.00  0.00    +0.000 A 
ATOM      4  C   UNL     1       2.978 -15.789 -14.246  0.00  0.00    +0.000 A 
ATOM      5  C   UNL     1       6.690 -16.697 -12.422  0.00  0.00    +0.000 A 
ATOM      6  C   UNL     1       4.242 -16.086 -13.696  0.00  0.00    +0.000 A 
ATOM      7  C   UNL     1       5.401 -15.956 -14.462  0.00  0.00    +0.000 A 
ATOM      8  C   UNL     1       6.696 -16.266 -13.843  0.00  0.00    +0.000 A 
ATOM      9  C   UNL     1       4.076 -15.259 -16.360  0.00  0.00    +0.000 A 
ATOM     10  C   UNL     1       5.503 -16.760 -11.795  0.00  0.00    +0.000 A 
ATOM     11  C   UNL     1       5.313 -15.548 -15.795  0.00  0.00    +0.000 A 
ENDROOT
BRANCH  10  12
ATOM     12  C   UNL     1       5.382 -17.152 -10.382  0.00  0.00    +0.000 A 
ATOM     13  C   UNL     1       5.957 -16.356  -9.385  0.00  0.00    +0.000 A 
ATOM     14  C   UNL     1       4.709 -18.322 -10.009  0.00  0.00    +0.000 A 
ATOM     15  C   UNL     1       5.843 -16.719  -8.041  0.00  0.00    +0.000 A 
ATOM     16  C   UNL     1       4.594 -18.683  -8.662  0.00  0.00    +0.000 A 
ATOM     17  C   UNL     1       5.157 -17.878  -7.671  0.00  0.00    +0.000 A 
BRANCH  17  18
ATOM     18  O   UNL     1       5.115 -18.112  -6.325  0.00  0.00    +0.000 OA
ATOM     19  C   UNL     1       3.835 -18.356  -5.755  0.00  0.00    +0.000 C 
ENDBRANCH  17  18
ENDBRANCH  10  12
BRANCH  11  20
ATOM     20  O   UNL     1       6.403 -15.418 -16.613  0.00  0.00    +0.000 OA
ATOM     21  H   UNL     1       7.199 -15.293 -16.050  0.00  0.00    +0.000 HD
ENDBRANCH  11  20
BRANCH   4  22
ATOM     22  C   UNL     1       1.728 -15.906 -13.396  0.00  0.00    +0.000 C 
BRANCH  22  23
ATOM     23  C   UNL     1       0.990 -17.197 -13.637  0.00  0.00    +0.000 C 
ATOM     24  C   UNL     1       0.840 -18.250 -12.808  0.00  0.00    +0.000 C 
ATOM     25  C   UNL     1       1.397 -18.354 -11.415  0.00  0.00    +0.000 C 
ATOM     26  C   UNL     1       0.053 -19.457 -13.247  0.00  0.00    +0.000 C 
ENDBRANCH  22  23
ENDBRANCH   4  22
BRANCH   5  27
ATOM     27  O   UNL     1       7.893 -16.937 -11.782  0.00  0.00    +0.000 OA
BRANCH  27  33
ATOM     28  O   UNL     1       8.107 -19.079 -10.793  0.00  0.00    +0.000 OA
ATOM     29  C   UNL     1      10.681 -17.821 -11.115  0.00  0.00    +0.000 C 
ATOM     30  C   UNL     1      10.343 -18.666  -9.881  0.00  0.00    +0.000 C 
ATOM     31  C   UNL     1       9.853 -18.255 -12.325  0.00  0.00    +0.000 C 
ATOM     32  C   UNL     1       8.829 -18.640  -9.635  0.00  0.00    +0.000 C 
ATOM     33  C   UNL     1       8.354 -18.282 -11.961  0.00  0.00    +0.000 C 
ATOM     34  C   UNL     1       8.436 -19.553  -8.478  0.00  0.00    +0.000 C 
BRANCH  29  35
ATOM     35  O   UNL     1      12.086 -17.973 -11.396  0.00  0.00    +0.000 OA
ATOM     36  H   UNL     1      12.505 -17.173 -11.016  0.00  0.00    +0.000 HD
ENDBRANCH  29  35
BRANCH  30  37
ATOM     37  O   UNL     1      11.060 -18.146  -8.755  0.00  0.00    +0.000 OA
ATOM     38  H   UNL     1      12.004 -18.319  -8.950  0.00  0.00    +0.000 HD
ENDBRANCH  30  37
BRANCH  31  39
ATOM     39  O   UNL     1      10.338 -19.549 -12.742  0.00  0.00    +0.000 OA
ATOM     40  H   UNL     1      10.597 -20.033 -11.936  0.00  0.00    +0.000 HD
ENDBRANCH  31  39
ENDBRANCH  27  33
ENDBRANCH   5  27
BRANCH   3  41
ATOM     41  O   UNL     1       1.695 -15.107 -16.151  0.00  0.00    +0.000 OA
BRANCH  41  47
ATOM     42  O   UNL     1       1.116 -14.400 -18.334  0.00  0.00    +0.000 OA
ATOM     43  C   UNL     1       0.583 -17.095 -19.118  0.00  0.00    +0.000 C 
ATOM     44  C   UNL     1       0.119 -15.904 -19.961  0.00  0.00    +0.000 C 
ATOM     45  C   UNL     1       0.746 -16.698 -17.652  0.00  0.00    +0.000 C 
ATOM     46  C   UNL     1       1.067 -14.718 -19.736  0.00  0.00    +0.000 C 
ATOM     47  C   UNL     1       1.658 -15.462 -17.550  0.00  0.00    +0.000 C 
BRANCH  44  48
ATOM     48  O   UNL     1       0.083 -16.291 -21.336  0.00  0.00    +0.000 OA
ATOM     49  H   UNL     1      -0.377 -15.558 -21.796  0.00  0.00    +0.000 HD
ENDBRANCH  44  48
BRANCH  45  50
ATOM     50  O   UNL     1       1.278 -17.822 -16.932  0.00  0.00    +0.000 OA
ATOM     51  H   UNL     1       0.521 -18.217 -16.454  0.00  0.00    +0.000 HD
ENDBRANCH  45  50
BRANCH  43  52
ATOM     52  O   UNL     1      -0.376 -18.157 -19.244  0.00  0.00    +0.000 OA
ATOM     53  H   UNL     1      -1.174 -17.736 -19.623  0.00  0.00    +0.000 HD
ENDBRANCH  43  52
BRANCH  46  54
ATOM     54  C   UNL     1       0.591 -13.475 -20.500  0.00  0.00    +0.000 C 
BRANCH  54  55
ATOM     55  O   UNL     1      -0.837 -13.408 -20.469  0.00  0.00    +0.000 OA
ATOM     56  H   UNL     1      -1.115 -12.956 -21.284  0.00  0.00    +0.000 HD
ENDBRANCH  54  55
ENDBRANCH  46  54
ENDBRANCH  41  47
ENDBRANCH   3  41
TORSDOF 17
ENDMDL
