MODEL 1
REMARK VINA RESULT:      -6.5      0.000      0.000
REMARK  Name = 
REMARK  6 active torsions:
REMARK  status: ('A' for Active; 'I' for Inactive)
REMARK    1  A    between atoms: O_3  and  C_16
REMARK    2  A    between atoms: O_4  and  C_17
REMARK    3  A    between atoms: O_4  and  C_22
REMARK    4  A    between atoms: O_5  and  C_19
REMARK    5  A    between atoms: O_5  and  C_23
REMARK    6  A    between atoms: O_6  and  C_21
REMARK                            x       y       z     vdW  Elec       q    Type
REMARK                         _______ _______ _______ _____ _____    ______ ____
ROOT
ATOM      1  O   UNL     1       7.610  -1.255 -19.851  0.00  0.00    +0.000 OA
ATOM      2  O   UNL     1       8.529   1.781 -17.500  0.00  0.00    +0.000 OA
ATOM      3  C   UNL     1       7.452   1.145 -19.615  0.00  0.00    +0.000 C 
ATOM      4  C   UNL     1       8.405  -0.045 -19.761  0.00  0.00    +0.000 C 
ATOM      5  C   UNL     1       6.259   0.443 -19.066  0.00  0.00    +0.000 A 
ATOM      6  C   UNL     1       8.068   2.241 -18.770  0.00  0.00    +0.000 C 
ATOM      7  C   UNL     1       9.407  -0.172 -18.634  0.00  0.00    +0.000 A 
ATOM      8  C   UNL     1       6.412  -0.920 -19.271  0.00  0.00    +0.000 A 
ATOM      9  C   UNL     1       9.408   0.731 -17.558  0.00  0.00    +0.000 A 
ATOM     10  C   UNL     1       5.104   0.949 -18.493  0.00  0.00    +0.000 A 
ATOM     11  C   UNL     1      10.348  -1.218 -18.663  0.00  0.00    +0.000 A 
ATOM     12  C   UNL     1       5.420  -1.811 -18.916  0.00  0.00    +0.000 A 
ATOM     13  C   UNL     1      10.311   0.554 -16.500  0.00  0.00    +0.000 A 
ATOM     14  C   UNL     1       4.094   0.053 -18.115  0.00  0.00    +0.000 A 
ATOM     15  C   UNL     1       4.244  -1.328 -18.325  0.00  0.00    +0.000 A 
ATOM     16  C   UNL     1      11.281  -1.362 -17.640  0.00  0.00    +0.000 A 
ATOM     17  C   UNL     1      11.257  -0.474 -16.576  0.00  0.00    +0.000 A 
ENDROOT
BRANCH  12  18
ATOM     18  O   UNL     1       5.582  -3.151 -19.133  0.00  0.00    +0.000 OA
ATOM     19  H   UNL     1       4.758  -3.561 -18.813  0.00  0.00    +0.000 HD
ENDBRANCH  12  18
BRANCH  13  20
ATOM     20  O   UNL     1      10.414   1.348 -15.382  0.00  0.00    +0.000 OA
ATOM     21  C   UNL     1      11.159   2.549 -15.578  0.00  0.00    +0.000 C 
ENDBRANCH  13  20
BRANCH  15  22
ATOM     22  O   UNL     1       3.323  -2.294 -18.003  0.00  0.00    +0.000 OA
ATOM     23  C   UNL     1       2.099  -2.278 -18.729  0.00  0.00    +0.000 C 
ENDBRANCH  15  22
BRANCH  17  24
ATOM     24  O   UNL     1      12.183  -0.633 -15.579  0.00  0.00    +0.000 OA
ATOM     25  H   UNL     1      13.032  -0.756 -16.045  0.00  0.00    +0.000 HD
ENDBRANCH  17  24
TORSDOF 4
ENDMDL
MODEL 2
REMARK VINA RESULT:      -6.4      4.913      8.247
REMARK  Name = 
REMARK  6 active torsions:
REMARK  status: ('A' for Active; 'I' for Inactive)
REMARK    1  A    between atoms: O_3  and  C_16
REMARK    2  A    between atoms: O_4  and  C_17
REMARK    3  A    between atoms: O_4  and  C_22
REMARK    4  A    between atoms: O_5  and  C_19
REMARK    5  A    between atoms: O_5  and  C_23
REMARK    6  A    between atoms: O_6  and  C_21
REMARK                            x       y       z     vdW  Elec       q    Type
REMARK                         _______ _______ _______ _____ _____    ______ ____
ROOT
ATOM      1  O   UNL     1      -1.317  -2.322 -19.815  0.00  0.00    +0.000 OA
ATOM      2  O   UNL     1       1.007   0.704 -18.798  0.00  0.00    +0.000 OA
ATOM      3  C   UNL     1      -0.842   0.007 -20.258  0.00  0.00    +0.000 C 
ATOM      4  C   UNL     1      -0.290  -1.422 -20.303  0.00  0.00    +0.000 C 
ATOM      5  C   UNL     1      -1.900  -0.168 -19.224  0.00  0.00    +0.000 A 
ATOM      6  C   UNL     1       0.255   1.011 -19.971  0.00  0.00    +0.000 C 
ATOM      7  C   UNL     1       0.982  -1.614 -19.504  0.00  0.00    +0.000 A 
ATOM      8  C   UNL     1      -2.137  -1.524 -19.055  0.00  0.00    +0.000 A 
ATOM      9  C   UNL     1       1.554  -0.553 -18.782  0.00  0.00    +0.000 A 
ATOM     10  C   UNL     1      -2.645   0.773 -18.533  0.00  0.00    +0.000 A 
ATOM     11  C   UNL     1       1.595  -2.880 -19.481  0.00  0.00    +0.000 A 
ATOM     12  C   UNL     1      -3.121  -1.976 -18.199  0.00  0.00    +0.000 A 
ATOM     13  C   UNL     1       2.700  -0.776 -18.006  0.00  0.00    +0.000 A 
ATOM     14  C   UNL     1      -3.638   0.328 -17.650  0.00  0.00    +0.000 A 
ATOM     15  C   UNL     1      -3.882  -1.046 -17.479  0.00  0.00    +0.000 A 
ATOM     16  C   UNL     1       2.764  -3.088 -18.755  0.00  0.00    +0.000 A 
ATOM     17  C   UNL     1       3.307  -2.036 -18.033  0.00  0.00    +0.000 A 
ENDROOT
BRANCH  12  18
ATOM     18  O   UNL     1      -3.347  -3.316 -18.050  0.00  0.00    +0.000 OA
ATOM     19  H   UNL     1      -3.390  -3.460 -17.087  0.00  0.00    +0.000 HD
ENDBRANCH  12  18
BRANCH  13  20
ATOM     20  O   UNL     1       3.355   0.161 -17.242  0.00  0.00    +0.000 OA
ATOM     21  C   UNL     1       4.207   1.035 -17.981  0.00  0.00    +0.000 C 
ENDBRANCH  13  20
BRANCH  15  22
ATOM     22  O   UNL     1      -4.830  -1.596 -16.651  0.00  0.00    +0.000 OA
ATOM     23  C   UNL     1      -4.713  -1.305 -15.263  0.00  0.00    +0.000 C 
ENDBRANCH  15  22
BRANCH  17  24
ATOM     24  O   UNL     1       4.457  -2.262 -17.325  0.00  0.00    +0.000 OA
ATOM     25  H   UNL     1       5.176  -2.160 -17.977  0.00  0.00    +0.000 HD
ENDBRANCH  17  24
TORSDOF 4
ENDMDL
MODEL 3
REMARK VINA RESULT:      -6.2      4.243      6.942
REMARK  Name = 
REMARK  6 active torsions:
REMARK  status: ('A' for Active; 'I' for Inactive)
REMARK    1  A    between atoms: O_3  and  C_16
REMARK    2  A    between atoms: O_4  and  C_17
REMARK    3  A    between atoms: O_4  and  C_22
REMARK    4  A    between atoms: O_5  and  C_19
REMARK    5  A    between atoms: O_5  and  C_23
REMARK    6  A    between atoms: O_6  and  C_21
REMARK                            x       y       z     vdW  Elec       q    Type
REMARK                         _______ _______ _______ _____ _____    ______ ____
ROOT
ATOM      1  O   UNL     1      11.780   2.899 -20.541  0.00  0.00    +0.000 OA
ATOM      2  O   UNL     1       9.931  -0.512 -19.810  0.00  0.00    +0.000 OA
ATOM      3  C   UNL     1       9.826   1.585 -21.086  0.00  0.00    +0.000 C 
ATOM      4  C   UNL     1      10.578   2.320 -19.972  0.00  0.00    +0.000 C 
ATOM      5  C   UNL     1      10.953   1.339 -22.028  0.00  0.00    +0.000 A 
ATOM      6  C   UNL     1       9.091   0.375 -20.547  0.00  0.00    +0.000 C 
ATOM      7  C   UNL     1      10.940   1.441 -18.794  0.00  0.00    +0.000 A 
ATOM      8  C   UNL     1      12.018   2.153 -21.669  0.00  0.00    +0.000 A 
ATOM      9  C   UNL     1      10.616   0.074 -18.779  0.00  0.00    +0.000 A 
ATOM     10  C   UNL     1      11.028   0.525 -23.146  0.00  0.00    +0.000 A 
ATOM     11  C   UNL     1      11.620   2.006 -17.698  0.00  0.00    +0.000 A 
ATOM     12  C   UNL     1      13.179   2.179 -22.414  0.00  0.00    +0.000 A 
ATOM     13  C   UNL     1      11.015  -0.725 -17.699  0.00  0.00    +0.000 A 
ATOM     14  C   UNL     1      12.208   0.532 -23.904  0.00  0.00    +0.000 A 
ATOM     15  C   UNL     1      13.287   1.358 -23.544  0.00  0.00    +0.000 A 
ATOM     16  C   UNL     1      11.967   1.224 -16.601  0.00  0.00    +0.000 A 
ATOM     17  C   UNL     1      11.657  -0.127 -16.608  0.00  0.00    +0.000 A 
ENDROOT
BRANCH  12  18
ATOM     18  O   UNL     1      14.215   2.993 -22.052  0.00  0.00    +0.000 OA
ATOM     19  H   UNL     1      13.890   3.487 -21.277  0.00  0.00    +0.000 HD
ENDBRANCH  12  18
BRANCH  13  20
ATOM     20  O   UNL     1      10.780  -2.073 -17.558  0.00  0.00    +0.000 OA
ATOM     21  C   UNL     1      11.693  -2.908 -18.267  0.00  0.00    +0.000 C 
ENDBRANCH  13  20
BRANCH  15  22
ATOM     22  O   UNL     1      14.483   1.453 -24.213  0.00  0.00    +0.000 OA
ATOM     23  C   UNL     1      15.157   0.232 -24.495  0.00  0.00    +0.000 C 
ENDBRANCH  15  22
BRANCH  17  24
ATOM     24  O   UNL     1      12.009  -0.879 -15.519  0.00  0.00    +0.000 OA
ATOM     25  H   UNL     1      12.981  -0.812 -15.473  0.00  0.00    +0.000 HD
ENDBRANCH  17  24
TORSDOF 4
ENDMDL
MODEL 4
REMARK VINA RESULT:      -6.0     12.025     14.427
REMARK  Name = 
REMARK  6 active torsions:
REMARK  status: ('A' for Active; 'I' for Inactive)
REMARK    1  A    between atoms: O_3  and  C_16
REMARK    2  A    between atoms: O_4  and  C_17
REMARK    3  A    between atoms: O_4  and  C_22
REMARK    4  A    between atoms: O_5  and  C_19
REMARK    5  A    between atoms: O_5  and  C_23
REMARK    6  A    between atoms: O_6  and  C_21
REMARK                            x       y       z     vdW  Elec       q    Type
REMARK                         _______ _______ _______ _____ _____    ______ ____
ROOT
ATOM      1  O   UNL     1      11.276  -7.889  -7.106  0.00  0.00    +0.000 OA
ATOM      2  O   UNL     1      11.738  -3.998  -6.627  0.00  0.00    +0.000 OA
ATOM      3  C   UNL     1      10.156  -5.865  -6.407  0.00  0.00    +0.000 C 
ATOM      4  C   UNL     1      10.827  -6.593  -7.576  0.00  0.00    +0.000 C 
ATOM      5  C   UNL     1      10.797  -6.578  -5.268  0.00  0.00    +0.000 A 
ATOM      6  C   UNL     1      10.365  -4.368  -6.499  0.00  0.00    +0.000 C 
ATOM      7  C   UNL     1      11.989  -5.837  -8.183  0.00  0.00    +0.000 A 
ATOM      8  C   UNL     1      11.384  -7.741  -5.745  0.00  0.00    +0.000 A 
ATOM      9  C   UNL     1      12.395  -4.593  -7.671  0.00  0.00    +0.000 A 
ATOM     10  C   UNL     1      10.814  -6.279  -3.916  0.00  0.00    +0.000 A 
ATOM     11  C   UNL     1      12.678  -6.396  -9.276  0.00  0.00    +0.000 A 
ATOM     12  C   UNL     1      11.998  -8.634  -4.891  0.00  0.00    +0.000 A 
ATOM     13  C   UNL     1      13.510  -3.944  -8.219  0.00  0.00    +0.000 A 
ATOM     14  C   UNL     1      11.447  -7.171  -3.038  0.00  0.00    +0.000 A 
ATOM     15  C   UNL     1      12.039  -8.351  -3.519  0.00  0.00    +0.000 A 
ATOM     16  C   UNL     1      13.751  -5.726  -9.856  0.00  0.00    +0.000 A 
ATOM     17  C   UNL     1      14.152  -4.508  -9.328  0.00  0.00    +0.000 A 
ENDROOT
BRANCH  12  18
ATOM     18  O   UNL     1      12.564  -9.779  -5.376  0.00  0.00    +0.000 OA
ATOM     19  H   UNL     1      13.511  -9.707  -5.155  0.00  0.00    +0.000 HD
ENDBRANCH  12  18
BRANCH  13  20
ATOM     20  O   UNL     1      14.026  -2.736  -7.811  0.00  0.00    +0.000 OA
ATOM     21  C   UNL     1      14.954  -2.826  -6.732  0.00  0.00    +0.000 C 
ENDBRANCH  13  20
BRANCH  15  22
ATOM     22  O   UNL     1      12.678  -9.298  -2.755  0.00  0.00    +0.000 OA
ATOM     23  C   UNL     1      11.862 -10.077  -1.888  0.00  0.00    +0.000 C 
ENDBRANCH  15  22
BRANCH  17  24
ATOM     24  O   UNL     1      15.210  -3.866  -9.912  0.00  0.00    +0.000 OA
ATOM     25  H   UNL     1      15.995  -4.379  -9.641  0.00  0.00    +0.000 HD
ENDBRANCH  17  24
TORSDOF 4
ENDMDL
MODEL 5
REMARK VINA RESULT:      -5.9     17.189     19.258
REMARK  Name = 
REMARK  6 active torsions:
REMARK  status: ('A' for Active; 'I' for Inactive)
REMARK    1  A    between atoms: O_3  and  C_16
REMARK    2  A    between atoms: O_4  and  C_17
REMARK    3  A    between atoms: O_4  and  C_22
REMARK    4  A    between atoms: O_5  and  C_19
REMARK    5  A    between atoms: O_5  and  C_23
REMARK    6  A    between atoms: O_6  and  C_21
REMARK                            x       y       z     vdW  Elec       q    Type
REMARK                         _______ _______ _______ _____ _____    ______ ____
ROOT
ATOM      1  O   UNL     1     -10.435  -4.437 -22.070  0.00  0.00    +0.000 OA
ATOM      2  O   UNL     1      -9.327  -0.840 -20.880  0.00  0.00    +0.000 OA
ATOM      3  C   UNL     1      -8.951  -2.593 -22.560  0.00  0.00    +0.000 C 
ATOM      4  C   UNL     1      -9.323  -3.674 -21.539  0.00  0.00    +0.000 C 
ATOM      5  C   UNL     1     -10.243  -2.490 -23.295  0.00  0.00    +0.000 A 
ATOM      6  C   UNL     1      -8.437  -1.344 -21.875  0.00  0.00    +0.000 C 
ATOM      7  C   UNL     1      -9.681  -3.130 -20.172  0.00  0.00    +0.000 A 
ATOM      8  C   UNL     1     -11.019  -3.598 -22.987  0.00  0.00    +0.000 A 
ATOM      9  C   UNL     1      -9.681  -1.748 -19.918  0.00  0.00    +0.000 A 
ATOM     10  C   UNL     1     -10.684  -1.547 -24.207  0.00  0.00    +0.000 A 
ATOM     11  C   UNL     1     -10.024  -4.026 -19.143  0.00  0.00    +0.000 A 
ATOM     12  C   UNL     1     -12.248  -3.796 -23.582  0.00  0.00    +0.000 A 
ATOM     13  C   UNL     1     -10.072  -1.272 -18.658  0.00  0.00    +0.000 A 
ATOM     14  C   UNL     1     -11.938  -1.729 -24.808  0.00  0.00    +0.000 A 
ATOM     15  C   UNL     1     -12.724  -2.852 -24.501  0.00  0.00    +0.000 A 
ATOM     16  C   UNL     1     -10.359  -3.556 -17.877  0.00  0.00    +0.000 A 
ATOM     17  C   UNL     1     -10.373  -2.190 -17.645  0.00  0.00    +0.000 A 
ENDROOT
BRANCH  12  18
ATOM     18  O   UNL     1     -12.996  -4.898 -23.275  0.00  0.00    +0.000 OA
ATOM     19  H   UNL     1     -12.606  -5.248 -22.453  0.00  0.00    +0.000 HD
ENDBRANCH  12  18
BRANCH  13  20
ATOM     20  O   UNL     1     -10.134   0.047 -18.274  0.00  0.00    +0.000 OA
ATOM     21  C   UNL     1     -11.287   0.744 -18.743  0.00  0.00    +0.000 C 
ENDBRANCH  13  20
BRANCH  15  22
ATOM     22  O   UNL     1     -13.959  -3.137 -25.031  0.00  0.00    +0.000 OA
ATOM     23  C   UNL     1     -13.988  -3.587 -26.381  0.00  0.00    +0.000 C 
ENDBRANCH  15  22
BRANCH  17  24
ATOM     24  O   UNL     1     -10.706  -1.748 -16.392  0.00  0.00    +0.000 OA
ATOM     25  H   UNL     1     -11.452  -2.315 -16.118  0.00  0.00    +0.000 HD
ENDBRANCH  17  24
TORSDOF 4
ENDMDL
MODEL 6
REMARK VINA RESULT:      -5.8     22.448     24.531
REMARK  Name = 
REMARK  6 active torsions:
REMARK  status: ('A' for Active; 'I' for Inactive)
REMARK    1  A    between atoms: O_3  and  C_16
REMARK    2  A    between atoms: O_4  and  C_17
REMARK    3  A    between atoms: O_4  and  C_22
REMARK    4  A    between atoms: O_5  and  C_19
REMARK    5  A    between atoms: O_5  and  C_23
REMARK    6  A    between atoms: O_6  and  C_21
REMARK                            x       y       z     vdW  Elec       q    Type
REMARK                         _______ _______ _______ _____ _____    ______ ____
ROOT
ATOM      1  O   UNL     1     -12.062   8.594 -10.090  0.00  0.00    +0.000 OA
ATOM      2  O   UNL     1     -12.678   4.824  -9.092  0.00  0.00    +0.000 OA
ATOM      3  C   UNL     1     -11.135   6.724  -8.871  0.00  0.00    +0.000 C 
ATOM      4  C   UNL     1     -11.554   7.245 -10.250  0.00  0.00    +0.000 C 
ATOM      5  C   UNL     1     -11.973   7.603  -8.008  0.00  0.00    +0.000 A 
ATOM      6  C   UNL     1     -11.350   5.229  -8.761  0.00  0.00    +0.000 C 
ATOM      7  C   UNL     1     -12.589   6.386 -10.943  0.00  0.00    +0.000 A 
ATOM      8  C   UNL     1     -12.435   8.665  -8.770  0.00  0.00    +0.000 A 
ATOM      9  C   UNL     1     -13.109   5.235 -10.326  0.00  0.00    +0.000 A 
ATOM     10  C   UNL     1     -12.257   7.524  -6.655  0.00  0.00    +0.000 A 
ATOM     11  C   UNL     1     -13.042   6.753 -12.223  0.00  0.00    +0.000 A 
ATOM     12  C   UNL     1     -13.187   9.675  -8.206  0.00  0.00    +0.000 A 
ATOM     13  C   UNL     1     -14.108   4.491 -10.969  0.00  0.00    +0.000 A 
ATOM     14  C   UNL     1     -13.032   8.537  -6.072  0.00  0.00    +0.000 A 
ATOM     15  C   UNL     1     -13.499   9.616  -6.841  0.00  0.00    +0.000 A 
ATOM     16  C   UNL     1     -13.995   5.983 -12.886  0.00  0.00    +0.000 A 
ATOM     17  C   UNL     1     -14.512   4.861 -12.257  0.00  0.00    +0.000 A 
ENDROOT
BRANCH  12  18
ATOM     18  O   UNL     1     -13.627  10.720  -8.970  0.00  0.00    +0.000 OA
ATOM     19  H   UNL     1     -12.822  11.213  -9.213  0.00  0.00    +0.000 HD
ENDBRANCH  12  18
BRANCH  13  20
ATOM     20  O   UNL     1     -14.715   3.358 -10.481  0.00  0.00    +0.000 OA
ATOM     21  C   UNL     1     -15.796   3.607  -9.584  0.00  0.00    +0.000 C 
ENDBRANCH  13  20
BRANCH  15  22
ATOM     22  O   UNL     1     -14.256  10.664  -6.378  0.00  0.00    +0.000 OA
ATOM     23  C   UNL     1     -13.615  11.574  -5.492  0.00  0.00    +0.000 C 
ENDBRANCH  15  22
BRANCH  17  24
ATOM     24  O   UNL     1     -15.448   4.118 -12.926  0.00  0.00    +0.000 OA
ATOM     25  H   UNL     1     -16.269   4.645 -12.873  0.00  0.00    +0.000 HD
ENDBRANCH  17  24
TORSDOF 4
ENDMDL
MODEL 7
REMARK VINA RESULT:      -5.7     11.535     14.235
REMARK  Name = 
REMARK  6 active torsions:
REMARK  status: ('A' for Active; 'I' for Inactive)
REMARK    1  A    between atoms: O_3  and  C_16
REMARK    2  A    between atoms: O_4  and  C_17
REMARK    3  A    between atoms: O_4  and  C_22
REMARK    4  A    between atoms: O_5  and  C_19
REMARK    5  A    between atoms: O_5  and  C_23
REMARK    6  A    between atoms: O_6  and  C_21
REMARK                            x       y       z     vdW  Elec       q    Type
REMARK                         _______ _______ _______ _____ _____    ______ ____
ROOT
ATOM      1  O   UNL     1      12.702  -4.927  -9.439  0.00  0.00    +0.000 OA
ATOM      2  O   UNL     1      12.067  -6.913  -6.087  0.00  0.00    +0.000 OA
ATOM      3  C   UNL     1      12.938  -7.086  -8.377  0.00  0.00    +0.000 C 
ATOM      4  C   UNL     1      11.948  -6.018  -8.852  0.00  0.00    +0.000 C 
ATOM      5  C   UNL     1      14.158  -6.244  -8.225  0.00  0.00    +0.000 A 
ATOM      6  C   UNL     1      12.426  -7.801  -7.145  0.00  0.00    +0.000 C 
ATOM      7  C   UNL     1      11.046  -5.487  -7.758  0.00  0.00    +0.000 A 
ATOM      8  C   UNL     1      13.955  -5.043  -8.888  0.00  0.00    +0.000 A 
ATOM      9  C   UNL     1      11.161  -5.946  -6.435  0.00  0.00    +0.000 A 
ATOM     10  C   UNL     1      15.371  -6.522  -7.617  0.00  0.00    +0.000 A 
ATOM     11  C   UNL     1      10.081  -4.513  -8.074  0.00  0.00    +0.000 A 
ATOM     12  C   UNL     1      14.953  -4.093  -8.966  0.00  0.00    +0.000 A 
ATOM     13  C   UNL     1      10.350  -5.395  -5.433  0.00  0.00    +0.000 A 
ATOM     14  C   UNL     1      16.388  -5.559  -7.676  0.00  0.00    +0.000 A 
ATOM     15  C   UNL     1      16.186  -4.343  -8.351  0.00  0.00    +0.000 A 
ATOM     16  C   UNL     1       9.239  -4.005  -7.090  0.00  0.00    +0.000 A 
ATOM     17  C   UNL     1       9.376  -4.453  -5.786  0.00  0.00    +0.000 A 
ENDROOT
BRANCH  12  18
ATOM     18  O   UNL     1      14.739  -2.918  -9.631  0.00  0.00    +0.000 OA
ATOM     19  H   UNL     1      13.888  -2.585  -9.292  0.00  0.00    +0.000 HD
ENDBRANCH  12  18
BRANCH  13  20
ATOM     20  O   UNL     1      10.364  -5.736  -4.101  0.00  0.00    +0.000 OA
ATOM     21  C   UNL     1       9.629  -6.917  -3.787  0.00  0.00    +0.000 C 
ENDBRANCH  13  20
BRANCH  15  22
ATOM     22  O   UNL     1      17.109  -3.334  -8.480  0.00  0.00    +0.000 OA
ATOM     23  C   UNL     1      17.293  -2.487  -7.351  0.00  0.00    +0.000 C 
ENDBRANCH  15  22
BRANCH  17  24
ATOM     24  O   UNL     1       8.538  -3.940  -4.832  0.00  0.00    +0.000 OA
ATOM     25  H   UNL     1       8.074  -4.716  -4.464  0.00  0.00    +0.000 HD
ENDBRANCH  17  24
TORSDOF 4
ENDMDL
MODEL 8
REMARK VINA RESULT:      -5.6      1.417      6.486
REMARK  Name = 
REMARK  6 active torsions:
REMARK  status: ('A' for Active; 'I' for Inactive)
REMARK    1  A    between atoms: O_3  and  C_16
REMARK    2  A    between atoms: O_4  and  C_17
REMARK    3  A    between atoms: O_4  and  C_22
REMARK    4  A    between atoms: O_5  and  C_19
REMARK    5  A    between atoms: O_5  and  C_23
REMARK    6  A    between atoms: O_6  and  C_21
REMARK                            x       y       z     vdW  Elec       q    Type
REMARK                         _______ _______ _______ _____ _____    ______ ____
ROOT
ATOM      1  O   UNL     1       7.259   1.897 -18.139  0.00  0.00    +0.000 OA
ATOM      2  O   UNL     1       5.838  -0.863 -20.578  0.00  0.00    +0.000 OA
ATOM      3  C   UNL     1       7.061   1.265 -20.464  0.00  0.00    +0.000 C 
ATOM      4  C   UNL     1       6.295   1.656 -19.195  0.00  0.00    +0.000 C 
ATOM      5  C   UNL     1       8.325   0.772 -19.849  0.00  0.00    +0.000 A 
ATOM      6  C   UNL     1       6.267   0.287 -21.305  0.00  0.00    +0.000 C 
ATOM      7  C   UNL     1       5.288   0.621 -18.743  0.00  0.00    +0.000 A 
ATOM      8  C   UNL     1       8.378   1.205 -18.533  0.00  0.00    +0.000 A 
ATOM      9  C   UNL     1       5.122  -0.587 -19.442  0.00  0.00    +0.000 A 
ATOM     10  C   UNL     1       9.376   0.063 -20.405  0.00  0.00    +0.000 A 
ATOM     11  C   UNL     1       4.510   0.872 -17.598  0.00  0.00    +0.000 A 
ATOM     12  C   UNL     1       9.477   0.946 -17.739  0.00  0.00    +0.000 A 
ATOM     13  C   UNL     1       4.222  -1.550 -18.967  0.00  0.00    +0.000 A 
ATOM     14  C   UNL     1      10.493  -0.219 -19.606  0.00  0.00    +0.000 A 
ATOM     15  C   UNL     1      10.551   0.221 -18.273  0.00  0.00    +0.000 A 
ATOM     16  C   UNL     1       3.576  -0.061 -17.156  0.00  0.00    +0.000 A 
ATOM     17  C   UNL     1       3.437  -1.255 -17.846  0.00  0.00    +0.000 A 
ENDROOT
BRANCH  12  18
ATOM     18  O   UNL     1       9.517   1.388 -16.446  0.00  0.00    +0.000 OA
ATOM     19  H   UNL     1       9.887   0.644 -15.936  0.00  0.00    +0.000 HD
ENDBRANCH  12  18
BRANCH  13  20
ATOM     20  O   UNL     1       3.969  -2.775 -19.538  0.00  0.00    +0.000 OA
ATOM     21  C   UNL     1       3.067  -2.736 -20.642  0.00  0.00    +0.000 C 
ENDBRANCH  13  20
BRANCH  15  22
ATOM     22  O   UNL     1      11.592   0.011 -17.401  0.00  0.00    +0.000 OA
ATOM     23  C   UNL     1      11.703  -1.292 -16.839  0.00  0.00    +0.000 C 
ENDBRANCH  15  22
BRANCH  17  24
ATOM     24  O   UNL     1       2.513  -2.160 -17.395  0.00  0.00    +0.000 OA
ATOM     25  H   UNL     1       1.814  -1.618 -16.981  0.00  0.00    +0.000 HD
ENDBRANCH  17  24
TORSDOF 4
ENDMDL
MODEL 9
REMARK VINA RESULT:      -5.5      8.395     12.069
REMARK  Name = 
REMARK  6 active torsions:
REMARK  status: ('A' for Active; 'I' for Inactive)
REMARK    1  A    between atoms: O_3  and  C_16
REMARK    2  A    between atoms: O_4  and  C_17
REMARK    3  A    between atoms: O_4  and  C_22
REMARK    4  A    between atoms: O_5  and  C_19
REMARK    5  A    between atoms: O_5  and  C_23
REMARK    6  A    between atoms: O_6  and  C_21
REMARK                            x       y       z     vdW  Elec       q    Type
REMARK                         _______ _______ _______ _____ _____    ______ ____
ROOT
ATOM      1  O   UNL     1      -5.105   0.366 -19.529  0.00  0.00    +0.000 OA
ATOM      2  O   UNL     1      -2.509  -2.233 -18.082  0.00  0.00    +0.000 OA
ATOM      3  C   UNL     1      -4.768  -1.306 -17.815  0.00  0.00    +0.000 C 
ATOM      4  C   UNL     1      -4.297   0.044 -18.368  0.00  0.00    +0.000 C 
ATOM      5  C   UNL     1      -5.397  -1.872 -19.042  0.00  0.00    +0.000 A 
ATOM      6  C   UNL     1      -3.620  -2.078 -17.200  0.00  0.00    +0.000 C 
ATOM      7  C   UNL     1      -2.830   0.077 -18.738  0.00  0.00    +0.000 A 
ATOM      8  C   UNL     1      -5.586  -0.847 -19.957  0.00  0.00    +0.000 A 
ATOM      9  C   UNL     1      -2.018  -1.061 -18.594  0.00  0.00    +0.000 A 
ATOM     10  C   UNL     1      -5.829  -3.158 -19.318  0.00  0.00    +0.000 A 
ATOM     11  C   UNL     1      -2.275   1.267 -19.242  0.00  0.00    +0.000 A 
ATOM     12  C   UNL     1      -6.214  -1.075 -21.165  0.00  0.00    +0.000 A 
ATOM     13  C   UNL     1      -0.677  -1.015 -18.998  0.00  0.00    +0.000 A 
ATOM     14  C   UNL     1      -6.456  -3.407 -20.547  0.00  0.00    +0.000 A 
ATOM     15  C   UNL     1      -6.652  -2.369 -21.475  0.00  0.00    +0.000 A 
ATOM     16  C   UNL     1      -0.929   1.329 -19.593  0.00  0.00    +0.000 A 
ATOM     17  C   UNL     1      -0.145   0.194 -19.462  0.00  0.00    +0.000 A 
ENDROOT
BRANCH  12  18
ATOM     18  O   UNL     1      -6.401  -0.052 -22.052  0.00  0.00    +0.000 OA
ATOM     19  H   UNL     1      -7.333   0.213 -21.940  0.00  0.00    +0.000 HD
ENDBRANCH  12  18
BRANCH  13  20
ATOM     20  O   UNL     1       0.226  -2.050 -18.929  0.00  0.00    +0.000 OA
ATOM     21  C   UNL     1       0.163  -2.962 -20.024  0.00  0.00    +0.000 C 
ENDBRANCH  13  20
BRANCH  15  22
ATOM     22  O   UNL     1      -7.257  -2.493 -22.702  0.00  0.00    +0.000 OA
ATOM     23  C   UNL     1      -8.650  -2.788 -22.702  0.00  0.00    +0.000 C 
ENDBRANCH  15  22
BRANCH  17  24
ATOM     24  O   UNL     1       1.177   0.275 -19.813  0.00  0.00    +0.000 OA
ATOM     25  H   UNL     1       1.188   0.834 -20.613  0.00  0.00    +0.000 HD
ENDBRANCH  17  24
TORSDOF 4
ENDMDL
