MODEL 1
REMARK VINA RESULT:      -6.9      0.000      0.000
REMARK  Name = 
REMARK  9 active torsions:
REMARK  status: ('A' for Active; 'I' for Inactive)
REMARK    1  A    between atoms: O_1  and  N_7
REMARK    2  A    between atoms: O_1  and  C_20
REMARK    3  A    between atoms: O_2  and  C_14
REMARK    4  A    between atoms: O_3  and  C_18
REMARK    5  A    between atoms: O_4  and  C_25
REMARK    6  A    between atoms: C_8  and  C_10
REMARK    7  A    between atoms: C_17  and  C_18
REMARK    8  A    between atoms: C_17  and  C_20
REMARK    9  A    between atoms: C_18  and  C_25
REMARK                            x       y       z     vdW  Elec       q    Type
REMARK                         _______ _______ _______ _____ _____    ______ ____
ROOT
ATOM      1  N   UNL     1      -2.962   2.053 -20.566  0.00  0.00    +0.000 NA
ATOM      2  N   UNL     1      -0.246   0.490 -18.905  0.00  0.00    +0.000 NA
ATOM      3  C   UNL     1      -2.483   1.182 -19.713  0.00  0.00    +0.000 C 
ATOM      4  C   UNL     1      -0.977   1.317 -19.582  0.00  0.00    +0.000 C 
ATOM      5  C   UNL     1      -0.648   2.459 -20.423  0.00  0.00    +0.000 A 
ATOM      6  C   UNL     1      -1.869   2.830 -20.986  0.00  0.00    +0.000 A 
ATOM      7  C   UNL     1       0.534   3.118 -20.715  0.00  0.00    +0.000 A 
ATOM      8  C   UNL     1      -1.933   3.891 -21.872  0.00  0.00    +0.000 A 
ATOM      9  C   UNL     1       0.472   4.190 -21.608  0.00  0.00    +0.000 A 
ATOM     10  C   UNL     1      -0.752   4.573 -22.184  0.00  0.00    +0.000 A 
ENDROOT
BRANCH   3  12
ATOM     11  N   UNL     1      -4.497  -0.823 -17.459  0.00  0.00    +0.000 N 
ATOM     12  C   UNL     1      -3.358   0.243 -19.050  0.00  0.00    +0.000 A 
ATOM     13  C   UNL     1      -4.134  -0.803 -19.654  0.00  0.00    +0.000 A 
ATOM     14  C   UNL     1      -4.824  -1.458 -18.634  0.00  0.00    +0.000 A 
ATOM     15  C   UNL     1      -3.635   0.216 -17.695  0.00  0.00    +0.000 A 
ATOM     16  C   UNL     1      -4.305  -1.266 -20.976  0.00  0.00    +0.000 A 
ATOM     17  C   UNL     1      -5.674  -2.546 -18.865  0.00  0.00    +0.000 A 
ATOM     18  C   UNL     1      -5.150  -2.352 -21.227  0.00  0.00    +0.000 A 
ATOM     19  C   UNL     1      -5.824  -2.982 -20.184  0.00  0.00    +0.000 A 
ATOM     20  H   UNL     1      -4.873  -1.081 -16.560  0.00  0.00    +0.000 HD
BRANCH  15  21
ATOM     21  O   UNL     1      -3.228   1.020 -16.718  0.00  0.00    +0.000 OA
ATOM     22  H   UNL     1      -3.771   0.893 -15.924  0.00  0.00    +0.000 HD
ENDBRANCH  15  21
ENDBRANCH   3  12
BRANCH   2  23
ATOM     23  O   UNL     1       1.114   0.803 -18.979  0.00  0.00    +0.000 OA
BRANCH  23  24
ATOM     24  C   UNL     1       1.859  -0.314 -18.501  0.00  0.00    +0.000 C 
BRANCH  24  25
ATOM     25  C   UNL     1       3.050   0.181 -17.694  0.00  0.00    +0.000 C 
BRANCH  25  26
ATOM     26  C   UNL     1       3.713   1.436 -18.263  0.00  0.00    +0.000 C 
BRANCH  26  27
ATOM     27  O   UNL     1       3.251   2.562 -17.501  0.00  0.00    +0.000 OA
ATOM     28  H   UNL     1       3.889   3.274 -17.708  0.00  0.00    +0.000 HD
ENDBRANCH  26  27
BRANCH  26  29
ATOM     29  C   UNL     1       5.243   1.415 -18.206  0.00  0.00    +0.000 C 
BRANCH  29  30
ATOM     30  O   UNL     1       5.720   2.727 -18.523  0.00  0.00    +0.000 OA
ATOM     31  H   UNL     1       5.987   3.136 -17.680  0.00  0.00    +0.000 HD
ENDBRANCH  29  30
ENDBRANCH  26  29
ENDBRANCH  25  26
ENDBRANCH  24  25
ENDBRANCH  23  24
ENDBRANCH   2  23
TORSDOF 9
ENDMDL
MODEL 2
REMARK VINA RESULT:      -6.8     20.039     21.839
REMARK  Name = 
REMARK  9 active torsions:
REMARK  status: ('A' for Active; 'I' for Inactive)
REMARK    1  A    between atoms: O_1  and  N_7
REMARK    2  A    between atoms: O_1  and  C_20
REMARK    3  A    between atoms: O_2  and  C_14
REMARK    4  A    between atoms: O_3  and  C_18
REMARK    5  A    between atoms: O_4  and  C_25
REMARK    6  A    between atoms: C_8  and  C_10
REMARK    7  A    between atoms: C_17  and  C_18
REMARK    8  A    between atoms: C_17  and  C_20
REMARK    9  A    between atoms: C_18  and  C_25
REMARK                            x       y       z     vdW  Elec       q    Type
REMARK                         _______ _______ _______ _____ _____    ______ ____
ROOT
ATOM      1  N   UNL     1       5.401   3.444  -0.765  0.00  0.00    +0.000 NA
ATOM      2  N   UNL     1       6.627   4.641   2.341  0.00  0.00    +0.000 NA
ATOM      3  C   UNL     1       5.330   3.540   0.539  0.00  0.00    +0.000 C 
ATOM      4  C   UNL     1       6.397   4.476   1.077  0.00  0.00    +0.000 C 
ATOM      5  C   UNL     1       7.056   4.988  -0.117  0.00  0.00    +0.000 A 
ATOM      6  C   UNL     1       6.425   4.318  -1.166  0.00  0.00    +0.000 A 
ATOM      7  C   UNL     1       8.081   5.894  -0.325  0.00  0.00    +0.000 A 
ATOM      8  C   UNL     1       6.817   4.548  -2.473  0.00  0.00    +0.000 A 
ATOM      9  C   UNL     1       8.477   6.129  -1.644  0.00  0.00    +0.000 A 
ATOM     10  C   UNL     1       7.852   5.460  -2.710  0.00  0.00    +0.000 A 
ENDROOT
BRANCH   3  12
ATOM     11  N   UNL     1       3.404   1.404   2.749  0.00  0.00    +0.000 N 
ATOM     12  C   UNL     1       4.340   2.793   1.279  0.00  0.00    +0.000 A 
ATOM     13  C   UNL     1       2.914   2.836   1.119  0.00  0.00    +0.000 A 
ATOM     14  C   UNL     1       2.360   1.949   2.042  0.00  0.00    +0.000 A 
ATOM     15  C   UNL     1       4.600   1.917   2.318  0.00  0.00    +0.000 A 
ATOM     16  C   UNL     1       2.039   3.539   0.263  0.00  0.00    +0.000 A 
ATOM     17  C   UNL     1       0.982   1.730   2.155  0.00  0.00    +0.000 A 
ATOM     18  C   UNL     1       0.659   3.333   0.361  0.00  0.00    +0.000 A 
ATOM     19  C   UNL     1       0.140   2.440   1.295  0.00  0.00    +0.000 A 
ATOM     20  H   UNL     1       3.287   0.741   3.500  0.00  0.00    +0.000 HD
BRANCH  15  21
ATOM     21  O   UNL     1       5.750   1.588   2.898  0.00  0.00    +0.000 OA
ATOM     22  H   UNL     1       5.856   0.623   2.920  0.00  0.00    +0.000 HD
ENDBRANCH  15  21
ENDBRANCH   3  12
BRANCH   2  23
ATOM     23  O   UNL     1       7.689   5.517   2.575  0.00  0.00    +0.000 OA
BRANCH  23  24
ATOM     24  C   UNL     1       8.688   4.822   3.319  0.00  0.00    +0.000 C 
BRANCH  24  25
ATOM     25  C   UNL     1       9.787   4.356   2.376  0.00  0.00    +0.000 C 
BRANCH  25  26
ATOM     26  C   UNL     1       9.731   2.866   2.038  0.00  0.00    +0.000 C 
BRANCH  26  27
ATOM     27  O   UNL     1       8.515   2.336   2.587  0.00  0.00    +0.000 OA
ATOM     28  H   UNL     1       7.863   3.057   2.475  0.00  0.00    +0.000 HD
ENDBRANCH  26  27
BRANCH  26  29
ATOM     29  C   UNL     1       9.750   2.565   0.536  0.00  0.00    +0.000 C 
BRANCH  29  30
ATOM     30  O   UNL     1      10.847   1.684   0.272  0.00  0.00    +0.000 OA
ATOM     31  H   UNL     1      10.724   1.352  -0.636  0.00  0.00    +0.000 HD
ENDBRANCH  29  30
ENDBRANCH  26  29
ENDBRANCH  25  26
ENDBRANCH  24  25
ENDBRANCH  23  24
ENDBRANCH   2  23
TORSDOF 9
ENDMDL
MODEL 3
REMARK VINA RESULT:      -6.5      3.215      5.193
REMARK  Name = 
REMARK  9 active torsions:
REMARK  status: ('A' for Active; 'I' for Inactive)
REMARK    1  A    between atoms: O_1  and  N_7
REMARK    2  A    between atoms: O_1  and  C_20
REMARK    3  A    between atoms: O_2  and  C_14
REMARK    4  A    between atoms: O_3  and  C_18
REMARK    5  A    between atoms: O_4  and  C_25
REMARK    6  A    between atoms: C_8  and  C_10
REMARK    7  A    between atoms: C_17  and  C_18
REMARK    8  A    between atoms: C_17  and  C_20
REMARK    9  A    between atoms: C_18  and  C_25
REMARK                            x       y       z     vdW  Elec       q    Type
REMARK                         _______ _______ _______ _____ _____    ______ ____
ROOT
ATOM      1  N   UNL     1      -0.767  -3.353 -20.368  0.00  0.00    +0.000 NA
ATOM      2  N   UNL     1       1.948  -2.150 -18.429  0.00  0.00    +0.000 NA
ATOM      3  C   UNL     1      -0.212  -2.444 -19.607  0.00  0.00    +0.000 C 
ATOM      4  C   UNL     1       1.222  -2.813 -19.272  0.00  0.00    +0.000 C 
ATOM      5  C   UNL     1       1.459  -4.037 -20.024  0.00  0.00    +0.000 A 
ATOM      6  C   UNL     1       0.233  -4.305 -20.633  0.00  0.00    +0.000 A 
ATOM      7  C   UNL     1       2.560  -4.860 -20.180  0.00  0.00    +0.000 A 
ATOM      8  C   UNL     1       0.081  -5.427 -21.427  0.00  0.00    +0.000 A 
ATOM      9  C   UNL     1       2.410  -5.994 -20.983  0.00  0.00    +0.000 A 
ATOM     10  C   UNL     1       1.179  -6.277 -21.601  0.00  0.00    +0.000 A 
ENDROOT
BRANCH   3  12
ATOM     11  N   UNL     1      -1.542   0.830 -18.790  0.00  0.00    +0.000 N 
ATOM     12  C   UNL     1      -0.961  -1.286 -19.178  0.00  0.00    +0.000 A 
ATOM     13  C   UNL     1      -2.255  -1.264 -18.556  0.00  0.00    +0.000 A 
ATOM     14  C   UNL     1      -2.584   0.069 -18.315  0.00  0.00    +0.000 A 
ATOM     15  C   UNL     1      -0.568   0.032 -19.332  0.00  0.00    +0.000 A 
ATOM     16  C   UNL     1      -3.176  -2.259 -18.161  0.00  0.00    +0.000 A 
ATOM     17  C   UNL     1      -3.781   0.461 -17.704  0.00  0.00    +0.000 A 
ATOM     18  C   UNL     1      -4.378  -1.887 -17.548  0.00  0.00    +0.000 A 
ATOM     19  C   UNL     1      -4.674  -0.546 -17.324  0.00  0.00    +0.000 A 
ATOM     20  H   UNL     1      -1.526   1.838 -18.761  0.00  0.00    +0.000 HD
BRANCH  15  21
ATOM     21  O   UNL     1       0.510   0.545 -19.914  0.00  0.00    +0.000 OA
ATOM     22  H   UNL     1       0.478   0.406 -20.874  0.00  0.00    +0.000 HD
ENDBRANCH  15  21
ENDBRANCH   3  12
BRANCH   2  23
ATOM     23  O   UNL     1       3.213  -2.718 -18.260  0.00  0.00    +0.000 OA
BRANCH  23  24
ATOM     24  C   UNL     1       4.169  -1.665 -18.167  0.00  0.00    +0.000 C 
BRANCH  24  25
ATOM     25  C   UNL     1       3.536  -0.465 -17.478  0.00  0.00    +0.000 C 
BRANCH  25  26
ATOM     26  C   UNL     1       3.865   0.877 -18.131  0.00  0.00    +0.000 C 
BRANCH  26  27
ATOM     27  O   UNL     1       3.523   1.915 -17.200  0.00  0.00    +0.000 OA
ATOM     28  H   UNL     1       4.013   1.683 -16.386  0.00  0.00    +0.000 HD
ENDBRANCH  26  27
BRANCH  26  29
ATOM     29  C   UNL     1       5.340   1.041 -18.511  0.00  0.00    +0.000 C 
BRANCH  29  30
ATOM     30  O   UNL     1       5.671   2.431 -18.422  0.00  0.00    +0.000 OA
ATOM     31  H   UNL     1       6.630   2.478 -18.257  0.00  0.00    +0.000 HD
ENDBRANCH  29  30
ENDBRANCH  26  29
ENDBRANCH  25  26
ENDBRANCH  24  25
ENDBRANCH  23  24
ENDBRANCH   2  23
TORSDOF 9
ENDMDL
MODEL 4
REMARK VINA RESULT:      -6.4      3.637      5.607
REMARK  Name = 
REMARK  9 active torsions:
REMARK  status: ('A' for Active; 'I' for Inactive)
REMARK    1  A    between atoms: O_1  and  N_7
REMARK    2  A    between atoms: O_1  and  C_20
REMARK    3  A    between atoms: O_2  and  C_14
REMARK    4  A    between atoms: O_3  and  C_18
REMARK    5  A    between atoms: O_4  and  C_25
REMARK    6  A    between atoms: C_8  and  C_10
REMARK    7  A    between atoms: C_17  and  C_18
REMARK    8  A    between atoms: C_17  and  C_20
REMARK    9  A    between atoms: C_18  and  C_25
REMARK                            x       y       z     vdW  Elec       q    Type
REMARK                         _______ _______ _______ _____ _____    ______ ____
ROOT
ATOM      1  N   UNL     1      -0.849  -4.280 -20.451  0.00  0.00    +0.000 NA
ATOM      2  N   UNL     1       1.506  -2.462 -18.519  0.00  0.00    +0.000 NA
ATOM      3  C   UNL     1      -0.524  -3.264 -19.690  0.00  0.00    +0.000 C 
ATOM      4  C   UNL     1       0.957  -3.280 -19.360  0.00  0.00    +0.000 C 
ATOM      5  C   UNL     1       1.477  -4.413 -20.113  0.00  0.00    +0.000 A 
ATOM      6  C   UNL     1       0.349  -4.966 -20.717  0.00  0.00    +0.000 A 
ATOM      7  C   UNL     1       2.743  -4.950 -20.271  0.00  0.00    +0.000 A 
ATOM      8  C   UNL     1       0.467  -6.093 -21.511  0.00  0.00    +0.000 A 
ATOM      9  C   UNL     1       2.865  -6.087 -21.073  0.00  0.00    +0.000 A 
ATOM     10  C   UNL     1       1.735  -6.656 -21.688  0.00  0.00    +0.000 A 
ENDROOT
BRANCH   3  12
ATOM     11  N   UNL     1      -3.339  -1.453 -18.294  0.00  0.00    +0.000 N 
ATOM     12  C   UNL     1      -1.527  -2.318 -19.260  0.00  0.00    +0.000 A 
ATOM     13  C   UNL     1      -1.564  -0.907 -19.518  0.00  0.00    +0.000 A 
ATOM     14  C   UNL     1      -2.713  -0.398 -18.913  0.00  0.00    +0.000 A 
ATOM     15  C   UNL     1      -2.628  -2.611 -18.474  0.00  0.00    +0.000 A 
ATOM     16  C   UNL     1      -0.732  -0.011 -20.224  0.00  0.00    +0.000 A 
ATOM     17  C   UNL     1      -3.072   0.954 -18.975  0.00  0.00    +0.000 A 
ATOM     18  C   UNL     1      -1.074   1.343 -20.297  0.00  0.00    +0.000 A 
ATOM     19  C   UNL     1      -2.229   1.817 -19.681  0.00  0.00    +0.000 A 
ATOM     20  H   UNL     1      -4.190  -1.364 -17.760  0.00  0.00    +0.000 HD
BRANCH  15  21
ATOM     21  O   UNL     1      -3.003  -3.754 -17.911  0.00  0.00    +0.000 OA
ATOM     22  H   UNL     1      -2.495  -3.919 -17.101  0.00  0.00    +0.000 HD
ENDBRANCH  15  21
ENDBRANCH   3  12
BRANCH   2  23
ATOM     23  O   UNL     1       2.871  -2.712 -18.353  0.00  0.00    +0.000 OA
BRANCH  23  24
ATOM     24  C   UNL     1       3.467  -1.566 -17.752  0.00  0.00    +0.000 C 
BRANCH  24  25
ATOM     25  C   UNL     1       4.488  -0.967 -18.709  0.00  0.00    +0.000 C 
BRANCH  25  26
ATOM     26  C   UNL     1       4.504   0.561 -18.730  0.00  0.00    +0.000 C 
BRANCH  26  27
ATOM     27  O   UNL     1       4.542   0.982 -20.103  0.00  0.00    +0.000 OA
ATOM     28  H   UNL     1       3.648   1.340 -20.272  0.00  0.00    +0.000 HD
ENDBRANCH  26  27
BRANCH  26  29
ATOM     29  C   UNL     1       3.284   1.208 -18.065  0.00  0.00    +0.000 C 
BRANCH  29  30
ATOM     30  O   UNL     1       3.574   2.594 -17.855  0.00  0.00    +0.000 OA
ATOM     31  H   UNL     1       3.308   3.059 -18.669  0.00  0.00    +0.000 HD
ENDBRANCH  29  30
ENDBRANCH  26  29
ENDBRANCH  25  26
ENDBRANCH  24  25
ENDBRANCH  23  24
ENDBRANCH   2  23
TORSDOF 9
ENDMDL
MODEL 5
REMARK VINA RESULT:      -6.2     19.655     22.529
REMARK  Name = 
REMARK  9 active torsions:
REMARK  status: ('A' for Active; 'I' for Inactive)
REMARK    1  A    between atoms: O_1  and  N_7
REMARK    2  A    between atoms: O_1  and  C_20
REMARK    3  A    between atoms: O_2  and  C_14
REMARK    4  A    between atoms: O_3  and  C_18
REMARK    5  A    between atoms: O_4  and  C_25
REMARK    6  A    between atoms: C_8  and  C_10
REMARK    7  A    between atoms: C_17  and  C_18
REMARK    8  A    between atoms: C_17  and  C_20
REMARK    9  A    between atoms: C_18  and  C_25
REMARK                            x       y       z     vdW  Elec       q    Type
REMARK                         _______ _______ _______ _____ _____    ______ ____
ROOT
ATOM      1  N   UNL     1      -7.498  -1.433  -1.163  0.00  0.00    +0.000 NA
ATOM      2  N   UNL     1      -9.009  -2.264   1.936  0.00  0.00    +0.000 NA
ATOM      3  C   UNL     1      -7.571  -1.342   0.141  0.00  0.00    +0.000 C 
ATOM      4  C   UNL     1      -8.646  -2.261   0.693  0.00  0.00    +0.000 C 
ATOM      5  C   UNL     1      -9.138  -2.975  -0.477  0.00  0.00    +0.000 A 
ATOM      6  C   UNL     1      -8.426  -2.419  -1.539  0.00  0.00    +0.000 A 
ATOM      7  C   UNL     1     -10.088  -3.966  -0.658  0.00  0.00    +0.000 A 
ATOM      8  C   UNL     1      -8.655  -2.853  -2.833  0.00  0.00    +0.000 A 
ATOM      9  C   UNL     1     -10.320  -4.406  -1.964  0.00  0.00    +0.000 A 
ATOM     10  C   UNL     1      -9.610  -3.853  -3.044  0.00  0.00    +0.000 A 
ENDROOT
BRANCH   3  12
ATOM     11  N   UNL     1      -6.016   1.225   2.177  0.00  0.00    +0.000 N 
ATOM     12  C   UNL     1      -6.709  -0.438   0.866  0.00  0.00    +0.000 A 
ATOM     13  C   UNL     1      -5.275  -0.453   0.919  0.00  0.00    +0.000 A 
ATOM     14  C   UNL     1      -4.872   0.605   1.735  0.00  0.00    +0.000 A 
ATOM     15  C   UNL     1      -7.130   0.598   1.682  0.00  0.00    +0.000 A 
ATOM     16  C   UNL     1      -4.275  -1.261   0.335  0.00  0.00    +0.000 A 
ATOM     17  C   UNL     1      -3.529   0.894   1.999  0.00  0.00    +0.000 A 
ATOM     18  C   UNL     1      -2.927  -0.987   0.588  0.00  0.00    +0.000 A 
ATOM     19  C   UNL     1      -2.561   0.077   1.408  0.00  0.00    +0.000 A 
ATOM     20  H   UNL     1      -6.018   2.015   2.804  0.00  0.00    +0.000 HD
BRANCH  15  21
ATOM     21  O   UNL     1      -8.355   0.979   2.025  0.00  0.00    +0.000 OA
ATOM     22  H   UNL     1      -8.429   1.062   2.989  0.00  0.00    +0.000 HD
ENDBRANCH  15  21
ENDBRANCH   3  12
BRANCH   2  23
ATOM     23  O   UNL     1     -10.048  -3.165   2.182  0.00  0.00    +0.000 OA
BRANCH  23  24
ATOM     24  C   UNL     1     -11.122  -2.456   2.794  0.00  0.00    +0.000 C 
BRANCH  24  25
ATOM     25  C   UNL     1     -12.307  -2.410   1.839  0.00  0.00    +0.000 C 
BRANCH  25  26
ATOM     26  C   UNL     1     -12.595  -1.021   1.267  0.00  0.00    +0.000 C 
BRANCH  26  27
ATOM     27  O   UNL     1     -11.866  -0.891   0.037  0.00  0.00    +0.000 OA
ATOM     28  H   UNL     1     -12.451  -1.292  -0.636  0.00  0.00    +0.000 HD
ENDBRANCH  26  27
BRANCH  26  29
ATOM     29  C   UNL     1     -14.076  -0.762   0.975  0.00  0.00    +0.000 C 
BRANCH  29  30
ATOM     30  O   UNL     1     -14.164   0.028  -0.216  0.00  0.00    +0.000 OA
ATOM     31  H   UNL     1     -15.097   0.006  -0.495  0.00  0.00    +0.000 HD
ENDBRANCH  29  30
ENDBRANCH  26  29
ENDBRANCH  25  26
ENDBRANCH  24  25
ENDBRANCH  23  24
ENDBRANCH   2  23
TORSDOF 9
ENDMDL
MODEL 6
REMARK VINA RESULT:      -6.2      2.250      4.918
REMARK  Name = 
REMARK  9 active torsions:
REMARK  status: ('A' for Active; 'I' for Inactive)
REMARK    1  A    between atoms: O_1  and  N_7
REMARK    2  A    between atoms: O_1  and  C_20
REMARK    3  A    between atoms: O_2  and  C_14
REMARK    4  A    between atoms: O_3  and  C_18
REMARK    5  A    between atoms: O_4  and  C_25
REMARK    6  A    between atoms: C_8  and  C_10
REMARK    7  A    between atoms: C_17  and  C_18
REMARK    8  A    between atoms: C_17  and  C_20
REMARK    9  A    between atoms: C_18  and  C_25
REMARK                            x       y       z     vdW  Elec       q    Type
REMARK                         _______ _______ _______ _____ _____    ______ ____
ROOT
ATOM      1  N   UNL     1       0.516  -1.947 -18.913  0.00  0.00    +0.000 NA
ATOM      2  N   UNL     1      -0.209   1.444 -19.660  0.00  0.00    +0.000 NA
ATOM      3  C   UNL     1      -0.269  -1.020 -19.402  0.00  0.00    +0.000 C 
ATOM      4  C   UNL     1       0.401   0.341 -19.359  0.00  0.00    +0.000 C 
ATOM      5  C   UNL     1       1.737   0.064 -18.849  0.00  0.00    +0.000 A 
ATOM      6  C   UNL     1       1.724  -1.306 -18.590  0.00  0.00    +0.000 A 
ATOM      7  C   UNL     1       2.845   0.856 -18.602  0.00  0.00    +0.000 A 
ATOM      8  C   UNL     1       2.846  -1.926 -18.068  0.00  0.00    +0.000 A 
ATOM      9  C   UNL     1       3.979   0.232 -18.075  0.00  0.00    +0.000 A 
ATOM     10  C   UNL     1       3.979  -1.148 -17.808  0.00  0.00    +0.000 A 
ENDROOT
BRANCH   3  12
ATOM     11  N   UNL     1      -3.282  -1.867 -21.235  0.00  0.00    +0.000 N 
ATOM     12  C   UNL     1      -1.592  -1.351 -19.877  0.00  0.00    +0.000 A 
ATOM     13  C   UNL     1      -2.782  -1.525 -19.094  0.00  0.00    +0.000 A 
ATOM     14  C   UNL     1      -3.822  -1.834 -19.972  0.00  0.00    +0.000 A 
ATOM     15  C   UNL     1      -1.937  -1.601 -21.194  0.00  0.00    +0.000 A 
ATOM     16  C   UNL     1      -3.079  -1.435 -17.717  0.00  0.00    +0.000 A 
ATOM     17  C   UNL     1      -5.137  -2.058 -19.547  0.00  0.00    +0.000 A 
ATOM     18  C   UNL     1      -4.387  -1.656 -17.273  0.00  0.00    +0.000 A 
ATOM     19  C   UNL     1      -5.400  -1.963 -18.177  0.00  0.00    +0.000 A 
ATOM     20  H   UNL     1      -3.811  -2.088 -22.065  0.00  0.00    +0.000 HD
BRANCH  15  21
ATOM     21  O   UNL     1      -1.184  -1.642 -22.287  0.00  0.00    +0.000 OA
ATOM     22  H   UNL     1      -1.435  -0.932 -22.900  0.00  0.00    +0.000 HD
ENDBRANCH  15  21
ENDBRANCH   3  12
BRANCH   2  23
ATOM     23  O   UNL     1       0.610   2.563 -19.494  0.00  0.00    +0.000 OA
BRANCH  23  24
ATOM     24  C   UNL     1      -0.167   3.730 -19.751  0.00  0.00    +0.000 C 
BRANCH  24  25
ATOM     25  C   UNL     1      -0.868   3.585 -21.094  0.00  0.00    +0.000 C 
BRANCH  25  26
ATOM     26  C   UNL     1       0.062   3.710 -22.301  0.00  0.00    +0.000 C 
BRANCH  26  27
ATOM     27  O   UNL     1       1.357   4.103 -21.821  0.00  0.00    +0.000 OA
ATOM     28  H   UNL     1       1.827   3.258 -21.670  0.00  0.00    +0.000 HD
ENDBRANCH  26  27
BRANCH  26  29
ATOM     29  C   UNL     1       0.222   2.414 -23.103  0.00  0.00    +0.000 C 
BRANCH  29  30
ATOM     30  O   UNL     1      -0.695   1.449 -22.577  0.00  0.00    +0.000 OA
ATOM     31  H   UNL     1      -1.101   1.006 -23.344  0.00  0.00    +0.000 HD
ENDBRANCH  29  30
ENDBRANCH  26  29
ENDBRANCH  25  26
ENDBRANCH  24  25
ENDBRANCH  23  24
ENDBRANCH   2  23
TORSDOF 9
ENDMDL
MODEL 7
REMARK VINA RESULT:      -6.1      2.761      5.042
REMARK  Name = 
REMARK  9 active torsions:
REMARK  status: ('A' for Active; 'I' for Inactive)
REMARK    1  A    between atoms: O_1  and  N_7
REMARK    2  A    between atoms: O_1  and  C_20
REMARK    3  A    between atoms: O_2  and  C_14
REMARK    4  A    between atoms: O_3  and  C_18
REMARK    5  A    between atoms: O_4  and  C_25
REMARK    6  A    between atoms: C_8  and  C_10
REMARK    7  A    between atoms: C_17  and  C_18
REMARK    8  A    between atoms: C_17  and  C_20
REMARK    9  A    between atoms: C_18  and  C_25
REMARK                            x       y       z     vdW  Elec       q    Type
REMARK                         _______ _______ _______ _____ _____    ______ ____
ROOT
ATOM      1  N   UNL     1      -0.798  -3.717 -19.457  0.00  0.00    +0.000 NA
ATOM      2  N   UNL     1      -0.526  -0.203 -19.051  0.00  0.00    +0.000 NA
ATOM      3  C   UNL     1      -1.334  -2.532 -19.302  0.00  0.00    +0.000 C 
ATOM      4  C   UNL     1      -0.274  -1.446 -19.317  0.00  0.00    +0.000 C 
ATOM      5  C   UNL     1       0.964  -2.161 -19.592  0.00  0.00    +0.000 A 
ATOM      6  C   UNL     1       0.578  -3.500 -19.644  0.00  0.00    +0.000 A 
ATOM      7  C   UNL     1       2.277  -1.760 -19.763  0.00  0.00    +0.000 A 
ATOM      8  C   UNL     1       1.521  -4.487 -19.873  0.00  0.00    +0.000 A 
ATOM      9  C   UNL     1       3.231  -2.754 -19.996  0.00  0.00    +0.000 A 
ATOM     10  C   UNL     1       2.856  -4.108 -20.049  0.00  0.00    +0.000 A 
ENDROOT
BRANCH   3  12
ATOM     11  N   UNL     1      -4.817  -2.586 -18.292  0.00  0.00    +0.000 N 
ATOM     12  C   UNL     1      -2.760  -2.388 -19.126  0.00  0.00    +0.000 A 
ATOM     13  C   UNL     1      -3.667  -1.622 -19.934  0.00  0.00    +0.000 A 
ATOM     14  C   UNL     1      -4.944  -1.776 -19.395  0.00  0.00    +0.000 A 
ATOM     15  C   UNL     1      -3.508  -2.945 -18.103  0.00  0.00    +0.000 A 
ATOM     16  C   UNL     1      -3.523  -0.820 -21.086  0.00  0.00    +0.000 A 
ATOM     17  C   UNL     1      -6.081  -1.171 -19.944  0.00  0.00    +0.000 A 
ATOM     18  C   UNL     1      -4.648  -0.207 -21.650  0.00  0.00    +0.000 A 
ATOM     19  C   UNL     1      -5.908  -0.382 -21.085  0.00  0.00    +0.000 A 
ATOM     20  H   UNL     1      -5.589  -2.846 -17.697  0.00  0.00    +0.000 HD
BRANCH  15  21
ATOM     21  O   UNL     1      -3.128  -3.674 -17.059  0.00  0.00    +0.000 OA
ATOM     22  H   UNL     1      -3.884  -3.858 -16.479  0.00  0.00    +0.000 HD
ENDBRANCH  15  21
ENDBRANCH   3  12
BRANCH   2  23
ATOM     23  O   UNL     1       0.624   0.588 -19.084  0.00  0.00    +0.000 OA
BRANCH  23  24
ATOM     24  C   UNL     1       0.438   1.612 -20.057  0.00  0.00    +0.000 C 
BRANCH  24  25
ATOM     25  C   UNL     1      -1.050   1.867 -20.244  0.00  0.00    +0.000 C 
BRANCH  25  26
ATOM     26  C   UNL     1      -1.443   3.344 -20.190  0.00  0.00    +0.000 C 
BRANCH  26  27
ATOM     27  O   UNL     1      -0.676   3.965 -19.147  0.00  0.00    +0.000 OA
ATOM     28  H   UNL     1      -1.091   4.843 -19.030  0.00  0.00    +0.000 HD
ENDBRANCH  26  27
BRANCH  26  29
ATOM     29  C   UNL     1      -1.186   4.107 -21.493  0.00  0.00    +0.000 C 
BRANCH  29  30
ATOM     30  O   UNL     1      -2.039   5.256 -21.513  0.00  0.00    +0.000 OA
ATOM     31  H   UNL     1      -2.585   5.210 -20.708  0.00  0.00    +0.000 HD
ENDBRANCH  29  30
ENDBRANCH  26  29
ENDBRANCH  25  26
ENDBRANCH  24  25
ENDBRANCH  23  24
ENDBRANCH   2  23
TORSDOF 9
ENDMDL
MODEL 8
REMARK VINA RESULT:      -6.0     16.325     19.093
REMARK  Name = 
REMARK  9 active torsions:
REMARK  status: ('A' for Active; 'I' for Inactive)
REMARK    1  A    between atoms: O_1  and  N_7
REMARK    2  A    between atoms: O_1  and  C_20
REMARK    3  A    between atoms: O_2  and  C_14
REMARK    4  A    between atoms: O_3  and  C_18
REMARK    5  A    between atoms: O_4  and  C_25
REMARK    6  A    between atoms: C_8  and  C_10
REMARK    7  A    between atoms: C_17  and  C_18
REMARK    8  A    between atoms: C_17  and  C_20
REMARK    9  A    between atoms: C_18  and  C_25
REMARK                            x       y       z     vdW  Elec       q    Type
REMARK                         _______ _______ _______ _____ _____    ______ ____
ROOT
ATOM      1  N   UNL     1      10.570   9.404 -12.974  0.00  0.00    +0.000 NA
ATOM      2  N   UNL     1      12.079  12.384 -11.782  0.00  0.00    +0.000 NA
ATOM      3  C   UNL     1      11.311  10.469 -13.153  0.00  0.00    +0.000 C 
ATOM      4  C   UNL     1      11.499  11.228 -11.853  0.00  0.00    +0.000 C 
ATOM      5  C   UNL     1      10.828  10.402 -10.858  0.00  0.00    +0.000 A 
ATOM      6  C   UNL     1      10.287   9.351 -11.599  0.00  0.00    +0.000 A 
ATOM      7  C   UNL     1      10.660  10.509  -9.489  0.00  0.00    +0.000 A 
ATOM      8  C   UNL     1       9.550   8.364 -10.969  0.00  0.00    +0.000 A 
ATOM      9  C   UNL     1       9.916   9.513  -8.851  0.00  0.00    +0.000 A 
ATOM     10  C   UNL     1       9.365   8.449  -9.585  0.00  0.00    +0.000 A 
ENDROOT
BRANCH   3  12
ATOM     11  N   UNL     1      12.008  11.717 -16.486  0.00  0.00    +0.000 N 
ATOM     12  C   UNL     1      11.818  10.801 -14.464  0.00  0.00    +0.000 A 
ATOM     13  C   UNL     1      13.025  10.326 -15.080  0.00  0.00    +0.000 A 
ATOM     14  C   UNL     1      13.108  10.907 -16.346  0.00  0.00    +0.000 A 
ATOM     15  C   UNL     1      11.233  11.683 -15.356  0.00  0.00    +0.000 A 
ATOM     16  C   UNL     1      14.052   9.443 -14.684  0.00  0.00    +0.000 A 
ATOM     17  C   UNL     1      14.161  10.653 -17.232  0.00  0.00    +0.000 A 
ATOM     18  C   UNL     1      15.113   9.177 -15.556  0.00  0.00    +0.000 A 
ATOM     19  C   UNL     1      15.165   9.774 -16.813  0.00  0.00    +0.000 A 
ATOM     20  H   UNL     1      11.826  12.278 -17.305  0.00  0.00    +0.000 HD
BRANCH  15  21
ATOM     21  O   UNL     1      10.147  12.438 -15.231  0.00  0.00    +0.000 OA
ATOM     22  H   UNL     1      10.291  13.136 -14.573  0.00  0.00    +0.000 HD
ENDBRANCH  15  21
ENDBRANCH   3  12
BRANCH   2  23
ATOM     23  O   UNL     1      12.084  12.895 -10.482  0.00  0.00    +0.000 OA
BRANCH  23  24
ATOM     24  C   UNL     1      12.045  14.317 -10.558  0.00  0.00    +0.000 C 
BRANCH  24  25
ATOM     25  C   UNL     1      11.094  14.854  -9.498  0.00  0.00    +0.000 C 
BRANCH  25  26
ATOM     26  C   UNL     1      10.353  16.126  -9.910  0.00  0.00    +0.000 C 
BRANCH  26  27
ATOM     27  O   UNL     1       9.601  15.832 -11.098  0.00  0.00    +0.000 OA
ATOM     28  H   UNL     1       8.839  16.444 -11.061  0.00  0.00    +0.000 HD
ENDBRANCH  26  27
BRANCH  26  29
ATOM     29  C   UNL     1       9.383  16.655  -8.848  0.00  0.00    +0.000 C 
BRANCH  29  30
ATOM     30  O   UNL     1       8.270  15.758  -8.775  0.00  0.00    +0.000 OA
ATOM     31  H   UNL     1       8.639  14.857  -8.776  0.00  0.00    +0.000 HD
ENDBRANCH  29  30
ENDBRANCH  26  29
ENDBRANCH  25  26
ENDBRANCH  24  25
ENDBRANCH  23  24
ENDBRANCH   2  23
TORSDOF 9
ENDMDL
MODEL 9
REMARK VINA RESULT:      -6.0     15.160     18.106
REMARK  Name = 
REMARK  9 active torsions:
REMARK  status: ('A' for Active; 'I' for Inactive)
REMARK    1  A    between atoms: O_1  and  N_7
REMARK    2  A    between atoms: O_1  and  C_20
REMARK    3  A    between atoms: O_2  and  C_14
REMARK    4  A    between atoms: O_3  and  C_18
REMARK    5  A    between atoms: O_4  and  C_25
REMARK    6  A    between atoms: C_8  and  C_10
REMARK    7  A    between atoms: C_17  and  C_18
REMARK    8  A    between atoms: C_17  and  C_20
REMARK    9  A    between atoms: C_18  and  C_25
REMARK                            x       y       z     vdW  Elec       q    Type
REMARK                         _______ _______ _______ _____ _____    ______ ____
ROOT
ATOM      1  N   UNL     1     -14.059   8.761 -10.931  0.00  0.00    +0.000 NA
ATOM      2  N   UNL     1     -14.891   5.323 -11.206  0.00  0.00    +0.000 NA
ATOM      3  C   UNL     1     -13.777   7.493 -10.766  0.00  0.00    +0.000 C 
ATOM      4  C   UNL     1     -14.863   6.610 -11.353  0.00  0.00    +0.000 C 
ATOM      5  C   UNL     1     -15.791   7.549 -11.968  0.00  0.00    +0.000 A 
ATOM      6  C   UNL     1     -15.259   8.802 -11.662  0.00  0.00    +0.000 A 
ATOM      7  C   UNL     1     -16.962   7.397 -12.688  0.00  0.00    +0.000 A 
ATOM      8  C   UNL     1     -15.903   9.952 -12.080  0.00  0.00    +0.000 A 
ATOM      9  C   UNL     1     -17.615   8.557 -13.113  0.00  0.00    +0.000 A 
ATOM     10  C   UNL     1     -17.090   9.826 -12.810  0.00  0.00    +0.000 A 
ENDROOT
BRANCH   3  12
ATOM     11  N   UNL     1     -10.644   6.070  -9.618  0.00  0.00    +0.000 N 
ATOM     12  C   UNL     1     -12.570   7.090 -10.082  0.00  0.00    +0.000 A 
ATOM     13  C   UNL     1     -12.087   7.561  -8.815  0.00  0.00    +0.000 A 
ATOM     14  C   UNL     1     -10.890   6.896  -8.547  0.00  0.00    +0.000 A 
ATOM     15  C   UNL     1     -11.633   6.191 -10.560  0.00  0.00    +0.000 A 
ATOM     16  C   UNL     1     -12.563   8.483  -7.858  0.00  0.00    +0.000 A 
ATOM     17  C   UNL     1     -10.146   7.105  -7.380  0.00  0.00    +0.000 A 
ATOM     18  C   UNL     1     -11.834   8.705  -6.685  0.00  0.00    +0.000 A 
ATOM     19  C   UNL     1     -10.643   8.024  -6.451  0.00  0.00    +0.000 A 
ATOM     20  H   UNL     1      -9.827   5.484  -9.697  0.00  0.00    +0.000 HD
BRANCH  15  21
ATOM     21  O   UNL     1     -11.579   5.538 -11.716  0.00  0.00    +0.000 OA
ATOM     22  H   UNL     1     -11.705   6.150 -12.459  0.00  0.00    +0.000 HD
ENDBRANCH  15  21
ENDBRANCH   3  12
BRANCH   2  23
ATOM     23  O   UNL     1     -16.017   4.747 -11.797  0.00  0.00    +0.000 OA
BRANCH  23  24
ATOM     24  C   UNL     1     -16.661   3.922 -10.830  0.00  0.00    +0.000 C 
BRANCH  24  25
ATOM     25  C   UNL     1     -15.860   2.641 -10.645  0.00  0.00    +0.000 C 
BRANCH  25  26
ATOM     26  C   UNL     1     -15.570   2.291  -9.185  0.00  0.00    +0.000 C 
BRANCH  26  27
ATOM     27  O   UNL     1     -14.379   2.992  -8.793  0.00  0.00    +0.000 OA
ATOM     28  H   UNL     1     -13.888   2.348  -8.244  0.00  0.00    +0.000 HD
ENDBRANCH  26  27
BRANCH  26  29
ATOM     29  C   UNL     1     -16.692   2.675  -8.216  0.00  0.00    +0.000 C 
BRANCH  29  30
ATOM     30  O   UNL     1     -16.233   2.430  -6.882  0.00  0.00    +0.000 OA
ATOM     31  H   UNL     1     -15.799   1.558  -6.894  0.00  0.00    +0.000 HD
ENDBRANCH  29  30
ENDBRANCH  26  29
ENDBRANCH  25  26
ENDBRANCH  24  25
ENDBRANCH  23  24
ENDBRANCH   2  23
TORSDOF 9
ENDMDL
