MODEL 1
REMARK VINA RESULT:      -5.6      0.000      0.000
REMARK  Name = IPA3.pdbqt.pdb
REMARK  5 active torsions:
REMARK  status: ('A' for Active; 'I' for Inactive)
REMARK    1  A    between atoms: S_1  and  S_2
REMARK    2  A    between atoms: S_1  and  C_15
REMARK    3  A    between atoms: S_2  and  C_3
REMARK    4  A    between atoms: C_10  and  O_13
REMARK    5  A    between atoms: C_22  and  O_25
REMARK                            x       y       z     vdW  Elec       q    Type
REMARK                         _______ _______ _______ _____ _____    ______ ____
ROOT
ATOM      1  S   UNL     1       8.353  -1.162 -19.729  0.00  0.00    +0.000 S 
ENDROOT
BRANCH   1   2
ATOM      2  C   UNL     1       9.706  -0.712 -18.633  0.00  0.00    +0.000 A 
ATOM      3  C   UNL     1       9.911   0.632 -18.237  0.00  0.00    +0.000 A 
ATOM      4  C   UNL     1      10.973   0.930 -17.350  0.00  0.00    +0.000 A 
ATOM      5  C   UNL     1       9.105   1.700 -18.667  0.00  0.00    +0.000 A 
ATOM      6  C   UNL     1      11.813  -0.079 -16.888  0.00  0.00    +0.000 A 
ATOM      7  C   UNL     1      11.191   2.239 -16.920  0.00  0.00    +0.000 A 
ATOM      8  C   UNL     1      11.620  -1.395 -17.290  0.00  0.00    +0.000 A 
ATOM      9  C   UNL     1      10.574  -1.706 -18.153  0.00  0.00    +0.000 A 
ATOM     10  C   UNL     1      10.369   3.273 -17.358  0.00  0.00    +0.000 A 
ATOM     11  C   UNL     1       9.325   3.005 -18.234  0.00  0.00    +0.000 A 
BRANCH   9  12
ATOM     12  O   UNL     1      10.440  -3.025 -18.498  0.00  0.00    +0.000 OA
ATOM     13  H   UNL     1       9.512  -3.172 -18.756  0.00  0.00    +0.000 HD
ENDBRANCH   9  12
ENDBRANCH   1   2
BRANCH   1  14
ATOM     14  S   UNL     1       9.321  -1.317 -21.542  0.00  0.00    +0.000 S 
BRANCH  14  15
ATOM     15  C   UNL     1       9.811   0.387 -21.840  0.00  0.00    +0.000 A 
ATOM     16  C   UNL     1      11.132   0.824 -21.583  0.00  0.00    +0.000 A 
ATOM     17  C   UNL     1      11.476   2.168 -21.860  0.00  0.00    +0.000 A 
ATOM     18  C   UNL     1      12.143  -0.012 -21.073  0.00  0.00    +0.000 A 
ATOM     19  C   UNL     1      10.525   3.051 -22.361  0.00  0.00    +0.000 A 
ATOM     20  C   UNL     1      12.774   2.628 -21.641  0.00  0.00    +0.000 A 
ATOM     21  C   UNL     1       9.223   2.625 -22.598  0.00  0.00    +0.000 A 
ATOM     22  C   UNL     1       8.873   1.305 -22.341  0.00  0.00    +0.000 A 
ATOM     23  C   UNL     1      13.754   1.772 -21.145  0.00  0.00    +0.000 A 
ATOM     24  C   UNL     1      13.438   0.450 -20.858  0.00  0.00    +0.000 A 
BRANCH  22  25
ATOM     25  O   UNL     1       7.575   0.955 -22.608  0.00  0.00    +0.000 OA
ATOM     26  H   UNL     1       7.025   1.274 -21.868  0.00  0.00    +0.000 HD
ENDBRANCH  22  25
ENDBRANCH  14  15
ENDBRANCH   1  14
TORSDOF 5
ENDMDL
MODEL 2
REMARK VINA RESULT:      -5.6      0.169      5.123
REMARK  Name = IPA3.pdbqt.pdb
REMARK  5 active torsions:
REMARK  status: ('A' for Active; 'I' for Inactive)
REMARK    1  A    between atoms: S_1  and  S_2
REMARK    2  A    between atoms: S_1  and  C_15
REMARK    3  A    between atoms: S_2  and  C_3
REMARK    4  A    between atoms: C_10  and  O_13
REMARK    5  A    between atoms: C_22  and  O_25
REMARK                            x       y       z     vdW  Elec       q    Type
REMARK                         _______ _______ _______ _____ _____    ______ ____
ROOT
ATOM      1  S   UNL     1       9.230  -1.292 -21.693  0.00  0.00    +0.000 S 
ENDROOT
BRANCH   1   2
ATOM      2  C   UNL     1       9.810   0.389 -21.965  0.00  0.00    +0.000 A 
ATOM      3  C   UNL     1      11.151   0.753 -21.694  0.00  0.00    +0.000 A 
ATOM      4  C   UNL     1      11.565   2.081 -21.951  0.00  0.00    +0.000 A 
ATOM      5  C   UNL     1      12.113  -0.141 -21.191  0.00  0.00    +0.000 A 
ATOM      6  C   UNL     1      10.664   3.020 -22.445  0.00  0.00    +0.000 A 
ATOM      7  C   UNL     1      12.884   2.470 -21.718  0.00  0.00    +0.000 A 
ATOM      8  C   UNL     1       9.344   2.665 -22.695  0.00  0.00    +0.000 A 
ATOM      9  C   UNL     1       8.924   1.360 -22.458  0.00  0.00    +0.000 A 
ATOM     10  C   UNL     1      13.815   1.558 -21.228  0.00  0.00    +0.000 A 
ATOM     11  C   UNL     1      13.429   0.251 -20.962  0.00  0.00    +0.000 A 
BRANCH   9  12
ATOM     12  O   UNL     1       7.612   1.082 -22.737  0.00  0.00    +0.000 OA
ATOM     13  H   UNL     1       7.531   0.971 -23.702  0.00  0.00    +0.000 HD
ENDBRANCH   9  12
ENDBRANCH   1   2
BRANCH   1  14
ATOM     14  S   UNL     1       8.252  -1.109 -19.889  0.00  0.00    +0.000 S 
BRANCH  14  15
ATOM     15  C   UNL     1       9.609  -0.712 -18.778  0.00  0.00    +0.000 A 
ATOM     16  C   UNL     1       9.838   0.617 -18.349  0.00  0.00    +0.000 A 
ATOM     17  C   UNL     1      10.902   0.873 -17.452  0.00  0.00    +0.000 A 
ATOM     18  C   UNL     1       9.054   1.712 -18.755  0.00  0.00    +0.000 A 
ATOM     19  C   UNL     1      11.721  -0.163 -17.012  0.00  0.00    +0.000 A 
ATOM     20  C   UNL     1      11.144   2.167 -16.990  0.00  0.00    +0.000 A 
ATOM     21  C   UNL     1      11.504  -1.465 -17.447  0.00  0.00    +0.000 A 
ATOM     22  C   UNL     1      10.456  -1.734 -18.320  0.00  0.00    +0.000 A 
ATOM     23  C   UNL     1      10.343   3.228 -17.404  0.00  0.00    +0.000 A 
ATOM     24  C   UNL     1       9.297   3.001 -18.290  0.00  0.00    +0.000 A 
BRANCH  22  25
ATOM     25  O   UNL     1      10.299  -3.042 -18.697  0.00  0.00    +0.000 OA
ATOM     26  H   UNL     1       9.350  -3.257 -18.627  0.00  0.00    +0.000 HD
ENDBRANCH  22  25
ENDBRANCH  14  15
ENDBRANCH   1  14
TORSDOF 5
ENDMDL
MODEL 3
REMARK VINA RESULT:      -5.6      1.527      4.605
REMARK  Name = IPA3.pdbqt.pdb
REMARK  5 active torsions:
REMARK  status: ('A' for Active; 'I' for Inactive)
REMARK    1  A    between atoms: S_1  and  S_2
REMARK    2  A    between atoms: S_1  and  C_15
REMARK    3  A    between atoms: S_2  and  C_3
REMARK    4  A    between atoms: C_10  and  O_13
REMARK    5  A    between atoms: C_22  and  O_25
REMARK                            x       y       z     vdW  Elec       q    Type
REMARK                         _______ _______ _______ _____ _____    ______ ____
ROOT
ATOM      1  S   UNL     1       8.859  -1.049 -21.075  0.00  0.00    +0.000 S 
ENDROOT
BRANCH   1   2
ATOM      2  C   UNL     1       9.400   0.558 -21.674  0.00  0.00    +0.000 A 
ATOM      3  C   UNL     1      10.717   1.021 -21.440  0.00  0.00    +0.000 A 
ATOM      4  C   UNL     1      11.103   2.280 -21.957  0.00  0.00    +0.000 A 
ATOM      5  C   UNL     1      11.683   0.289 -20.727  0.00  0.00    +0.000 A 
ATOM      6  C   UNL     1      10.195   3.061 -22.669  0.00  0.00    +0.000 A 
ATOM      7  C   UNL     1      12.399   2.758 -21.766  0.00  0.00    +0.000 A 
ATOM      8  C   UNL     1       8.898   2.612 -22.883  0.00  0.00    +0.000 A 
ATOM      9  C   UNL     1       8.507   1.371 -22.391  0.00  0.00    +0.000 A 
ATOM     10  C   UNL     1      13.335   2.005 -21.063  0.00  0.00    +0.000 A 
ATOM     11  C   UNL     1      12.977   0.769 -20.541  0.00  0.00    +0.000 A 
BRANCH   9  12
ATOM     12  O   UNL     1       7.217   0.991 -22.650  0.00  0.00    +0.000 OA
ATOM     13  H   UNL     1       7.217   0.489 -23.485  0.00  0.00    +0.000 HD
ENDBRANCH   9  12
ENDBRANCH   1   2
BRANCH   1  14
ATOM     14  S   UNL     1       7.573  -0.515 -19.555  0.00  0.00    +0.000 S 
BRANCH  14  15
ATOM     15  C   UNL     1       8.399   0.927 -18.869  0.00  0.00    +0.000 A 
ATOM     16  C   UNL     1       9.574   0.796 -18.091  0.00  0.00    +0.000 A 
ATOM     17  C   UNL     1      10.203   1.963 -17.597  0.00  0.00    +0.000 A 
ATOM     18  C   UNL     1      10.171  -0.441 -17.786  0.00  0.00    +0.000 A 
ATOM     19  C   UNL     1       9.664   3.219 -17.857  0.00  0.00    +0.000 A 
ATOM     20  C   UNL     1      11.375   1.874 -16.847  0.00  0.00    +0.000 A 
ATOM     21  C   UNL     1       8.501   3.346 -18.608  0.00  0.00    +0.000 A 
ATOM     22  C   UNL     1       7.878   2.209 -19.109  0.00  0.00    +0.000 A 
ATOM     23  C   UNL     1      11.946   0.634 -16.570  0.00  0.00    +0.000 A 
ATOM     24  C   UNL     1      11.342  -0.526 -17.038  0.00  0.00    +0.000 A 
BRANCH  22  25
ATOM     25  O   UNL     1       6.742   2.413 -19.848  0.00  0.00    +0.000 OA
ATOM     26  H   UNL     1       6.594   3.375 -19.903  0.00  0.00    +0.000 HD
ENDBRANCH  22  25
ENDBRANCH  14  15
ENDBRANCH   1  14
TORSDOF 5
ENDMDL
MODEL 4
REMARK VINA RESULT:      -5.5      1.582      4.403
REMARK  Name = IPA3.pdbqt.pdb
REMARK  5 active torsions:
REMARK  status: ('A' for Active; 'I' for Inactive)
REMARK    1  A    between atoms: S_1  and  S_2
REMARK    2  A    between atoms: S_1  and  C_15
REMARK    3  A    between atoms: S_2  and  C_3
REMARK    4  A    between atoms: C_10  and  O_13
REMARK    5  A    between atoms: C_22  and  O_25
REMARK                            x       y       z     vdW  Elec       q    Type
REMARK                         _______ _______ _______ _____ _____    ______ ____
ROOT
ATOM      1  S   UNL     1       8.645  -2.288 -20.422  0.00  0.00    +0.000 S 
ENDROOT
BRANCH   1   2
ATOM      2  C   UNL     1       8.436  -0.651 -21.137  0.00  0.00    +0.000 A 
ATOM      3  C   UNL     1       8.245   0.487 -20.317  0.00  0.00    +0.000 A 
ATOM      4  C   UNL     1       8.114   1.757 -20.927  0.00  0.00    +0.000 A 
ATOM      5  C   UNL     1       8.191   0.433 -18.913  0.00  0.00    +0.000 A 
ATOM      6  C   UNL     1       8.155   1.883 -22.314  0.00  0.00    +0.000 A 
ATOM      7  C   UNL     1       7.949   2.903 -20.150  0.00  0.00    +0.000 A 
ATOM      8  C   UNL     1       8.326   0.762 -23.117  0.00  0.00    +0.000 A 
ATOM      9  C   UNL     1       8.467  -0.492 -22.532  0.00  0.00    +0.000 A 
ATOM     10  C   UNL     1       7.907   2.817 -18.762  0.00  0.00    +0.000 A 
ATOM     11  C   UNL     1       8.027   1.581 -18.141  0.00  0.00    +0.000 A 
BRANCH   9  12
ATOM     12  O   UNL     1       8.642  -1.547 -23.387  0.00  0.00    +0.000 OA
ATOM     13  H   UNL     1       8.349  -1.264 -24.272  0.00  0.00    +0.000 HD
ENDBRANCH   9  12
ENDBRANCH   1   2
BRANCH   1  14
ATOM     14  S   UNL     1      10.697  -2.477 -20.405  0.00  0.00    +0.000 S 
BRANCH  14  15
ATOM     15  C   UNL     1      11.154  -1.369 -19.065  0.00  0.00    +0.000 A 
ATOM     16  C   UNL     1      11.542  -0.032 -19.321  0.00  0.00    +0.000 A 
ATOM     17  C   UNL     1      11.865   0.809 -18.230  0.00  0.00    +0.000 A 
ATOM     18  C   UNL     1      11.614   0.524 -20.612  0.00  0.00    +0.000 A 
ATOM     19  C   UNL     1      11.819   0.324 -16.927  0.00  0.00    +0.000 A 
ATOM     20  C   UNL     1      12.229   2.139 -18.443  0.00  0.00    +0.000 A 
ATOM     21  C   UNL     1      11.453  -0.994 -16.677  0.00  0.00    +0.000 A 
ATOM     22  C   UNL     1      11.123  -1.829 -17.738  0.00  0.00    +0.000 A 
ATOM     23  C   UNL     1      12.282   2.661 -19.733  0.00  0.00    +0.000 A 
ATOM     24  C   UNL     1      11.976   1.852 -20.820  0.00  0.00    +0.000 A 
BRANCH  22  25
ATOM     25  O   UNL     1      10.763  -3.111 -17.415  0.00  0.00    +0.000 OA
ATOM     26  H   UNL     1      10.226  -3.071 -16.602  0.00  0.00    +0.000 HD
ENDBRANCH  22  25
ENDBRANCH  14  15
ENDBRANCH   1  14
TORSDOF 5
ENDMDL
MODEL 5
REMARK VINA RESULT:      -5.2     20.922     23.261
REMARK  Name = IPA3.pdbqt.pdb
REMARK  5 active torsions:
REMARK  status: ('A' for Active; 'I' for Inactive)
REMARK    1  A    between atoms: S_1  and  S_2
REMARK    2  A    between atoms: S_1  and  C_15
REMARK    3  A    between atoms: S_2  and  C_3
REMARK    4  A    between atoms: C_10  and  O_13
REMARK    5  A    between atoms: C_22  and  O_25
REMARK                            x       y       z     vdW  Elec       q    Type
REMARK                         _______ _______ _______ _____ _____    ______ ____
ROOT
ATOM      1  S   UNL     1      -6.689  18.336 -13.552  0.00  0.00    +0.000 S 
ENDROOT
BRANCH   1   2
ATOM      2  C   UNL     1      -5.218  18.697 -12.581  0.00  0.00    +0.000 A 
ATOM      3  C   UNL     1      -3.952  18.846 -13.197  0.00  0.00    +0.000 A 
ATOM      4  C   UNL     1      -2.831  19.158 -12.392  0.00  0.00    +0.000 A 
ATOM      5  C   UNL     1      -3.741  18.715 -14.581  0.00  0.00    +0.000 A 
ATOM      6  C   UNL     1      -2.967  19.299 -11.014  0.00  0.00    +0.000 A 
ATOM      7  C   UNL     1      -1.573  19.336 -12.968  0.00  0.00    +0.000 A 
ATOM      8  C   UNL     1      -4.207  19.136 -10.409  0.00  0.00    +0.000 A 
ATOM      9  C   UNL     1      -5.321  18.840 -11.188  0.00  0.00    +0.000 A 
ATOM     10  C   UNL     1      -1.399  19.207 -14.343  0.00  0.00    +0.000 A 
ATOM     11  C   UNL     1      -2.484  18.895 -15.151  0.00  0.00    +0.000 A 
BRANCH   9  12
ATOM     12  O   UNL     1      -6.511  18.703 -10.523  0.00  0.00    +0.000 OA
ATOM     13  H   UNL     1      -6.354  18.135  -9.747  0.00  0.00    +0.000 HD
ENDBRANCH   9  12
ENDBRANCH   1   2
BRANCH   1  14
ATOM     14  S   UNL     1      -6.633  16.278 -13.641  0.00  0.00    +0.000 S 
BRANCH  14  15
ATOM     15  C   UNL     1      -6.167  16.001 -15.356  0.00  0.00    +0.000 A 
ATOM     16  C   UNL     1      -4.886  15.501 -15.694  0.00  0.00    +0.000 A 
ATOM     17  C   UNL     1      -4.577  15.273 -17.055  0.00  0.00    +0.000 A 
ATOM     18  C   UNL     1      -3.893  15.201 -14.744  0.00  0.00    +0.000 A 
ATOM     19  C   UNL     1      -5.511  15.553 -18.048  0.00  0.00    +0.000 A 
ATOM     20  C   UNL     1      -3.334  14.760 -17.424  0.00  0.00    +0.000 A 
ATOM     21  C   UNL     1      -6.763  16.058 -17.716  0.00  0.00    +0.000 A 
ATOM     22  C   UNL     1      -7.085  16.278 -16.382  0.00  0.00    +0.000 A 
ATOM     23  C   UNL     1      -2.375  14.464 -16.459  0.00  0.00    +0.000 A 
ATOM     24  C   UNL     1      -2.654  14.687 -15.116  0.00  0.00    +0.000 A 
BRANCH  22  25
ATOM     25  O   UNL     1      -8.340  16.768 -16.131  0.00  0.00    +0.000 OA
ATOM     26  H   UNL     1      -8.964  16.020 -16.178  0.00  0.00    +0.000 HD
ENDBRANCH  22  25
ENDBRANCH  14  15
ENDBRANCH   1  14
TORSDOF 5
ENDMDL
MODEL 6
REMARK VINA RESULT:      -5.2     18.228     20.810
REMARK  Name = IPA3.pdbqt.pdb
REMARK  5 active torsions:
REMARK  status: ('A' for Active; 'I' for Inactive)
REMARK    1  A    between atoms: S_1  and  S_2
REMARK    2  A    between atoms: S_1  and  C_15
REMARK    3  A    between atoms: S_2  and  C_3
REMARK    4  A    between atoms: C_10  and  O_13
REMARK    5  A    between atoms: C_22  and  O_25
REMARK                            x       y       z     vdW  Elec       q    Type
REMARK                         _______ _______ _______ _____ _____    ______ ____
ROOT
ATOM      1  S   UNL     1       7.560 -18.925 -11.961  0.00  0.00    +0.000 S 
ENDROOT
BRANCH   1   2
ATOM      2  C   UNL     1       7.414 -17.718 -13.287  0.00  0.00    +0.000 A 
ATOM      3  C   UNL     1       6.220 -17.598 -14.040  0.00  0.00    +0.000 A 
ATOM      4  C   UNL     1       6.146 -16.614 -15.054  0.00  0.00    +0.000 A 
ATOM      5  C   UNL     1       5.085 -18.400 -13.829  0.00  0.00    +0.000 A 
ATOM      6  C   UNL     1       7.235 -15.788 -15.320  0.00  0.00    +0.000 A 
ATOM      7  C   UNL     1       4.978 -16.451 -15.799  0.00  0.00    +0.000 A 
ATOM      8  C   UNL     1       8.411 -15.919 -14.591  0.00  0.00    +0.000 A 
ATOM      9  C   UNL     1       8.497 -16.874 -13.584  0.00  0.00    +0.000 A 
ATOM     10  C   UNL     1       3.868 -17.256 -15.559  0.00  0.00    +0.000 A 
ATOM     11  C   UNL     1       3.920 -18.232 -14.574  0.00  0.00    +0.000 A 
BRANCH   9  12
ATOM     12  O   UNL     1       9.683 -16.937 -12.902  0.00  0.00    +0.000 OA
ATOM     13  H   UNL     1      10.247 -17.595 -13.348  0.00  0.00    +0.000 HD
ENDBRANCH   9  12
ENDBRANCH   1   2
BRANCH   1  14
ATOM     14  S   UNL     1       7.060 -17.794 -10.313  0.00  0.00    +0.000 S 
BRANCH  14  15
ATOM     15  C   UNL     1       5.263 -17.840 -10.372  0.00  0.00    +0.000 A 
ATOM     16  C   UNL     1       4.522 -16.769 -10.928  0.00  0.00    +0.000 A 
ATOM     17  C   UNL     1       3.111 -16.865 -10.977  0.00  0.00    +0.000 A 
ATOM     18  C   UNL     1       5.112 -15.605 -11.454  0.00  0.00    +0.000 A 
ATOM     19  C   UNL     1       2.461 -17.987 -10.470  0.00  0.00    +0.000 A 
ATOM     20  C   UNL     1       2.350 -15.840 -11.538  0.00  0.00    +0.000 A 
ATOM     21  C   UNL     1       3.189 -19.030  -9.910  0.00  0.00    +0.000 A 
ATOM     22  C   UNL     1       4.577 -18.955  -9.864  0.00  0.00    +0.000 A 
ATOM     23  C   UNL     1       2.965 -14.705 -12.059  0.00  0.00    +0.000 A 
ATOM     24  C   UNL     1       4.348 -14.586 -12.015  0.00  0.00    +0.000 A 
BRANCH  22  25
ATOM     25  O   UNL     1       5.226 -20.025  -9.307  0.00  0.00    +0.000 OA
ATOM     26  H   UNL     1       5.277 -20.725  -9.984  0.00  0.00    +0.000 HD
ENDBRANCH  22  25
ENDBRANCH  14  15
ENDBRANCH   1  14
TORSDOF 5
ENDMDL
MODEL 7
REMARK VINA RESULT:      -5.2     18.909     21.874
REMARK  Name = IPA3.pdbqt.pdb
REMARK  5 active torsions:
REMARK  status: ('A' for Active; 'I' for Inactive)
REMARK    1  A    between atoms: S_1  and  S_2
REMARK    2  A    between atoms: S_1  and  C_15
REMARK    3  A    between atoms: S_2  and  C_3
REMARK    4  A    between atoms: C_10  and  O_13
REMARK    5  A    between atoms: C_22  and  O_25
REMARK                            x       y       z     vdW  Elec       q    Type
REMARK                         _______ _______ _______ _____ _____    ______ ____
ROOT
ATOM      1  S   UNL     1       6.255 -16.106 -10.001  0.00  0.00    +0.000 S 
ENDROOT
BRANCH   1   2
ATOM      2  C   UNL     1       6.013 -16.150 -11.784  0.00  0.00    +0.000 A 
ATOM      3  C   UNL     1       4.784 -15.754 -12.365  0.00  0.00    +0.000 A 
ATOM      4  C   UNL     1       4.654 -15.780 -13.774  0.00  0.00    +0.000 A 
ATOM      5  C   UNL     1       3.675 -15.318 -11.619  0.00  0.00    +0.000 A 
ATOM      6  C   UNL     1       5.711 -16.204 -14.575  0.00  0.00    +0.000 A 
ATOM      7  C   UNL     1       3.467 -15.374 -14.383  0.00  0.00    +0.000 A 
ATOM      8  C   UNL     1       6.910 -16.608 -14.000  0.00  0.00    +0.000 A 
ATOM      9  C   UNL     1       7.058 -16.578 -12.618  0.00  0.00    +0.000 A 
ATOM     10  C   UNL     1       2.390 -14.940 -13.616  0.00  0.00    +0.000 A 
ATOM     11  C   UNL     1       2.492 -14.913 -12.232  0.00  0.00    +0.000 A 
BRANCH   9  12
ATOM     12  O   UNL     1       8.271 -16.981 -12.125  0.00  0.00    +0.000 OA
ATOM     13  H   UNL     1       8.107 -17.489 -11.311  0.00  0.00    +0.000 HD
ENDBRANCH   9  12
ENDBRANCH   1   2
BRANCH   1  14
ATOM     14  S   UNL     1       6.303 -18.113  -9.539  0.00  0.00    +0.000 S 
BRANCH  14  15
ATOM     15  C   UNL     1       4.703 -18.344  -8.751  0.00  0.00    +0.000 A 
ATOM     16  C   UNL     1       3.545 -18.626  -9.516  0.00  0.00    +0.000 A 
ATOM     17  C   UNL     1       2.315 -18.827  -8.847  0.00  0.00    +0.000 A 
ATOM     18  C   UNL     1       3.546 -18.732 -10.919  0.00  0.00    +0.000 A 
ATOM     19  C   UNL     1       2.240 -18.732  -7.461  0.00  0.00    +0.000 A 
ATOM     20  C   UNL     1       1.158 -19.128  -9.566  0.00  0.00    +0.000 A 
ATOM     21  C   UNL     1       3.375 -18.440  -6.712  0.00  0.00    +0.000 A 
ATOM     22  C   UNL     1       4.593 -18.250  -7.354  0.00  0.00    +0.000 A 
ATOM     23  C   UNL     1       1.194 -19.236 -10.954  0.00  0.00    +0.000 A 
ATOM     24  C   UNL     1       2.390 -19.035 -11.632  0.00  0.00    +0.000 A 
BRANCH  22  25
ATOM     25  O   UNL     1       5.668 -17.975  -6.551  0.00  0.00    +0.000 OA
ATOM     26  H   UNL     1       6.320 -17.486  -7.086  0.00  0.00    +0.000 HD
ENDBRANCH  22  25
ENDBRANCH  14  15
ENDBRANCH   1  14
TORSDOF 5
ENDMDL
MODEL 8
REMARK VINA RESULT:      -5.1     19.561     21.773
REMARK  Name = IPA3.pdbqt.pdb
REMARK  5 active torsions:
REMARK  status: ('A' for Active; 'I' for Inactive)
REMARK    1  A    between atoms: S_1  and  S_2
REMARK    2  A    between atoms: S_1  and  C_15
REMARK    3  A    between atoms: S_2  and  C_3
REMARK    4  A    between atoms: C_10  and  O_13
REMARK    5  A    between atoms: C_22  and  O_25
REMARK                            x       y       z     vdW  Elec       q    Type
REMARK                         _______ _______ _______ _____ _____    ______ ____
ROOT
ATOM      1  S   UNL     1      -4.843  16.062 -19.856  0.00  0.00    +0.000 S 
ENDROOT
BRANCH   1   2
ATOM      2  C   UNL     1      -5.444  15.992 -18.162  0.00  0.00    +0.000 A 
ATOM      3  C   UNL     1      -4.690  15.358 -17.144  0.00  0.00    +0.000 A 
ATOM      4  C   UNL     1      -5.193  15.355 -15.822  0.00  0.00    +0.000 A 
ATOM      5  C   UNL     1      -3.450  14.735 -17.369  0.00  0.00    +0.000 A 
ATOM      6  C   UNL     1      -6.418  15.950 -15.529  0.00  0.00    +0.000 A 
ATOM      7  C   UNL     1      -4.468  14.761 -14.789  0.00  0.00    +0.000 A 
ATOM      8  C   UNL     1      -7.163  16.556 -16.532  0.00  0.00    +0.000 A 
ATOM      9  C   UNL     1      -6.677  16.578 -17.836  0.00  0.00    +0.000 A 
ATOM     10  C   UNL     1      -3.239  14.159 -15.043  0.00  0.00    +0.000 A 
ATOM     11  C   UNL     1      -2.728  14.145 -16.334  0.00  0.00    +0.000 A 
BRANCH   9  12
ATOM     12  O   UNL     1      -7.462  17.203 -18.769  0.00  0.00    +0.000 OA
ATOM     13  H   UNL     1      -6.926  17.323 -19.574  0.00  0.00    +0.000 HD
ENDBRANCH   9  12
ENDBRANCH   1   2
BRANCH   1  14
ATOM     14  S   UNL     1      -3.933  17.910 -19.899  0.00  0.00    +0.000 S 
BRANCH  14  15
ATOM     15  C   UNL     1      -2.451  17.609 -18.927  0.00  0.00    +0.000 A 
ATOM     16  C   UNL     1      -2.388  17.966 -17.559  0.00  0.00    +0.000 A 
ATOM     17  C   UNL     1      -1.209  17.683 -16.830  0.00  0.00    +0.000 A 
ATOM     18  C   UNL     1      -3.446  18.583 -16.867  0.00  0.00    +0.000 A 
ATOM     19  C   UNL     1      -0.121  17.078 -17.453  0.00  0.00    +0.000 A 
ATOM     20  C   UNL     1      -1.119  18.000 -15.475  0.00  0.00    +0.000 A 
ATOM     21  C   UNL     1      -0.178  16.742 -18.801  0.00  0.00    +0.000 A 
ATOM     22  C   UNL     1      -1.334  17.005 -19.528  0.00  0.00    +0.000 A 
ATOM     23  C   UNL     1      -2.188  18.602 -14.816  0.00  0.00    +0.000 A 
ATOM     24  C   UNL     1      -3.353  18.896 -15.513  0.00  0.00    +0.000 A 
BRANCH  22  25
ATOM     25  O   UNL     1      -1.320  16.637 -20.847  0.00  0.00    +0.000 OA
ATOM     26  H   UNL     1      -2.126  16.995 -21.262  0.00  0.00    +0.000 HD
ENDBRANCH  22  25
ENDBRANCH  14  15
ENDBRANCH   1  14
TORSDOF 5
ENDMDL
MODEL 9
REMARK VINA RESULT:      -5.0     20.160     22.551
REMARK  Name = IPA3.pdbqt.pdb
REMARK  5 active torsions:
REMARK  status: ('A' for Active; 'I' for Inactive)
REMARK    1  A    between atoms: S_1  and  S_2
REMARK    2  A    between atoms: S_1  and  C_15
REMARK    3  A    between atoms: S_2  and  C_3
REMARK    4  A    between atoms: C_10  and  O_13
REMARK    5  A    between atoms: C_22  and  O_25
REMARK                            x       y       z     vdW  Elec       q    Type
REMARK                         _______ _______ _______ _____ _____    ______ ____
ROOT
ATOM      1  S   UNL     1      -6.632  18.086 -17.602  0.00  0.00    +0.000 S 
ENDROOT
BRANCH   1   2
ATOM      2  C   UNL     1      -6.305  17.968 -15.837  0.00  0.00    +0.000 A 
ATOM      3  C   UNL     1      -5.005  18.181 -15.318  0.00  0.00    +0.000 A 
ATOM      4  C   UNL     1      -4.805  18.105 -13.919  0.00  0.00    +0.000 A 
ATOM      5  C   UNL     1      -3.888  18.481 -16.118  0.00  0.00    +0.000 A 
ATOM      6  C   UNL     1      -5.867  17.808 -13.068  0.00  0.00    +0.000 A 
ATOM      7  C   UNL     1      -3.543  18.332 -13.370  0.00  0.00    +0.000 A 
ATOM      8  C   UNL     1      -7.138  17.584 -13.581  0.00  0.00    +0.000 A 
ATOM      9  C   UNL     1      -7.353  17.665 -14.953  0.00  0.00    +0.000 A 
ATOM     10  C   UNL     1      -2.459  18.635 -14.189  0.00  0.00    +0.000 A 
ATOM     11  C   UNL     1      -2.630  18.708 -15.565  0.00  0.00    +0.000 A 
BRANCH   9  12
ATOM     12  O   UNL     1      -8.634  17.442 -15.384  0.00  0.00    +0.000 OA
ATOM     13  H   UNL     1      -8.672  16.538 -15.745  0.00  0.00    +0.000 HD
ENDBRANCH   9  12
ENDBRANCH   1   2
BRANCH   1  14
ATOM     14  S   UNL     1      -6.748  16.100 -18.137  0.00  0.00    +0.000 S 
BRANCH  14  15
ATOM     15  C   UNL     1      -5.011  15.643 -18.220  0.00  0.00    +0.000 A 
ATOM     16  C   UNL     1      -4.329  15.149 -17.082  0.00  0.00    +0.000 A 
ATOM     17  C   UNL     1      -2.970  14.777 -17.205  0.00  0.00    +0.000 A 
ATOM     18  C   UNL     1      -4.933  14.991 -15.821  0.00  0.00    +0.000 A 
ATOM     19  C   UNL     1      -2.308  14.911 -18.422  0.00  0.00    +0.000 A 
ATOM     20  C   UNL     1      -2.273  14.265 -16.111  0.00  0.00    +0.000 A 
ATOM     21  C   UNL     1      -2.974  15.412 -19.535  0.00  0.00    +0.000 A 
ATOM     22  C   UNL     1      -4.313  15.772 -19.432  0.00  0.00    +0.000 A 
ATOM     23  C   UNL     1      -2.902  14.112 -14.878  0.00  0.00    +0.000 A 
ATOM     24  C   UNL     1      -4.235  14.478 -14.732  0.00  0.00    +0.000 A 
BRANCH  22  25
ATOM     25  O   UNL     1      -4.905  16.247 -20.572  0.00  0.00    +0.000 OA
ATOM     26  H   UNL     1      -4.373  17.001 -20.889  0.00  0.00    +0.000 HD
ENDBRANCH  22  25
ENDBRANCH  14  15
ENDBRANCH   1  14
TORSDOF 5
ENDMDL
