MODEL 1
REMARK VINA RESULT:      -7.4      0.000      0.000
REMARK  Name = 
REMARK  8 active torsions:
REMARK  status: ('A' for Active; 'I' for Inactive)
REMARK    1  A    between atoms: O_1  and  C_21
REMARK    2  A    between atoms: O_1  and  C_38
REMARK    3  A    between atoms: O_4  and  C_26
REMARK    4  A    between atoms: N_7  and  C_11
REMARK    5  A    between atoms: C_26  and  C_33
REMARK    6  A    between atoms: C_29  and  C_37
REMARK    7  A    between atoms: C_33  and  C_42
REMARK    8  A    between atoms: C_37  and  C_43
REMARK                            x       y       z     vdW  Elec       q    Type
REMARK                         _______ _______ _______ _____ _____    ______ ____
ROOT
ATOM      1  O   UNL     1       3.773  -0.591 -19.215  0.00  0.00    +0.000 OA
ATOM      2  O   UNL     1       0.530   1.800 -20.446  0.00  0.00    +0.000 OA
ATOM      3  O   UNL     1       4.253  -2.241 -17.767  0.00  0.00    +0.000 OA
ATOM      4  N   UNL     1      -0.987   0.158 -19.925  0.00  0.00    +0.000 N 
ATOM      5  N   UNL     1      -3.374  -2.409 -19.165  0.00  0.00    +0.000 NA
ATOM      6  C   UNL     1      -1.268  -1.130 -19.517  0.00  0.00    +0.000 A 
ATOM      7  C   UNL     1      -3.291  -0.092 -19.894  0.00  0.00    +0.000 A 
ATOM      8  C   UNL     1      -2.215   0.911 -20.192  0.00  0.00    +0.000 C 
ATOM      9  C   UNL     1       1.096  -1.556 -19.328  0.00  0.00    +0.000 A 
ATOM     10  C   UNL     1       2.216  -2.524 -19.042  0.00  0.00    +0.000 C 
ATOM     11  C   UNL     1      -2.718  -1.295 -19.497  0.00  0.00    +0.000 A 
ATOM     12  C   UNL     1       1.378  -0.300 -19.726  0.00  0.00    +0.000 A 
ATOM     13  C   UNL     1      -4.673   0.009 -19.962  0.00  0.00    +0.000 A 
ATOM     14  C   UNL     1      -0.291  -1.993 -19.219  0.00  0.00    +0.000 A 
ATOM     15  C   UNL     1       0.280   0.661 -20.065  0.00  0.00    +0.000 A 
ATOM     16  C   UNL     1      -5.423  -1.157 -19.632  0.00  0.00    +0.000 A 
ATOM     17  C   UNL     1       2.769   0.209 -19.873  0.00  0.00    +0.000 C 
ATOM     18  C   UNL     1      -4.712  -2.337 -19.237  0.00  0.00    +0.000 A 
ATOM     19  C   UNL     1       3.487  -1.761 -18.604  0.00  0.00    +0.000 C 
ATOM     20  C   UNL     1      -7.507  -2.388 -19.354  0.00  0.00    +0.000 A 
ATOM     21  C   UNL     1      -6.833  -1.212 -19.676  0.00  0.00    +0.000 A 
ATOM     22  C   UNL     1      -5.428  -3.480 -18.903  0.00  0.00    +0.000 A 
ATOM     23  C   UNL     1      -6.822  -3.520 -18.949  0.00  0.00    +0.000 A 
ENDROOT
BRANCH  10  24
ATOM     24  O   UNL     1       1.816  -3.388 -17.968  0.00  0.00    +0.000 OA
ATOM     25  H   UNL     1       2.641  -3.730 -17.571  0.00  0.00    +0.000 HD
ENDBRANCH  10  24
BRANCH  10  26
ATOM     26  C   UNL     1       2.520  -3.383 -20.288  0.00  0.00    +0.000 C 
ATOM     27  C   UNL     1       2.077  -4.839 -20.178  0.00  0.00    +0.000 C 
ENDBRANCH  10  26
BRANCH  13  28
ATOM     28  C   UNL     1      -5.309   1.305 -20.404  0.00  0.00    +0.000 C 
ATOM     29  C   UNL     1      -5.432   1.397 -21.917  0.00  0.00    +0.000 C 
ENDBRANCH  13  28
BRANCH  20  30
ATOM     30  O   UNL     1      -8.903  -2.396 -19.365  0.00  0.00    +0.000 OA
BRANCH  30  38
ATOM     31  O   UNL     1      -9.044  -2.815 -21.638  0.00  0.00    +0.000 OA
ATOM     32  N   UNL     1     -10.527  -1.362 -20.641  0.00  0.00    +0.000 N 
ATOM     33  C   UNL     1     -12.031   1.130 -20.941  0.00  0.00    +0.000 C 
ATOM     34  C   UNL     1     -11.214   0.787 -19.670  0.00  0.00    +0.000 C 
ATOM     35  C   UNL     1     -11.410   0.370 -22.140  0.00  0.00    +0.000 C 
ATOM     36  C   UNL     1     -11.066  -0.717 -19.456  0.00  0.00    +0.000 C 
ATOM     37  C   UNL     1     -11.261  -1.124 -21.870  0.00  0.00    +0.000 C 
ATOM     38  C   UNL     1      -9.456  -2.243 -20.633  0.00  0.00    +0.000 C 
BRANCH  33  39
ATOM     39  N   UNL     1     -12.091   2.606 -21.189  0.00  0.00    +0.000 NA
ATOM     40  C   UNL     1     -11.337   2.996 -22.399  0.00  0.00    +0.000 C 
ATOM     41  C   UNL     1     -13.481   3.101 -21.281  0.00  0.00    +0.000 C 
ATOM     42  C   UNL     1     -11.361   4.506 -22.652  0.00  0.00    +0.000 C 
ATOM     43  C   UNL     1     -13.559   4.612 -21.508  0.00  0.00    +0.000 C 
ATOM     44  C   UNL     1     -12.783   5.032 -22.743  0.00  0.00    +0.000 C 
ENDBRANCH  33  39
ENDBRANCH  30  38
ENDBRANCH  20  30
TORSDOF 6
ENDMDL
MODEL 2
REMARK VINA RESULT:      -7.3      4.078     13.150
REMARK  Name = 
REMARK  8 active torsions:
REMARK  status: ('A' for Active; 'I' for Inactive)
REMARK    1  A    between atoms: O_1  and  C_21
REMARK    2  A    between atoms: O_1  and  C_38
REMARK    3  A    between atoms: O_4  and  C_26
REMARK    4  A    between atoms: N_7  and  C_11
REMARK    5  A    between atoms: C_26  and  C_33
REMARK    6  A    between atoms: C_29  and  C_37
REMARK    7  A    between atoms: C_33  and  C_42
REMARK    8  A    between atoms: C_37  and  C_43
REMARK                            x       y       z     vdW  Elec       q    Type
REMARK                         _______ _______ _______ _____ _____    ______ ____
ROOT
ATOM      1  O   UNL     1      -8.488  -1.447 -21.884  0.00  0.00    +0.000 OA
ATOM      2  O   UNL     1      -5.873   1.807 -21.310  0.00  0.00    +0.000 OA
ATOM      3  O   UNL     1      -8.449  -3.610 -22.488  0.00  0.00    +0.000 OA
ATOM      4  N   UNL     1      -4.133   0.418 -20.753  0.00  0.00    +0.000 N 
ATOM      5  N   UNL     1      -1.410  -1.727 -19.830  0.00  0.00    +0.000 NA
ATOM      6  C   UNL     1      -3.645  -0.844 -20.477  0.00  0.00    +0.000 A 
ATOM      7  C   UNL     1      -1.878   0.619 -20.256  0.00  0.00    +0.000 A 
ATOM      8  C   UNL     1      -3.080   1.431 -20.641  0.00  0.00    +0.000 C 
ATOM      9  C   UNL     1      -5.843  -1.748 -20.871  0.00  0.00    +0.000 A 
ATOM     10  C   UNL     1      -6.767  -2.940 -20.883  0.00  0.00    +0.000 C 
ATOM     11  C   UNL     1      -2.226  -0.723 -20.161  0.00  0.00    +0.000 A 
ATOM     12  C   UNL     1      -6.327  -0.520 -21.142  0.00  0.00    +0.000 A 
ATOM     13  C   UNL     1      -0.569   0.999 -19.996  0.00  0.00    +0.000 A 
ATOM     14  C   UNL     1      -4.438  -1.919 -20.521  0.00  0.00    +0.000 A 
ATOM     15  C   UNL     1      -5.436   0.683 -21.083  0.00  0.00    +0.000 A 
ATOM     16  C   UNL     1       0.341  -0.032 -19.623  0.00  0.00    +0.000 A 
ATOM     17  C   UNL     1      -7.751  -0.270 -21.491  0.00  0.00    +0.000 C 
ATOM     18  C   UNL     1      -0.142  -1.380 -19.562  0.00  0.00    +0.000 A 
ATOM     19  C   UNL     1      -7.957  -2.687 -21.837  0.00  0.00    +0.000 C 
ATOM     20  C   UNL     1       2.533  -0.847 -18.938  0.00  0.00    +0.000 A 
ATOM     21  C   UNL     1       1.697   0.205 -19.309  0.00  0.00    +0.000 A 
ATOM     22  C   UNL     1       0.734  -2.399 -19.209  0.00  0.00    +0.000 A 
ATOM     23  C   UNL     1       2.072  -2.152 -18.902  0.00  0.00    +0.000 A 
ENDROOT
BRANCH  10  24
ATOM     24  O   UNL     1      -6.041  -4.082 -21.359  0.00  0.00    +0.000 OA
ATOM     25  H   UNL     1      -5.461  -3.756 -22.076  0.00  0.00    +0.000 HD
ENDBRANCH  10  24
BRANCH  10  26
ATOM     26  C   UNL     1      -7.287  -3.235 -19.460  0.00  0.00    +0.000 C 
ATOM     27  C   UNL     1      -7.112  -4.683 -19.009  0.00  0.00    +0.000 C 
ENDBRANCH  10  26
BRANCH  13  28
ATOM     28  C   UNL     1      -0.180   2.455 -20.082  0.00  0.00    +0.000 C 
ATOM     29  C   UNL     1       0.251   2.852 -21.486  0.00  0.00    +0.000 C 
ENDBRANCH  13  28
BRANCH  20  30
ATOM     30  O   UNL     1       3.878  -0.585 -18.676  0.00  0.00    +0.000 OA
BRANCH  30  38
ATOM     31  O   UNL     1       4.624  -1.133 -20.799  0.00  0.00    +0.000 OA
ATOM     32  N   UNL     1       5.457   0.730 -19.733  0.00  0.00    +0.000 N 
ATOM     33  C   UNL     1       7.829   2.376 -19.255  0.00  0.00    +0.000 C 
ATOM     34  C   UNL     1       6.883   1.910 -18.120  0.00  0.00    +0.000 C 
ATOM     35  C   UNL     1       7.727   1.359 -20.421  0.00  0.00    +0.000 C 
ATOM     36  C   UNL     1       5.461   1.650 -18.609  0.00  0.00    +0.000 C 
ATOM     37  C   UNL     1       6.287   1.115 -20.858  0.00  0.00    +0.000 C 
ATOM     38  C   UNL     1       4.648  -0.393 -19.820  0.00  0.00    +0.000 C 
BRANCH  33  39
ATOM     39  N   UNL     1       9.239   2.539 -18.781  0.00  0.00    +0.000 NA
ATOM     40  C   UNL     1       9.516   1.732 -17.573  0.00  0.00    +0.000 C 
ATOM     41  C   UNL     1      10.224   2.219 -19.835  0.00  0.00    +0.000 C 
ATOM     42  C   UNL     1      10.945   1.910 -17.054  0.00  0.00    +0.000 C 
ATOM     43  C   UNL     1      11.671   2.407 -19.374  0.00  0.00    +0.000 C 
ATOM     44  C   UNL     1      11.970   1.591 -18.129  0.00  0.00    +0.000 C 
ENDBRANCH  33  39
ENDBRANCH  30  38
ENDBRANCH  20  30
TORSDOF 6
ENDMDL
MODEL 3
REMARK VINA RESULT:      -6.7      4.772     13.023
REMARK  Name = 
REMARK  8 active torsions:
REMARK  status: ('A' for Active; 'I' for Inactive)
REMARK    1  A    between atoms: O_1  and  C_21
REMARK    2  A    between atoms: O_1  and  C_38
REMARK    3  A    between atoms: O_4  and  C_26
REMARK    4  A    between atoms: N_7  and  C_11
REMARK    5  A    between atoms: C_26  and  C_33
REMARK    6  A    between atoms: C_29  and  C_37
REMARK    7  A    between atoms: C_33  and  C_42
REMARK    8  A    between atoms: C_37  and  C_43
REMARK                            x       y       z     vdW  Elec       q    Type
REMARK                         _______ _______ _______ _____ _____    ______ ____
ROOT
ATOM      1  O   UNL     1     -16.072  -3.413 -28.893  0.00  0.00    +0.000 OA
ATOM      2  O   UNL     1     -15.748  -1.038 -25.428  0.00  0.00    +0.000 OA
ATOM      3  O   UNL     1     -14.774  -4.427 -30.421  0.00  0.00    +0.000 OA
ATOM      4  N   UNL     1     -13.719  -1.963 -24.883  0.00  0.00    +0.000 N 
ATOM      5  N   UNL     1     -10.571  -3.426 -23.980  0.00  0.00    +0.000 NA
ATOM      6  C   UNL     1     -12.723  -2.891 -25.110  0.00  0.00    +0.000 A 
ATOM      7  C   UNL     1     -12.082  -1.661 -23.269  0.00  0.00    +0.000 A 
ATOM      8  C   UNL     1     -13.407  -1.121 -23.724  0.00  0.00    +0.000 C 
ATOM      9  C   UNL     1     -13.969  -3.723 -26.997  0.00  0.00    +0.000 A 
ATOM     10  C   UNL     1     -14.105  -4.725 -28.116  0.00  0.00    +0.000 C 
ATOM     11  C   UNL     1     -11.690  -2.707 -24.096  0.00  0.00    +0.000 A 
ATOM     12  C   UNL     1     -14.946  -2.820 -26.780  0.00  0.00    +0.000 A 
ATOM     13  C   UNL     1     -11.263  -1.290 -22.212  0.00  0.00    +0.000 A 
ATOM     14  C   UNL     1     -12.804  -3.762 -26.120  0.00  0.00    +0.000 A 
ATOM     15  C   UNL     1     -14.854  -1.851 -25.642  0.00  0.00    +0.000 A 
ATOM     16  C   UNL     1     -10.062  -2.035 -22.034  0.00  0.00    +0.000 A 
ATOM     17  C   UNL     1     -16.169  -2.733 -27.624  0.00  0.00    +0.000 C 
ATOM     18  C   UNL     1      -9.770  -3.092 -22.956  0.00  0.00    +0.000 A 
ATOM     19  C   UNL     1     -14.998  -4.155 -29.241  0.00  0.00    +0.000 C 
ATOM     20  C   UNL     1      -7.990  -2.561 -20.864  0.00  0.00    +0.000 A 
ATOM     21  C   UNL     1      -9.142  -1.787 -20.992  0.00  0.00    +0.000 A 
ATOM     22  C   UNL     1      -8.599  -3.823 -22.802  0.00  0.00    +0.000 A 
ATOM     23  C   UNL     1      -7.697  -3.567 -21.770  0.00  0.00    +0.000 A 
ENDROOT
BRANCH  10  24
ATOM     24  O   UNL     1     -12.804  -4.987 -28.660  0.00  0.00    +0.000 OA
ATOM     25  H   UNL     1     -12.188  -5.001 -27.900  0.00  0.00    +0.000 HD
ENDBRANCH  10  24
BRANCH  10  26
ATOM     26  C   UNL     1     -14.703  -6.047 -27.588  0.00  0.00    +0.000 C 
ATOM     27  C   UNL     1     -14.121  -7.304 -28.227  0.00  0.00    +0.000 C 
ENDBRANCH  10  26
BRANCH  13  28
ATOM     28  C   UNL     1     -11.683  -0.164 -21.298  0.00  0.00    +0.000 C 
ATOM     29  C   UNL     1     -11.390   1.203 -21.899  0.00  0.00    +0.000 C 
ENDBRANCH  13  28
BRANCH  20  30
ATOM     30  O   UNL     1      -7.080  -2.263 -19.850  0.00  0.00    +0.000 OA
BRANCH  30  38
ATOM     31  O   UNL     1      -6.684  -0.228 -20.885  0.00  0.00    +0.000 OA
ATOM     32  N   UNL     1      -5.266  -0.972 -19.230  0.00  0.00    +0.000 N 
ATOM     33  C   UNL     1      -2.487  -1.125 -18.325  0.00  0.00    +0.000 C 
ATOM     34  C   UNL     1      -3.443  -2.345 -18.323  0.00  0.00    +0.000 C 
ATOM     35  C   UNL     1      -2.967  -0.132 -19.415  0.00  0.00    +0.000 C 
ATOM     36  C   UNL     1      -4.910  -1.941 -18.208  0.00  0.00    +0.000 C 
ATOM     37  C   UNL     1      -4.444   0.222 -19.272  0.00  0.00    +0.000 C 
ATOM     38  C   UNL     1      -6.373  -1.081 -20.058  0.00  0.00    +0.000 C 
BRANCH  33  39
ATOM     39  N   UNL     1      -1.060  -1.529 -18.530  0.00  0.00    +0.000 NA
ATOM     40  C   UNL     1      -0.910  -2.489 -19.643  0.00  0.00    +0.000 C 
ATOM     41  C   UNL     1      -0.176  -0.365 -18.747  0.00  0.00    +0.000 C 
ATOM     42  C   UNL     1       0.539  -2.939 -19.849  0.00  0.00    +0.000 C 
ATOM     43  C   UNL     1       1.292  -0.760 -18.931  0.00  0.00    +0.000 C 
ATOM     44  C   UNL     1       1.463  -1.753 -20.067  0.00  0.00    +0.000 C 
ENDBRANCH  33  39
ENDBRANCH  30  38
ENDBRANCH  20  30
TORSDOF 6
ENDMDL
MODEL 4
REMARK VINA RESULT:      -6.7      4.340     11.951
REMARK  Name = 
REMARK  8 active torsions:
REMARK  status: ('A' for Active; 'I' for Inactive)
REMARK    1  A    between atoms: O_1  and  C_21
REMARK    2  A    between atoms: O_1  and  C_38
REMARK    3  A    between atoms: O_4  and  C_26
REMARK    4  A    between atoms: N_7  and  C_11
REMARK    5  A    between atoms: C_26  and  C_33
REMARK    6  A    between atoms: C_29  and  C_37
REMARK    7  A    between atoms: C_33  and  C_42
REMARK    8  A    between atoms: C_37  and  C_43
REMARK                            x       y       z     vdW  Elec       q    Type
REMARK                         _______ _______ _______ _____ _____    ______ ____
ROOT
ATOM      1  O   UNL     1     -15.514  -2.401 -27.736  0.00  0.00    +0.000 OA
ATOM      2  O   UNL     1     -14.523  -0.619 -24.050  0.00  0.00    +0.000 OA
ATOM      3  O   UNL     1     -14.526  -3.300 -29.543  0.00  0.00    +0.000 OA
ATOM      4  N   UNL     1     -12.570  -1.815 -23.901  0.00  0.00    +0.000 N 
ATOM      5  N   UNL     1      -9.537  -3.708 -23.618  0.00  0.00    +0.000 NA
ATOM      6  C   UNL     1     -11.723  -2.794 -24.379  0.00  0.00    +0.000 A 
ATOM      7  C   UNL     1     -10.738  -1.926 -22.485  0.00  0.00    +0.000 A 
ATOM      8  C   UNL     1     -12.032  -1.192 -22.688  0.00  0.00    +0.000 C 
ATOM      9  C   UNL     1     -13.264  -3.203 -26.186  0.00  0.00    +0.000 A 
ATOM     10  C   UNL     1     -13.642  -4.007 -27.404  0.00  0.00    +0.000 C 
ATOM     11  C   UNL     1     -10.569  -2.870 -23.491  0.00  0.00    +0.000 A 
ATOM     12  C   UNL     1     -14.096  -2.249 -25.725  0.00  0.00    +0.000 A 
ATOM     13  C   UNL     1      -9.767  -1.802 -21.501  0.00  0.00    +0.000 A 
ATOM     14  C   UNL     1     -12.020  -3.491 -25.480  0.00  0.00    +0.000 A 
ATOM     15  C   UNL     1     -13.762  -1.476 -24.486  0.00  0.00    +0.000 A 
ATOM     16  C   UNL     1      -8.651  -2.683 -21.582  0.00  0.00    +0.000 A 
ATOM     17  C   UNL     1     -15.387  -1.913 -26.385  0.00  0.00    +0.000 C 
ATOM     18  C   UNL     1      -8.592  -3.614 -22.670  0.00  0.00    +0.000 A 
ATOM     19  C   UNL     1     -14.582  -3.187 -28.317  0.00  0.00    +0.000 C 
ATOM     20  C   UNL     1      -6.538  -3.586 -20.771  0.00  0.00    +0.000 A 
ATOM     21  C   UNL     1      -7.596  -2.689 -20.643  0.00  0.00    +0.000 A 
ATOM     22  C   UNL     1      -7.506  -4.474 -22.769  0.00  0.00    +0.000 A 
ATOM     23  C   UNL     1      -6.469  -4.468 -21.835  0.00  0.00    +0.000 A 
ENDROOT
BRANCH  10  24
ATOM     24  O   UNL     1     -12.451  -4.315 -28.142  0.00  0.00    +0.000 OA
ATOM     25  H   UNL     1     -12.741  -4.807 -28.936  0.00  0.00    +0.000 HD
ENDBRANCH  10  24
BRANCH  10  26
ATOM     26  C   UNL     1     -14.329  -5.326 -26.990  0.00  0.00    +0.000 C 
ATOM     27  C   UNL     1     -14.384  -6.384 -28.089  0.00  0.00    +0.000 C 
ENDBRANCH  10  26
BRANCH  13  28
ATOM     28  C   UNL     1      -9.945  -0.789 -20.396  0.00  0.00    +0.000 C 
ATOM     29  C   UNL     1     -10.746  -1.348 -19.229  0.00  0.00    +0.000 C 
ENDBRANCH  13  28
BRANCH  20  30
ATOM     30  O   UNL     1      -5.490  -3.536 -19.851  0.00  0.00    +0.000 OA
BRANCH  30  38
ATOM     31  O   UNL     1      -6.635  -2.435 -18.165  0.00  0.00    +0.000 OA
ATOM     32  N   UNL     1      -4.545  -1.706 -18.802  0.00  0.00    +0.000 N 
ATOM     33  C   UNL     1      -2.842   0.629 -19.259  0.00  0.00    +0.000 C 
ATOM     34  C   UNL     1      -2.954  -0.543 -20.267  0.00  0.00    +0.000 C 
ATOM     35  C   UNL     1      -4.153   0.689 -18.434  0.00  0.00    +0.000 C 
ATOM     36  C   UNL     1      -3.338  -1.859 -19.596  0.00  0.00    +0.000 C 
ATOM     37  C   UNL     1      -4.508  -0.654 -17.805  0.00  0.00    +0.000 C 
ATOM     38  C   UNL     1      -5.642  -2.553 -18.877  0.00  0.00    +0.000 C 
BRANCH  33  39
ATOM     39  N   UNL     1      -2.554   1.931 -19.940  0.00  0.00    +0.000 NA
ATOM     40  C   UNL     1      -1.187   2.416 -19.654  0.00  0.00    +0.000 C 
ATOM     41  C   UNL     1      -2.765   1.856 -21.401  0.00  0.00    +0.000 C 
ATOM     42  C   UNL     1      -0.884   3.762 -20.317  0.00  0.00    +0.000 C 
ATOM     43  C   UNL     1      -2.500   3.187 -22.109  0.00  0.00    +0.000 C 
ATOM     44  C   UNL     1      -1.102   3.704 -21.819  0.00  0.00    +0.000 C 
ENDBRANCH  33  39
ENDBRANCH  30  38
ENDBRANCH  20  30
TORSDOF 6
ENDMDL
MODEL 5
REMARK VINA RESULT:      -6.7      4.288      6.485
REMARK  Name = 
REMARK  8 active torsions:
REMARK  status: ('A' for Active; 'I' for Inactive)
REMARK    1  A    between atoms: O_1  and  C_21
REMARK    2  A    between atoms: O_1  and  C_38
REMARK    3  A    between atoms: O_4  and  C_26
REMARK    4  A    between atoms: N_7  and  C_11
REMARK    5  A    between atoms: C_26  and  C_33
REMARK    6  A    between atoms: C_29  and  C_37
REMARK    7  A    between atoms: C_33  and  C_42
REMARK    8  A    between atoms: C_37  and  C_43
REMARK                            x       y       z     vdW  Elec       q    Type
REMARK                         _______ _______ _______ _____ _____    ______ ____
ROOT
ATOM      1  O   UNL     1       0.891   6.291 -26.111  0.00  0.00    +0.000 OA
ATOM      2  O   UNL     1      -3.156   5.190 -25.710  0.00  0.00    +0.000 OA
ATOM      3  O   UNL     1       2.759   6.489 -24.878  0.00  0.00    +0.000 OA
ATOM      4  N   UNL     1      -2.682   3.760 -23.979  0.00  0.00    +0.000 N 
ATOM      5  N   UNL     1      -1.964   1.481 -21.304  0.00  0.00    +0.000 NA
ATOM      6  C   UNL     1      -1.768   3.119 -23.167  0.00  0.00    +0.000 A 
ATOM      7  C   UNL     1      -3.859   2.413 -22.505  0.00  0.00    +0.000 A 
ATOM      8  C   UNL     1      -4.055   3.379 -23.637  0.00  0.00    +0.000 C 
ATOM      9  C   UNL     1       0.014   4.244 -24.336  0.00  0.00    +0.000 A 
ATOM     10  C   UNL     1       1.493   4.455 -24.543  0.00  0.00    +0.000 C 
ATOM     11  C   UNL     1      -2.503   2.268 -22.238  0.00  0.00    +0.000 A 
ATOM     12  C   UNL     1      -0.873   4.873 -25.132  0.00  0.00    +0.000 A 
ATOM     13  C   UNL     1      -4.778   1.697 -21.751  0.00  0.00    +0.000 A 
ATOM     14  C   UNL     1      -0.455   3.323 -23.307  0.00  0.00    +0.000 A 
ATOM     15  C   UNL     1      -2.344   4.635 -24.977  0.00  0.00    +0.000 A 
ATOM     16  C   UNL     1      -4.255   0.830 -20.749  0.00  0.00    +0.000 A 
ATOM     17  C   UNL     1      -0.467   5.813 -26.212  0.00  0.00    +0.000 C 
ATOM     18  C   UNL     1      -2.834   0.769 -20.572  0.00  0.00    +0.000 A 
ATOM     19  C   UNL     1       1.753   5.841 -25.174  0.00  0.00    +0.000 C 
ATOM     20  C   UNL     1      -4.490  -0.814 -18.965  0.00  0.00    +0.000 A 
ATOM     21  C   UNL     1      -5.064   0.023 -19.919  0.00  0.00    +0.000 A 
ATOM     22  C   UNL     1      -2.307  -0.064 -19.593  0.00  0.00    +0.000 A 
ATOM     23  C   UNL     1      -3.118  -0.854 -18.778  0.00  0.00    +0.000 A 
ENDROOT
BRANCH  10  24
ATOM     24  O   UNL     1       2.147   4.409 -23.267  0.00  0.00    +0.000 OA
ATOM     25  H   UNL     1       1.661   3.748 -22.735  0.00  0.00    +0.000 HD
ENDBRANCH  10  24
BRANCH  10  26
ATOM     26  C   UNL     1       2.076   3.347 -25.445  0.00  0.00    +0.000 C 
ATOM     27  C   UNL     1       3.024   2.385 -24.734  0.00  0.00    +0.000 C 
ENDBRANCH  10  26
BRANCH  13  28
ATOM     28  C   UNL     1      -6.254   1.835 -22.038  0.00  0.00    +0.000 C 
ATOM     29  C   UNL     1      -6.717   0.882 -23.129  0.00  0.00    +0.000 C 
ENDBRANCH  13  28
BRANCH  20  30
ATOM     30  O   UNL     1      -5.319  -1.566 -18.132  0.00  0.00    +0.000 OA
BRANCH  30  38
ATOM     31  O   UNL     1      -4.643  -3.690 -18.761  0.00  0.00    +0.000 OA
ATOM     32  N   UNL     1      -6.877  -3.134 -18.805  0.00  0.00    +0.000 N 
ATOM     33  C   UNL     1      -9.413  -3.449 -20.231  0.00  0.00    +0.000 C 
ATOM     34  C   UNL     1      -8.881  -2.075 -19.750  0.00  0.00    +0.000 C 
ATOM     35  C   UNL     1      -8.202  -4.393 -20.444  0.00  0.00    +0.000 C 
ATOM     36  C   UNL     1      -7.954  -2.194 -18.544  0.00  0.00    +0.000 C 
ATOM     37  C   UNL     1      -7.292  -4.460 -19.221  0.00  0.00    +0.000 C 
ATOM     38  C   UNL     1      -5.535  -2.866 -18.578  0.00  0.00    +0.000 C 
BRANCH  33  39
ATOM     39  N   UNL     1     -10.247  -3.327 -21.469  0.00  0.00    +0.000 NA
ATOM     40  C   UNL     1      -9.919  -4.370 -22.464  0.00  0.00    +0.000 C 
ATOM     41  C   UNL     1     -11.694  -3.352 -21.172  0.00  0.00    +0.000 C 
ATOM     42  C   UNL     1     -10.741  -4.244 -23.749  0.00  0.00    +0.000 C 
ATOM     43  C   UNL     1     -12.561  -3.202 -22.424  0.00  0.00    +0.000 C 
ATOM     44  C   UNL     1     -12.232  -4.262 -23.461  0.00  0.00    +0.000 C 
ENDBRANCH  33  39
ENDBRANCH  30  38
ENDBRANCH  20  30
TORSDOF 6
ENDMDL
MODEL 6
REMARK VINA RESULT:      -6.6     20.692     24.294
REMARK  Name = 
REMARK  8 active torsions:
REMARK  status: ('A' for Active; 'I' for Inactive)
REMARK    1  A    between atoms: O_1  and  C_21
REMARK    2  A    between atoms: O_1  and  C_38
REMARK    3  A    between atoms: O_4  and  C_26
REMARK    4  A    between atoms: N_7  and  C_11
REMARK    5  A    between atoms: C_26  and  C_33
REMARK    6  A    between atoms: C_29  and  C_37
REMARK    7  A    between atoms: C_33  and  C_42
REMARK    8  A    between atoms: C_37  and  C_43
REMARK                            x       y       z     vdW  Elec       q    Type
REMARK                         _______ _______ _______ _____ _____    ______ ____
ROOT
ATOM      1  O   UNL     1      12.064  12.346 -22.607  0.00  0.00    +0.000 OA
ATOM      2  O   UNL     1      15.115  11.923 -19.733  0.00  0.00    +0.000 OA
ATOM      3  O   UNL     1       9.933  11.731 -22.970  0.00  0.00    +0.000 OA
ATOM      4  N   UNL     1      13.594  11.732 -18.025  0.00  0.00    +0.000 N 
ATOM      5  N   UNL     1      11.241  11.481 -15.329  0.00  0.00    +0.000 NA
ATOM      6  C   UNL     1      12.293  11.771 -17.566  0.00  0.00    +0.000 A 
ATOM      7  C   UNL     1      13.630  11.317 -15.745  0.00  0.00    +0.000 A 
ATOM      8  C   UNL     1      14.533  11.446 -16.936  0.00  0.00    +0.000 C 
ATOM      9  C   UNL     1      11.548  12.245 -19.808  0.00  0.00    +0.000 A 
ATOM     10  C   UNL     1      10.419  12.569 -20.753  0.00  0.00    +0.000 C 
ATOM     11  C   UNL     1      12.309  11.513 -16.131  0.00  0.00    +0.000 A 
ATOM     12  C   UNL     1      12.817  12.208 -20.263  0.00  0.00    +0.000 A 
ATOM     13  C   UNL     1      13.914  11.055 -14.412  0.00  0.00    +0.000 A 
ATOM     14  C   UNL     1      11.273  12.018 -18.394  0.00  0.00    +0.000 A 
ATOM     15  C   UNL     1      13.957  11.939 -19.330  0.00  0.00    +0.000 A 
ATOM     16  C   UNL     1      12.811  11.024 -13.511  0.00  0.00    +0.000 A 
ATOM     17  C   UNL     1      13.172  12.445 -21.689  0.00  0.00    +0.000 C 
ATOM     18  C   UNL     1      11.495  11.242 -14.034  0.00  0.00    +0.000 A 
ATOM     19  C   UNL     1      10.792  12.158 -22.196  0.00  0.00    +0.000 C 
ATOM     20  C   UNL     1      11.828  10.787 -11.293  0.00  0.00    +0.000 A 
ATOM     21  C   UNL     1      12.947  10.792 -12.124  0.00  0.00    +0.000 A 
ATOM     22  C   UNL     1      10.407  11.206 -13.170  0.00  0.00    +0.000 A 
ATOM     23  C   UNL     1      10.555  10.973 -11.803  0.00  0.00    +0.000 A 
ENDROOT
BRANCH  10  24
ATOM     24  O   UNL     1       9.258  11.826 -20.357  0.00  0.00    +0.000 OA
ATOM     25  H   UNL     1       8.812  11.555 -21.184  0.00  0.00    +0.000 HD
ENDBRANCH  10  24
BRANCH  10  26
ATOM     26  C   UNL     1      10.089  14.077 -20.704  0.00  0.00    +0.000 C 
ATOM     27  C   UNL     1       8.639  14.418 -21.032  0.00  0.00    +0.000 C 
ENDBRANCH  10  26
BRANCH  13  28
ATOM     28  C   UNL     1      15.345  10.853 -13.976  0.00  0.00    +0.000 C 
ATOM     29  C   UNL     1      15.763   9.391 -14.035  0.00  0.00    +0.000 C 
ENDBRANCH  13  28
BRANCH  20  30
ATOM     30  O   UNL     1      11.992  10.511  -9.935  0.00  0.00    +0.000 OA
BRANCH  30  38
ATOM     31  O   UNL     1      12.803  12.655  -9.603  0.00  0.00    +0.000 OA
ATOM     32  N   UNL     1      11.926  11.469  -7.834  0.00  0.00    +0.000 N 
ATOM     33  C   UNL     1      12.166  10.866  -4.980  0.00  0.00    +0.000 C 
ATOM     34  C   UNL     1      11.976   9.771  -6.060  0.00  0.00    +0.000 C 
ATOM     35  C   UNL     1      12.843  12.092  -5.644  0.00  0.00    +0.000 C 
ATOM     36  C   UNL     1      11.260  10.291  -7.304  0.00  0.00    +0.000 C 
ATOM     37  C   UNL     1      12.107  12.560  -6.895  0.00  0.00    +0.000 C 
ATOM     38  C   UNL     1      12.283  11.632  -9.164  0.00  0.00    +0.000 C 
BRANCH  33  39
ATOM     39  N   UNL     1      12.948  10.367  -3.805  0.00  0.00    +0.000 NA
ATOM     40  C   UNL     1      12.685   8.938  -3.530  0.00  0.00    +0.000 C 
ATOM     41  C   UNL     1      14.400  10.589  -3.965  0.00  0.00    +0.000 C 
ATOM     42  C   UNL     1      13.452   8.417  -2.312  0.00  0.00    +0.000 C 
ATOM     43  C   UNL     1      15.211  10.108  -2.759  0.00  0.00    +0.000 C 
ATOM     44  C   UNL     1      14.947   8.644  -2.458  0.00  0.00    +0.000 C 
ENDBRANCH  33  39
ENDBRANCH  30  38
ENDBRANCH  20  30
TORSDOF 6
ENDMDL
MODEL 7
REMARK VINA RESULT:      -6.6     20.703     23.075
REMARK  Name = 
REMARK  8 active torsions:
REMARK  status: ('A' for Active; 'I' for Inactive)
REMARK    1  A    between atoms: O_1  and  C_21
REMARK    2  A    between atoms: O_1  and  C_38
REMARK    3  A    between atoms: O_4  and  C_26
REMARK    4  A    between atoms: N_7  and  C_11
REMARK    5  A    between atoms: C_26  and  C_33
REMARK    6  A    between atoms: C_29  and  C_37
REMARK    7  A    between atoms: C_33  and  C_42
REMARK    8  A    between atoms: C_37  and  C_43
REMARK                            x       y       z     vdW  Elec       q    Type
REMARK                         _______ _______ _______ _____ _____    ______ ____
ROOT
ATOM      1  O   UNL     1      13.495  12.271 -27.522  0.00  0.00    +0.000 OA
ATOM      2  O   UNL     1      13.118  15.263 -24.579  0.00  0.00    +0.000 OA
ATOM      3  O   UNL     1      14.100  10.117 -27.730  0.00  0.00    +0.000 OA
ATOM      4  N   UNL     1      12.693  13.714 -22.940  0.00  0.00    +0.000 N 
ATOM      5  N   UNL     1      11.977  11.318 -20.368  0.00  0.00    +0.000 NA
ATOM      6  C   UNL     1      12.454  12.411 -22.553  0.00  0.00    +0.000 A 
ATOM      7  C   UNL     1      12.366  13.701 -20.645  0.00  0.00    +0.000 A 
ATOM      8  C   UNL     1      12.660  14.624 -21.792  0.00  0.00    +0.000 C 
ATOM      9  C   UNL     1      12.683  11.717 -24.849  0.00  0.00    +0.000 A 
ATOM     10  C   UNL     1      12.626  10.617 -25.879  0.00  0.00    +0.000 C 
ATOM     11  C   UNL     1      12.246  12.396 -21.109  0.00  0.00    +0.000 A 
ATOM     12  C   UNL     1      12.916  12.987 -25.234  0.00  0.00    +0.000 A 
ATOM     13  C   UNL     1      12.205  13.956 -19.291  0.00  0.00    +0.000 A 
ATOM     14  C   UNL     1      12.439  11.414 -23.443  0.00  0.00    +0.000 A 
ATOM     15  C   UNL     1      12.925  14.102 -24.233  0.00  0.00    +0.000 A 
ATOM     16  C   UNL     1      11.901  12.841 -18.456  0.00  0.00    +0.000 A 
ATOM     17  C   UNL     1      13.158  13.372 -26.652  0.00  0.00    +0.000 C 
ATOM     18  C   UNL     1      11.804  11.544 -19.057  0.00  0.00    +0.000 A 
ATOM     19  C   UNL     1      13.488  10.986 -27.107  0.00  0.00    +0.000 C 
ATOM     20  C   UNL     1      11.382  11.821 -16.304  0.00  0.00    +0.000 A 
ATOM     21  C   UNL     1      11.689  12.949 -17.064  0.00  0.00    +0.000 A 
ATOM     22  C   UNL     1      11.518  10.446 -18.256  0.00  0.00    +0.000 A 
ATOM     23  C   UNL     1      11.312  10.565 -16.881  0.00  0.00    +0.000 A 
ENDROOT
BRANCH  10  24
ATOM     24  O   UNL     1      13.155   9.416 -25.299  0.00  0.00    +0.000 OA
ATOM     25  H   UNL     1      13.017   9.495 -24.334  0.00  0.00    +0.000 HD
ENDBRANCH  10  24
BRANCH  10  26
ATOM     26  C   UNL     1      11.167  10.362 -26.316  0.00  0.00    +0.000 C 
ATOM     27  C   UNL     1      10.902   8.954 -26.843  0.00  0.00    +0.000 C 
ENDBRANCH  10  26
BRANCH  13  28
ATOM     28  C   UNL     1      12.320  15.370 -18.775  0.00  0.00    +0.000 C 
ATOM     29  C   UNL     1      10.992  16.110 -18.829  0.00  0.00    +0.000 C 
ENDBRANCH  13  28
BRANCH  20  30
ATOM     30  O   UNL     1      11.221  11.955 -14.925  0.00  0.00    +0.000 OA
BRANCH  30  38
ATOM     31  O   UNL     1      13.503  11.615 -14.714  0.00  0.00    +0.000 OA
ATOM     32  N   UNL     1      12.226  12.042 -12.846  0.00  0.00    +0.000 N 
ATOM     33  C   UNL     1      11.807  11.416 -10.018  0.00  0.00    +0.000 C 
ATOM     34  C   UNL     1      10.654  11.454 -11.053  0.00  0.00    +0.000 C 
ATOM     35  C   UNL     1      13.124  11.092 -10.768  0.00  0.00    +0.000 C 
ATOM     36  C   UNL     1      10.953  12.377 -12.231  0.00  0.00    +0.000 C 
ATOM     37  C   UNL     1      13.367  12.024 -11.950  0.00  0.00    +0.000 C 
ATOM     38  C   UNL     1      12.410  11.852 -14.207  0.00  0.00    +0.000 C 
BRANCH  33  39
ATOM     39  N   UNL     1      11.540  10.439  -8.915  0.00  0.00    +0.000 NA
ATOM     40  C   UNL     1      11.735  11.044  -7.580  0.00  0.00    +0.000 C 
ATOM     41  C   UNL     1      10.189   9.848  -9.007  0.00  0.00    +0.000 C 
ATOM     42  C   UNL     1      11.497  10.052  -6.438  0.00  0.00    +0.000 C 
ATOM     43  C   UNL     1       9.910   8.827  -7.901  0.00  0.00    +0.000 C 
ATOM     44  C   UNL     1      10.114   9.430  -6.522  0.00  0.00    +0.000 C 
ENDBRANCH  33  39
ENDBRANCH  30  38
ENDBRANCH  20  30
TORSDOF 6
ENDMDL
MODEL 8
REMARK VINA RESULT:      -6.5      4.125      7.457
REMARK  Name = 
REMARK  8 active torsions:
REMARK  status: ('A' for Active; 'I' for Inactive)
REMARK    1  A    between atoms: O_1  and  C_21
REMARK    2  A    between atoms: O_1  and  C_38
REMARK    3  A    between atoms: O_4  and  C_26
REMARK    4  A    between atoms: N_7  and  C_11
REMARK    5  A    between atoms: C_26  and  C_33
REMARK    6  A    between atoms: C_29  and  C_37
REMARK    7  A    between atoms: C_33  and  C_42
REMARK    8  A    between atoms: C_37  and  C_43
REMARK                            x       y       z     vdW  Elec       q    Type
REMARK                         _______ _______ _______ _____ _____    ______ ____
ROOT
ATOM      1  O   UNL     1      11.091  -2.450 -19.542  0.00  0.00    +0.000 OA
ATOM      2  O   UNL     1       8.146   0.325 -20.716  0.00  0.00    +0.000 OA
ATOM      3  O   UNL     1      11.333  -4.270 -18.247  0.00  0.00    +0.000 OA
ATOM      4  N   UNL     1       6.469  -1.222 -20.464  0.00  0.00    +0.000 N 
ATOM      5  N   UNL     1       3.835  -3.632 -20.125  0.00  0.00    +0.000 NA
ATOM      6  C   UNL     1       6.057  -2.514 -20.210  0.00  0.00    +0.000 A 
ATOM      7  C   UNL     1       4.156  -1.271 -20.601  0.00  0.00    +0.000 A 
ATOM      8  C   UNL     1       5.328  -0.341 -20.726  0.00  0.00    +0.000 C 
ATOM      9  C   UNL     1       8.360  -3.161 -19.920  0.00  0.00    +0.000 A 
ATOM     10  C   UNL     1       9.375  -4.247 -19.668  0.00  0.00    +0.000 C 
ATOM     11  C   UNL     1       4.601  -2.552 -20.297  0.00  0.00    +0.000 A 
ATOM     12  C   UNL     1       8.770  -1.901 -20.167  0.00  0.00    +0.000 A 
ATOM     13  C   UNL     1       2.794  -1.043 -20.744  0.00  0.00    +0.000 A 
ATOM     14  C   UNL     1       6.937  -3.484 -19.944  0.00  0.00    +0.000 A 
ATOM     15  C   UNL     1       7.779  -0.820 -20.472  0.00  0.00    +0.000 A 
ATOM     16  C   UNL     1       1.932  -2.166 -20.585  0.00  0.00    +0.000 A 
ATOM     17  C   UNL     1      10.204  -1.504 -20.175  0.00  0.00    +0.000 C 
ATOM     18  C   UNL     1       2.515  -3.437 -20.271  0.00  0.00    +0.000 A 
ATOM     19  C   UNL     1      10.669  -3.644 -19.075  0.00  0.00    +0.000 C 
ATOM     20  C   UNL     1      -0.260  -3.231 -20.565  0.00  0.00    +0.000 A 
ATOM     21  C   UNL     1       0.528  -2.093 -20.721  0.00  0.00    +0.000 A 
ATOM     22  C   UNL     1       1.688  -4.540 -20.103  0.00  0.00    +0.000 A 
ATOM     23  C   UNL     1       0.302  -4.454 -20.239  0.00  0.00    +0.000 A 
ENDROOT
BRANCH  10  24
ATOM     24  O   UNL     1       8.832  -5.174 -18.717  0.00  0.00    +0.000 OA
ATOM     25  H   UNL     1       8.478  -5.923 -19.237  0.00  0.00    +0.000 HD
ENDBRANCH  10  24
BRANCH  10  26
ATOM     26  C   UNL     1       9.696  -5.002 -20.976  0.00  0.00    +0.000 C 
ATOM     27  C   UNL     1      10.444  -6.317 -20.780  0.00  0.00    +0.000 C 
ENDBRANCH  10  26
BRANCH  13  28
ATOM     28  C   UNL     1       2.298   0.340 -21.087  0.00  0.00    +0.000 C 
ATOM     29  C   UNL     1       1.992   1.165 -19.846  0.00  0.00    +0.000 C 
ENDBRANCH  13  28
BRANCH  20  30
ATOM     30  O   UNL     1      -1.647  -3.117 -20.664  0.00  0.00    +0.000 OA
BRANCH  30  38
ATOM     31  O   UNL     1      -1.705  -2.146 -18.561  0.00  0.00    +0.000 OA
ATOM     32  N   UNL     1      -3.449  -1.818 -20.029  0.00  0.00    +0.000 N 
ATOM     33  C   UNL     1      -6.350  -1.549 -20.304  0.00  0.00    +0.000 C 
ATOM     34  C   UNL     1      -5.498  -2.464 -21.218  0.00  0.00    +0.000 C 
ATOM     35  C   UNL     1      -5.612  -1.390 -18.950  0.00  0.00    +0.000 C 
ATOM     36  C   UNL     1      -4.052  -1.991 -21.339  0.00  0.00    +0.000 C 
ATOM     37  C   UNL     1      -4.165  -0.940 -19.123  0.00  0.00    +0.000 C 
ATOM     38  C   UNL     1      -2.220  -2.342 -19.659  0.00  0.00    +0.000 C 
BRANCH  33  39
ATOM     39  N   UNL     1      -7.740  -2.073 -20.121  0.00  0.00    +0.000 NA
ATOM     40  C   UNL     1      -8.042  -2.363 -18.703  0.00  0.00    +0.000 C 
ATOM     41  C   UNL     1      -8.760  -1.159 -20.676  0.00  0.00    +0.000 C 
ATOM     42  C   UNL     1      -9.450  -2.930 -18.499  0.00  0.00    +0.000 C 
ATOM     43  C   UNL     1     -10.186  -1.694 -20.521  0.00  0.00    +0.000 C 
ATOM     44  C   UNL     1     -10.510  -2.004 -19.070  0.00  0.00    +0.000 C 
ENDBRANCH  33  39
ENDBRANCH  30  38
ENDBRANCH  20  30
TORSDOF 6
ENDMDL
MODEL 9
REMARK VINA RESULT:      -6.4     15.153     17.974
REMARK  Name = 
REMARK  8 active torsions:
REMARK  status: ('A' for Active; 'I' for Inactive)
REMARK    1  A    between atoms: O_1  and  C_21
REMARK    2  A    between atoms: O_1  and  C_38
REMARK    3  A    between atoms: O_4  and  C_26
REMARK    4  A    between atoms: N_7  and  C_11
REMARK    5  A    between atoms: C_26  and  C_33
REMARK    6  A    between atoms: C_29  and  C_37
REMARK    7  A    between atoms: C_33  and  C_42
REMARK    8  A    between atoms: C_37  and  C_43
REMARK                            x       y       z     vdW  Elec       q    Type
REMARK                         _______ _______ _______ _____ _____    ______ ____
ROOT
ATOM      1  O   UNL     1     -13.737 -13.794 -21.657  0.00  0.00    +0.000 OA
ATOM      2  O   UNL     1     -16.300 -13.632 -18.317  0.00  0.00    +0.000 OA
ATOM      3  O   UNL     1     -11.913 -12.778 -22.488  0.00  0.00    +0.000 OA
ATOM      4  N   UNL     1     -14.623 -12.841 -16.964  0.00  0.00    +0.000 N 
ATOM      5  N   UNL     1     -12.009 -11.652 -14.814  0.00  0.00    +0.000 NA
ATOM      6  C   UNL     1     -13.298 -12.515 -16.761  0.00  0.00    +0.000 A 
ATOM      7  C   UNL     1     -14.398 -12.098 -14.780  0.00  0.00    +0.000 A 
ATOM      8  C   UNL     1     -15.418 -12.610 -15.754  0.00  0.00    +0.000 C 
ATOM      9  C   UNL     1     -12.825 -13.148 -19.038  0.00  0.00    +0.000 A 
ATOM     10  C   UNL     1     -11.815 -13.352 -20.139  0.00  0.00    +0.000 C 
ATOM     11  C   UNL     1     -13.149 -12.048 -15.387  0.00  0.00    +0.000 A 
ATOM     12  C   UNL     1     -14.118 -13.469 -19.242  0.00  0.00    +0.000 A 
ATOM     13  C   UNL     1     -14.523 -11.704 -13.455  0.00  0.00    +0.000 A 
ATOM     14  C   UNL     1     -12.394 -12.649 -17.736  0.00  0.00    +0.000 A 
ATOM     15  C   UNL     1     -15.126 -13.324 -18.144  0.00  0.00    +0.000 A 
ATOM     16  C   UNL     1     -13.333 -11.287 -12.791  0.00  0.00    +0.000 A 
ATOM     17  C   UNL     1     -14.625 -13.998 -20.538  0.00  0.00    +0.000 C 
ATOM     18  C   UNL     1     -12.105 -11.280 -13.529  0.00  0.00    +0.000 A 
ATOM     19  C   UNL     1     -12.504 -13.263 -21.520  0.00  0.00    +0.000 C 
ATOM     20  C   UNL     1     -12.101 -10.494 -10.843  0.00  0.00    +0.000 A 
ATOM     21  C   UNL     1     -13.301 -10.880 -11.439  0.00  0.00    +0.000 A 
ATOM     22  C   UNL     1     -10.938 -10.867 -12.899  0.00  0.00    +0.000 A 
ATOM     23  C   UNL     1     -10.919 -10.465 -11.564  0.00  0.00    +0.000 A 
ENDROOT
BRANCH  10  24
ATOM     24  O   UNL     1     -10.829 -12.313 -20.058  0.00  0.00    +0.000 OA
ATOM     25  H   UNL     1     -10.210 -12.579 -19.349  0.00  0.00    +0.000 HD
ENDBRANCH  10  24
BRANCH  10  26
ATOM     26  C   UNL     1     -11.116 -14.719 -19.986  0.00  0.00    +0.000 C 
ATOM     27  C   UNL     1      -9.975 -14.737 -18.974  0.00  0.00    +0.000 C 
ENDBRANCH  10  26
BRANCH  13  28
ATOM     28  C   UNL     1     -15.871 -11.766 -12.778  0.00  0.00    +0.000 C 
ATOM     29  C   UNL     1     -16.657 -10.475 -12.947  0.00  0.00    +0.000 C 
ENDBRANCH  13  28
BRANCH  20  30
ATOM     30  O   UNL     1     -12.110 -10.056  -9.519  0.00  0.00    +0.000 OA
BRANCH  30  38
ATOM     31  O   UNL     1     -12.951 -12.131  -8.927  0.00  0.00    +0.000 OA
ATOM     32  N   UNL     1     -12.725 -10.484  -7.333  0.00  0.00    +0.000 N 
ATOM     33  C   UNL     1     -13.901  -9.257  -4.951  0.00  0.00    +0.000 C 
ATOM     34  C   UNL     1     -13.384  -8.432  -6.156  0.00  0.00    +0.000 C 
ATOM     35  C   UNL     1     -14.302 -10.665  -5.461  0.00  0.00    +0.000 C 
ATOM     36  C   UNL     1     -12.290  -9.156  -6.937  0.00  0.00    +0.000 C 
ATOM     37  C   UNL     1     -13.187 -11.338  -6.255  0.00  0.00    +0.000 C 
ATOM     38  C   UNL     1     -12.621 -10.989  -8.621  0.00  0.00    +0.000 C 
BRANCH  33  39
ATOM     39  N   UNL     1     -15.035  -8.576  -4.249  0.00  0.00    +0.000 NA
ATOM     40  C   UNL     1     -14.620  -7.293  -3.642  0.00  0.00    +0.000 C 
ATOM     41  C   UNL     1     -16.195  -8.360  -5.138  0.00  0.00    +0.000 C 
ATOM     42  C   UNL     1     -15.758  -6.596  -2.892  0.00  0.00    +0.000 C 
ATOM     43  C   UNL     1     -17.372  -7.688  -4.428  0.00  0.00    +0.000 C 
ATOM     44  C   UNL     1     -16.962  -6.372  -3.792  0.00  0.00    +0.000 C 
ENDBRANCH  33  39
ENDBRANCH  30  38
ENDBRANCH  20  30
TORSDOF 6
ENDMDL
