MODEL 1
REMARK VINA RESULT:      -7.1      0.000      0.000
REMARK  Name = 
REMARK  8 active torsions:
REMARK  status: ('A' for Active; 'I' for Inactive)
REMARK    1  A    between atoms: O_1  and  C_21
REMARK    2  A    between atoms: O_1  and  C_38
REMARK    3  A    between atoms: O_4  and  C_26
REMARK    4  A    between atoms: N_7  and  C_11
REMARK    5  A    between atoms: C_26  and  C_33
REMARK    6  A    between atoms: C_29  and  C_37
REMARK    7  A    between atoms: C_33  and  C_42
REMARK    8  A    between atoms: C_37  and  C_43
REMARK                            x       y       z     vdW  Elec       q    Type
REMARK                         _______ _______ _______ _____ _____    ______ ____
ROOT
ATOM      1  O   UNL     1       6.168 -16.397 -13.925  0.00  0.00    +0.000 OA
ATOM      2  O   UNL     1       8.496 -17.622 -10.634  0.00  0.00    +0.000 OA
ATOM      3  O   UNL     1       4.102 -16.650 -14.771  0.00  0.00    +0.000 OA
ATOM      4  N   UNL     1       6.645 -17.816  -9.290  0.00  0.00    +0.000 N 
ATOM      5  N   UNL     1       3.775 -18.080  -7.155  0.00  0.00    +0.000 NA
ATOM      6  C   UNL     1       5.291 -17.652  -9.082  0.00  0.00    +0.000 A 
ATOM      7  C   UNL     1       6.164 -18.526  -7.137  0.00  0.00    +0.000 A 
ATOM      8  C   UNL     1       7.302 -18.373  -8.104  0.00  0.00    +0.000 C 
ATOM      9  C   UNL     1       5.081 -16.789 -11.322  0.00  0.00    +0.000 A 
ATOM     10  C   UNL     1       4.214 -16.186 -12.399  0.00  0.00    +0.000 C 
ATOM     11  C   UNL     1       4.982 -18.096  -7.727  0.00  0.00    +0.000 A 
ATOM     12  C   UNL     1       6.403 -16.946 -11.532  0.00  0.00    +0.000 A 
ATOM     13  C   UNL     1       6.137 -18.998  -5.832  0.00  0.00    +0.000 A 
ATOM     14  C   UNL     1       4.497 -17.158 -10.037  0.00  0.00    +0.000 A 
ATOM     15  C   UNL     1       7.289 -17.493 -10.456  0.00  0.00    +0.000 A 
ATOM     16  C   UNL     1       4.876 -18.989  -5.169  0.00  0.00    +0.000 A 
ATOM     17  C   UNL     1       7.068 -16.577 -12.811  0.00  0.00    +0.000 C 
ATOM     18  C   UNL     1       3.729 -18.520  -5.888  0.00  0.00    +0.000 A 
ATOM     19  C   UNL     1       4.826 -16.454 -13.793  0.00  0.00    +0.000 C 
ATOM     20  C   UNL     1       3.439 -19.372  -3.238  0.00  0.00    +0.000 A 
ATOM     21  C   UNL     1       4.697 -19.418  -3.835  0.00  0.00    +0.000 A 
ATOM     22  C   UNL     1       2.490 -18.513  -5.259  0.00  0.00    +0.000 A 
ATOM     23  C   UNL     1       2.326 -18.941  -3.942  0.00  0.00    +0.000 A 
ENDROOT
BRANCH  10  24
ATOM     24  O   UNL     1       2.920 -16.803 -12.347  0.00  0.00    +0.000 OA
ATOM     25  H   UNL     1       2.268 -16.073 -12.377  0.00  0.00    +0.000 HD
ENDBRANCH  10  24
BRANCH  10  26
ATOM     26  C   UNL     1       4.054 -14.667 -12.177  0.00  0.00    +0.000 C 
ATOM     27  C   UNL     1       2.647 -14.230 -11.778  0.00  0.00    +0.000 C 
ENDBRANCH  10  26
BRANCH  13  28
ATOM     28  C   UNL     1       7.416 -19.456  -5.174  0.00  0.00    +0.000 C 
ATOM     29  C   UNL     1       7.691 -20.932  -5.420  0.00  0.00    +0.000 C 
ENDBRANCH  13  28
BRANCH  20  30
ATOM     30  O   UNL     1       3.287 -19.844  -1.934  0.00  0.00    +0.000 OA
BRANCH  30  38
ATOM     31  O   UNL     1       1.205 -19.450  -1.000  0.00  0.00    +0.000 OA
ATOM     32  N   UNL     1       2.927 -17.963  -0.641  0.00  0.00    +0.000 N 
ATOM     33  C   UNL     1       3.659 -15.144  -0.359  0.00  0.00    +0.000 C 
ATOM     34  C   UNL     1       4.441 -16.132  -1.260  0.00  0.00    +0.000 C 
ATOM     35  C   UNL     1       2.201 -15.655  -0.225  0.00  0.00    +0.000 C 
ATOM     36  C   UNL     1       4.320 -17.578  -0.790  0.00  0.00    +0.000 C 
ATOM     37  C   UNL     1       2.133 -17.111   0.223  0.00  0.00    +0.000 C 
ATOM     38  C   UNL     1       2.374 -19.117  -1.176  0.00  0.00    +0.000 C 
BRANCH  33  39
ATOM     39  N   UNL     1       3.711 -13.742  -0.882  0.00  0.00    +0.000 NA
ATOM     40  C   UNL     1       3.007 -12.792   0.005  0.00  0.00    +0.000 C 
ATOM     41  C   UNL     1       5.096 -13.283  -1.113  0.00  0.00    +0.000 C 
ATOM     42  C   UNL     1       3.023 -11.357  -0.528  0.00  0.00    +0.000 C 
ATOM     43  C   UNL     1       5.165 -11.861  -1.673  0.00  0.00    +0.000 C 
ATOM     44  C   UNL     1       4.440 -10.872  -0.777  0.00  0.00    +0.000 C 
ENDBRANCH  33  39
ENDBRANCH  30  38
ENDBRANCH  20  30
TORSDOF 6
ENDMDL
MODEL 2
REMARK VINA RESULT:      -6.8     20.576     22.920
REMARK  Name = 
REMARK  8 active torsions:
REMARK  status: ('A' for Active; 'I' for Inactive)
REMARK    1  A    between atoms: O_1  and  C_21
REMARK    2  A    between atoms: O_1  and  C_38
REMARK    3  A    between atoms: O_4  and  C_26
REMARK    4  A    between atoms: N_7  and  C_11
REMARK    5  A    between atoms: C_26  and  C_33
REMARK    6  A    between atoms: C_29  and  C_37
REMARK    7  A    between atoms: C_33  and  C_42
REMARK    8  A    between atoms: C_37  and  C_43
REMARK                            x       y       z     vdW  Elec       q    Type
REMARK                         _______ _______ _______ _____ _____    ______ ____
ROOT
ATOM      1  O   UNL     1      -8.253  -1.998   3.054  0.00  0.00    +0.000 OA
ATOM      2  O   UNL     1      -5.526  -0.943   0.020  0.00  0.00    +0.000 OA
ATOM      3  O   UNL     1      -8.291  -2.524   5.238  0.00  0.00    +0.000 OA
ATOM      4  N   UNL     1      -4.091   0.021   1.530  0.00  0.00    +0.000 N 
ATOM      5  N   UNL     1      -1.853   1.578   3.861  0.00  0.00    +0.000 NA
ATOM      6  C   UNL     1      -3.798   0.430   2.815  0.00  0.00    +0.000 A 
ATOM      7  C   UNL     1      -1.990   0.999   1.505  0.00  0.00    +0.000 A 
ATOM      8  C   UNL     1      -2.996   0.337   0.608  0.00  0.00    +0.000 C 
ATOM      9  C   UNL     1      -5.934  -0.418   3.540  0.00  0.00    +0.000 A 
ATOM     10  C   UNL     1      -6.943  -0.604   4.645  0.00  0.00    +0.000 C 
ATOM     11  C   UNL     1      -2.477   1.049   2.805  0.00  0.00    +0.000 A 
ATOM     12  C   UNL     1      -6.227  -0.820   2.287  0.00  0.00    +0.000 A 
ATOM     13  C   UNL     1      -0.739   1.533   1.229  0.00  0.00    +0.000 A 
ATOM     14  C   UNL     1      -4.662   0.239   3.817  0.00  0.00    +0.000 A 
ATOM     15  C   UNL     1      -5.259  -0.597   1.166  0.00  0.00    +0.000 A 
ATOM     16  C   UNL     1      -0.036   2.124   2.318  0.00  0.00    +0.000 A 
ATOM     17  C   UNL     1      -7.511  -1.482   1.929  0.00  0.00    +0.000 C 
ATOM     18  C   UNL     1      -0.647   2.111   3.614  0.00  0.00    +0.000 A 
ATOM     19  C   UNL     1      -7.866  -1.804   4.333  0.00  0.00    +0.000 C 
ATOM     20  C   UNL     1       1.866   3.298   3.290  0.00  0.00    +0.000 A 
ATOM     21  C   UNL     1       1.235   2.725   2.187  0.00  0.00    +0.000 A 
ATOM     22  C   UNL     1       0.029   2.675   4.689  0.00  0.00    +0.000 A 
ATOM     23  C   UNL     1       1.285   3.264   4.546  0.00  0.00    +0.000 A 
ENDROOT
BRANCH  10  24
ATOM     24  O   UNL     1      -6.243  -0.878   5.867  0.00  0.00    +0.000 OA
ATOM     25  H   UNL     1      -6.764  -1.563   6.332  0.00  0.00    +0.000 HD
ENDBRANCH  10  24
BRANCH  10  26
ATOM     26  C   UNL     1      -7.787   0.676   4.827  0.00  0.00    +0.000 C 
ATOM     27  C   UNL     1      -7.628   1.703   3.709  0.00  0.00    +0.000 C 
ENDBRANCH  10  26
BRANCH  13  28
ATOM     28  C   UNL     1      -0.203   1.498  -0.181  0.00  0.00    +0.000 C 
ATOM     29  C   UNL     1      -0.376   2.830  -0.895  0.00  0.00    +0.000 C 
ENDBRANCH  13  28
BRANCH  20  30
ATOM     30  O   UNL     1       3.140   3.845   3.136  0.00  0.00    +0.000 OA
BRANCH  30  38
ATOM     31  O   UNL     1       4.454   2.182   4.072  0.00  0.00    +0.000 OA
ATOM     32  N   UNL     1       4.821   2.853   1.899  0.00  0.00    +0.000 N 
ATOM     33  C   UNL     1       6.840   3.383  -0.151  0.00  0.00    +0.000 C 
ATOM     34  C   UNL     1       5.676   4.358   0.158  0.00  0.00    +0.000 C 
ATOM     35  C   UNL     1       7.131   2.552   1.124  0.00  0.00    +0.000 C 
ATOM     36  C   UNL     1       4.456   3.650   0.741  0.00  0.00    +0.000 C 
ATOM     37  C   UNL     1       5.879   1.884   1.683  0.00  0.00    +0.000 C 
ATOM     38  C   UNL     1       4.160   2.898   3.118  0.00  0.00    +0.000 C 
BRANCH  33  39
ATOM     39  N   UNL     1       8.061   4.101  -0.637  0.00  0.00    +0.000 NA
ATOM     40  C   UNL     1       7.720   5.274  -1.471  0.00  0.00    +0.000 C 
ATOM     41  C   UNL     1       8.945   4.515   0.472  0.00  0.00    +0.000 C 
ATOM     42  C   UNL     1       8.955   6.004  -2.004  0.00  0.00    +0.000 C 
ATOM     43  C   UNL     1      10.211   5.227  -0.010  0.00  0.00    +0.000 C 
ATOM     44  C   UNL     1       9.879   6.429  -0.875  0.00  0.00    +0.000 C 
ENDBRANCH  33  39
ENDBRANCH  30  38
ENDBRANCH  20  30
TORSDOF 6
ENDMDL
MODEL 3
REMARK VINA RESULT:      -6.4     20.490     24.312
REMARK  Name = 
REMARK  8 active torsions:
REMARK  status: ('A' for Active; 'I' for Inactive)
REMARK    1  A    between atoms: O_1  and  C_21
REMARK    2  A    between atoms: O_1  and  C_38
REMARK    3  A    between atoms: O_4  and  C_26
REMARK    4  A    between atoms: N_7  and  C_11
REMARK    5  A    between atoms: C_26  and  C_33
REMARK    6  A    between atoms: C_29  and  C_37
REMARK    7  A    between atoms: C_33  and  C_42
REMARK    8  A    between atoms: C_37  and  C_43
REMARK                            x       y       z     vdW  Elec       q    Type
REMARK                         _______ _______ _______ _____ _____    ______ ____
ROOT
ATOM      1  O   UNL     1     -11.880  -3.576 -24.077  0.00  0.00    +0.000 OA
ATOM      2  O   UNL     1      -7.859  -3.615 -25.333  0.00  0.00    +0.000 OA
ATOM      3  O   UNL     1     -13.112  -3.827 -22.215  0.00  0.00    +0.000 OA
ATOM      4  N   UNL     1      -7.123  -2.898 -23.280  0.00  0.00    +0.000 N 
ATOM      5  N   UNL     1      -5.951  -1.732 -20.097  0.00  0.00    +0.000 NA
ATOM      6  C   UNL     1      -7.384  -2.440 -22.005  0.00  0.00    +0.000 A 
ATOM      7  C   UNL     1      -5.092  -2.513 -22.232  0.00  0.00    +0.000 A 
ATOM      8  C   UNL     1      -5.682  -2.984 -23.530  0.00  0.00    +0.000 C 
ATOM      9  C   UNL     1      -9.745  -2.614 -22.457  0.00  0.00    +0.000 A 
ATOM     10  C   UNL     1     -11.167  -2.405 -22.000  0.00  0.00    +0.000 C 
ATOM     11  C   UNL     1      -6.109  -2.193 -21.340  0.00  0.00    +0.000 A 
ATOM     12  C   UNL     1      -9.497  -3.062 -23.704  0.00  0.00    +0.000 A 
ATOM     13  C   UNL     1      -3.771  -2.359 -21.836  0.00  0.00    +0.000 A 
ATOM     14  C   UNL     1      -8.637  -2.286 -21.566  0.00  0.00    +0.000 A 
ATOM     15  C   UNL     1      -8.091  -3.225 -24.193  0.00  0.00    +0.000 A 
ATOM     16  C   UNL     1      -3.546  -1.855 -20.522  0.00  0.00    +0.000 A 
ATOM     17  C   UNL     1     -10.577  -3.401 -24.671  0.00  0.00    +0.000 C 
ATOM     18  C   UNL     1      -4.681  -1.564 -19.698  0.00  0.00    +0.000 A 
ATOM     19  C   UNL     1     -12.120  -3.349 -22.768  0.00  0.00    +0.000 C 
ATOM     20  C   UNL     1      -2.105  -1.120 -18.700  0.00  0.00    +0.000 A 
ATOM     21  C   UNL     1      -2.259  -1.627 -19.989  0.00  0.00    +0.000 A 
ATOM     22  C   UNL     1      -4.479  -1.080 -18.412  0.00  0.00    +0.000 A 
ATOM     23  C   UNL     1      -3.202  -0.860 -17.895  0.00  0.00    +0.000 A 
ENDROOT
BRANCH  10  24
ATOM     24  O   UNL     1     -11.252  -2.715 -20.603  0.00  0.00    +0.000 OA
ATOM     25  H   UNL     1     -12.185  -2.568 -20.347  0.00  0.00    +0.000 HD
ENDBRANCH  10  24
BRANCH  10  26
ATOM     26  C   UNL     1     -11.593  -0.937 -22.215  0.00  0.00    +0.000 C 
ATOM     27  C   UNL     1     -11.424  -0.043 -20.989  0.00  0.00    +0.000 C 
ENDBRANCH  10  26
BRANCH  13  28
ATOM     28  C   UNL     1      -2.656  -2.690 -22.799  0.00  0.00    +0.000 C 
ATOM     29  C   UNL     1      -2.356  -1.538 -23.746  0.00  0.00    +0.000 C 
ENDBRANCH  13  28
BRANCH  20  30
ATOM     30  O   UNL     1      -0.819  -0.946 -18.186  0.00  0.00    +0.000 OA
BRANCH  30  38
ATOM     31  O   UNL     1      -0.360   0.971 -19.403  0.00  0.00    +0.000 OA
ATOM     32  N   UNL     1       1.242  -0.670 -19.193  0.00  0.00    +0.000 N 
ATOM     33  C   UNL     1       3.400  -2.119 -20.538  0.00  0.00    +0.000 C 
ATOM     34  C   UNL     1       2.289  -2.827 -19.722  0.00  0.00    +0.000 C 
ATOM     35  C   UNL     1       2.839  -0.770 -21.055  0.00  0.00    +0.000 C 
ATOM     36  C   UNL     1       1.697  -1.933 -18.637  0.00  0.00    +0.000 C 
ATOM     37  C   UNL     1       2.236   0.078 -19.939  0.00  0.00    +0.000 C 
ATOM     38  C   UNL     1      -0.010  -0.121 -18.962  0.00  0.00    +0.000 C 
BRANCH  33  39
ATOM     39  N   UNL     1       3.909  -2.975 -21.656  0.00  0.00    +0.000 NA
ATOM     40  C   UNL     1       3.959  -4.404 -21.282  0.00  0.00    +0.000 C 
ATOM     41  C   UNL     1       3.119  -2.806 -22.893  0.00  0.00    +0.000 C 
ATOM     42  C   UNL     1       4.507  -5.293 -22.401  0.00  0.00    +0.000 C 
ATOM     43  C   UNL     1       3.644  -3.655 -24.053  0.00  0.00    +0.000 C 
ATOM     44  C   UNL     1       3.710  -5.126 -23.683  0.00  0.00    +0.000 C 
ENDBRANCH  33  39
ENDBRANCH  30  38
ENDBRANCH  20  30
TORSDOF 6
ENDMDL
MODEL 4
REMARK VINA RESULT:      -6.4     34.678     37.593
REMARK  Name = 
REMARK  8 active torsions:
REMARK  status: ('A' for Active; 'I' for Inactive)
REMARK    1  A    between atoms: O_1  and  C_21
REMARK    2  A    between atoms: O_1  and  C_38
REMARK    3  A    between atoms: O_4  and  C_26
REMARK    4  A    between atoms: N_7  and  C_11
REMARK    5  A    between atoms: C_26  and  C_33
REMARK    6  A    between atoms: C_29  and  C_37
REMARK    7  A    between atoms: C_33  and  C_42
REMARK    8  A    between atoms: C_37  and  C_43
REMARK                            x       y       z     vdW  Elec       q    Type
REMARK                         _______ _______ _______ _____ _____    ______ ____
ROOT
ATOM      1  O   UNL     1     -11.373  15.457 -19.934  0.00  0.00    +0.000 OA
ATOM      2  O   UNL     1      -7.285  14.679 -19.280  0.00  0.00    +0.000 OA
ATOM      3  O   UNL     1     -13.235  15.995 -18.796  0.00  0.00    +0.000 OA
ATOM      4  N   UNL     1      -7.234  16.046 -17.437  0.00  0.00    +0.000 N 
ATOM      5  N   UNL     1      -7.113  18.215 -14.582  0.00  0.00    +0.000 NA
ATOM      6  C   UNL     1      -7.846  16.958 -16.602  0.00  0.00    +0.000 A 
ATOM      7  C   UNL     1      -5.710  16.646 -15.797  0.00  0.00    +0.000 A 
ATOM      8  C   UNL     1      -5.859  15.774 -17.009  0.00  0.00    +0.000 C 
ATOM      9  C   UNL     1      -9.845  16.796 -17.939  0.00  0.00    +0.000 A 
ATOM     10  C   UNL     1     -11.253  17.257 -18.219  0.00  0.00    +0.000 C 
ATOM     11  C   UNL     1      -6.891  17.341 -15.568  0.00  0.00    +0.000 A 
ATOM     12  C   UNL     1      -9.252  15.905 -18.759  0.00  0.00    +0.000 A 
ATOM     13  C   UNL     1      -4.633  16.842 -14.944  0.00  0.00    +0.000 A 
ATOM     14  C   UNL     1      -9.107  17.350 -16.808  0.00  0.00    +0.000 A 
ATOM     15  C   UNL     1      -7.836  15.475 -18.527  0.00  0.00    +0.000 A 
ATOM     16  C   UNL     1      -4.811  17.776 -13.883  0.00  0.00    +0.000 A 
ATOM     17  C   UNL     1      -9.938  15.311 -19.938  0.00  0.00    +0.000 C 
ATOM     18  C   UNL     1      -6.080  18.429 -13.753  0.00  0.00    +0.000 A 
ATOM     19  C   UNL     1     -12.030  16.166 -18.991  0.00  0.00    +0.000 C 
ATOM     20  C   UNL     1      -4.033  19.027 -11.942  0.00  0.00    +0.000 A 
ATOM     21  C   UNL     1      -3.800  18.094 -12.950  0.00  0.00    +0.000 A 
ATOM     22  C   UNL     1      -6.274  19.335 -12.719  0.00  0.00    +0.000 A 
ATOM     23  C   UNL     1      -5.267  19.640 -11.802  0.00  0.00    +0.000 A 
ENDROOT
BRANCH  10  24
ATOM     24  O   UNL     1     -11.919  17.488 -16.970  0.00  0.00    +0.000 OA
ATOM     25  H   UNL     1     -12.107  16.605 -16.593  0.00  0.00    +0.000 HD
ENDBRANCH  10  24
BRANCH  10  26
ATOM     26  C   UNL     1     -11.240  18.569 -19.031  0.00  0.00    +0.000 C 
ATOM     27  C   UNL     1     -12.129  19.673 -18.464  0.00  0.00    +0.000 C 
ENDBRANCH  10  26
BRANCH  13  28
ATOM     28  C   UNL     1      -3.339  16.104 -15.188  0.00  0.00    +0.000 C 
ATOM     29  C   UNL     1      -3.416  14.649 -14.750  0.00  0.00    +0.000 C 
ENDBRANCH  13  28
BRANCH  20  30
ATOM     30  O   UNL     1      -3.028  19.287 -11.010  0.00  0.00    +0.000 OA
BRANCH  30  38
ATOM     31  O   UNL     1      -2.260  20.958 -12.417  0.00  0.00    +0.000 OA
ATOM     32  N   UNL     1      -1.012  20.334 -10.585  0.00  0.00    +0.000 N 
ATOM     33  C   UNL     1       1.685  19.879  -9.546  0.00  0.00    +0.000 C 
ATOM     34  C   UNL     1       0.522  18.877  -9.339  0.00  0.00    +0.000 C 
ATOM     35  C   UNL     1       1.403  20.694 -10.834  0.00  0.00    +0.000 C 
ATOM     36  C   UNL     1      -0.847  19.550  -9.373  0.00  0.00    +0.000 C 
ATOM     37  C   UNL     1       0.015  21.327 -10.832  0.00  0.00    +0.000 C 
ATOM     38  C   UNL     1      -2.116  20.254 -11.422  0.00  0.00    +0.000 C 
BRANCH  33  39
ATOM     39  N   UNL     1       3.015  19.194  -9.602  0.00  0.00    +0.000 NA
ATOM     40  C   UNL     1       3.726  19.464 -10.869  0.00  0.00    +0.000 C 
ATOM     41  C   UNL     1       3.877  19.553  -8.456  0.00  0.00    +0.000 C 
ATOM     42  C   UNL     1       5.076  18.747 -10.958  0.00  0.00    +0.000 C 
ATOM     43  C   UNL     1       5.231  18.840  -8.484  0.00  0.00    +0.000 C 
ATOM     44  C   UNL     1       5.972  19.100  -9.784  0.00  0.00    +0.000 C 
ENDBRANCH  33  39
ENDBRANCH  30  38
ENDBRANCH  20  30
TORSDOF 6
ENDMDL
MODEL 5
REMARK VINA RESULT:      -6.2     28.240     32.858
REMARK  Name = 
REMARK  8 active torsions:
REMARK  status: ('A' for Active; 'I' for Inactive)
REMARK    1  A    between atoms: O_1  and  C_21
REMARK    2  A    between atoms: O_1  and  C_38
REMARK    3  A    between atoms: O_4  and  C_26
REMARK    4  A    between atoms: N_7  and  C_11
REMARK    5  A    between atoms: C_26  and  C_33
REMARK    6  A    between atoms: C_29  and  C_37
REMARK    7  A    between atoms: C_33  and  C_42
REMARK    8  A    between atoms: C_37  and  C_43
REMARK                            x       y       z     vdW  Elec       q    Type
REMARK                         _______ _______ _______ _____ _____    ______ ____
ROOT
ATOM      1  O   UNL     1      14.878  11.714 -15.311  0.00  0.00    +0.000 OA
ATOM      2  O   UNL     1      15.336  12.068 -19.485  0.00  0.00    +0.000 OA
ATOM      3  O   UNL     1      13.336  12.030 -13.709  0.00  0.00    +0.000 OA
ATOM      4  N   UNL     1      13.105  11.674 -19.847  0.00  0.00    +0.000 N 
ATOM      5  N   UNL     1       9.631  11.011 -20.446  0.00  0.00    +0.000 NA
ATOM      6  C   UNL     1      11.854  11.334 -19.374  0.00  0.00    +0.000 A 
ATOM      7  C   UNL     1      11.646  11.641 -21.648  0.00  0.00    +0.000 A 
ATOM      8  C   UNL     1      13.083  11.894 -21.296  0.00  0.00    +0.000 C 
ATOM      9  C   UNL     1      12.767  11.187 -17.149  0.00  0.00    +0.000 A 
ATOM     10  C   UNL     1      12.568  10.871 -15.688  0.00  0.00    +0.000 C 
ATOM     11  C   UNL     1      10.931  11.310 -20.503  0.00  0.00    +0.000 A 
ATOM     12  C   UNL     1      13.992  11.518 -17.604  0.00  0.00    +0.000 A 
ATOM     13  C   UNL     1      10.988  11.683 -22.869  0.00  0.00    +0.000 A 
ATOM     14  C   UNL     1      11.646  11.089 -18.076  0.00  0.00    +0.000 A 
ATOM     15  C   UNL     1      14.221  11.785 -19.060  0.00  0.00    +0.000 A 
ATOM     16  C   UNL     1       9.601  11.358 -22.866  0.00  0.00    +0.000 A 
ATOM     17  C   UNL     1      15.183  11.622 -16.719  0.00  0.00    +0.000 C 
ATOM     18  C   UNL     1       8.978  11.033 -21.618  0.00  0.00    +0.000 A 
ATOM     19  C   UNL     1      13.621  11.608 -14.831  0.00  0.00    +0.000 C 
ATOM     20  C   UNL     1       7.456  10.999 -23.965  0.00  0.00    +0.000 A 
ATOM     21  C   UNL     1       8.806  11.338 -24.033  0.00  0.00    +0.000 A 
ATOM     22  C   UNL     1       7.624  10.723 -21.596  0.00  0.00    +0.000 A 
ATOM     23  C   UNL     1       6.849  10.709 -22.755  0.00  0.00    +0.000 A 
ENDROOT
BRANCH  10  24
ATOM     24  O   UNL     1      11.265  11.324 -15.292  0.00  0.00    +0.000 OA
ATOM     25  H   UNL     1      10.920  11.849 -16.042  0.00  0.00    +0.000 HD
ENDBRANCH  10  24
BRANCH  10  26
ATOM     26  C   UNL     1      12.664   9.349 -15.447  0.00  0.00    +0.000 C 
ATOM     27  C   UNL     1      11.434   8.735 -14.784  0.00  0.00    +0.000 C 
ENDBRANCH  10  26
BRANCH  13  28
ATOM     28  C   UNL     1      11.755  12.029 -24.123  0.00  0.00    +0.000 C 
ATOM     29  C   UNL     1      12.386  10.803 -24.766  0.00  0.00    +0.000 C 
ENDBRANCH  13  28
BRANCH  20  30
ATOM     30  O   UNL     1       6.688  11.031 -25.130  0.00  0.00    +0.000 OA
BRANCH  30  38
ATOM     31  O   UNL     1       4.657   9.978 -24.765  0.00  0.00    +0.000 OA
ATOM     32  N   UNL     1       6.316   8.900 -25.943  0.00  0.00    +0.000 N 
ATOM     33  C   UNL     1       7.625   6.336 -26.466  0.00  0.00    +0.000 C 
ATOM     34  C   UNL     1       8.410   7.639 -26.174  0.00  0.00    +0.000 C 
ATOM     35  C   UNL     1       6.227   6.451 -25.805  0.00  0.00    +0.000 C 
ATOM     36  C   UNL     1       7.631   8.893 -26.561  0.00  0.00    +0.000 C 
ATOM     37  C   UNL     1       5.498   7.731 -26.202  0.00  0.00    +0.000 C 
ATOM     38  C   UNL     1       5.789   9.973 -25.240  0.00  0.00    +0.000 C 
BRANCH  33  39
ATOM     39  N   UNL     1       8.362   5.119 -26.000  0.00  0.00    +0.000 NA
ATOM     40  C   UNL     1       8.365   5.003 -24.526  0.00  0.00    +0.000 C 
ATOM     41  C   UNL     1       7.828   3.878 -26.600  0.00  0.00    +0.000 C 
ATOM     42  C   UNL     1       9.141   3.780 -24.028  0.00  0.00    +0.000 C 
ATOM     43  C   UNL     1       8.589   2.627 -26.154  0.00  0.00    +0.000 C 
ATOM     44  C   UNL     1       8.609   2.497 -24.641  0.00  0.00    +0.000 C 
ENDBRANCH  33  39
ENDBRANCH  30  38
ENDBRANCH  20  30
TORSDOF 6
ENDMDL
MODEL 6
REMARK VINA RESULT:      -6.2     20.914     25.085
REMARK  Name = 
REMARK  8 active torsions:
REMARK  status: ('A' for Active; 'I' for Inactive)
REMARK    1  A    between atoms: O_1  and  C_21
REMARK    2  A    between atoms: O_1  and  C_38
REMARK    3  A    between atoms: O_4  and  C_26
REMARK    4  A    between atoms: N_7  and  C_11
REMARK    5  A    between atoms: C_26  and  C_33
REMARK    6  A    between atoms: C_29  and  C_37
REMARK    7  A    between atoms: C_33  and  C_42
REMARK    8  A    between atoms: C_37  and  C_43
REMARK                            x       y       z     vdW  Elec       q    Type
REMARK                         _______ _______ _______ _____ _____    ______ ____
ROOT
ATOM      1  O   UNL     1      19.164   0.384 -27.022  0.00  0.00    +0.000 OA
ATOM      2  O   UNL     1      15.933   2.816 -25.839  0.00  0.00    +0.000 OA
ATOM      3  O   UNL     1      20.574  -1.149 -26.178  0.00  0.00    +0.000 OA
ATOM      4  N   UNL     1      15.278   1.309 -24.236  0.00  0.00    +0.000 N 
ATOM      5  N   UNL     1      14.201  -1.049 -21.757  0.00  0.00    +0.000 NA
ATOM      6  C   UNL     1      15.404   0.081 -23.621  0.00  0.00    +0.000 A 
ATOM      7  C   UNL     1      13.679   1.183 -22.563  0.00  0.00    +0.000 A 
ATOM      8  C   UNL     1      14.199   2.098 -23.633  0.00  0.00    +0.000 C 
ATOM      9  C   UNL     1      17.220  -0.447 -25.113  0.00  0.00    +0.000 A 
ATOM     10  C   UNL     1      18.242  -1.442 -25.605  0.00  0.00    +0.000 C 
ATOM     11  C   UNL     1      14.399  -0.006 -22.567  0.00  0.00    +0.000 A 
ATOM     12  C   UNL     1      17.102   0.751 -25.720  0.00  0.00    +0.000 A 
ATOM     13  C   UNL     1      12.651   1.349 -21.645  0.00  0.00    +0.000 A 
ATOM     14  C   UNL     1      16.329  -0.800 -24.014  0.00  0.00    +0.000 A 
ATOM     15  C   UNL     1      16.059   1.731 -25.280  0.00  0.00    +0.000 A 
ATOM     16  C   UNL     1      12.388   0.259 -20.766  0.00  0.00    +0.000 A 
ATOM     17  C   UNL     1      17.966   1.171 -26.856  0.00  0.00    +0.000 C 
ATOM     18  C   UNL     1      13.204  -0.915 -20.871  0.00  0.00    +0.000 A 
ATOM     19  C   UNL     1      19.427  -0.708 -26.273  0.00  0.00    +0.000 C 
ATOM     20  C   UNL     1      11.148  -0.831 -18.974  0.00  0.00    +0.000 A 
ATOM     21  C   UNL     1      11.363   0.274 -19.796  0.00  0.00    +0.000 A 
ATOM     22  C   UNL     1      12.967  -1.983 -20.015  0.00  0.00    +0.000 A 
ATOM     23  C   UNL     1      11.951  -1.956 -19.059  0.00  0.00    +0.000 A 
ENDROOT
BRANCH  10  24
ATOM     24  O   UNL     1      18.743  -2.181 -24.482  0.00  0.00    +0.000 OA
ATOM     25  H   UNL     1      18.342  -1.774 -23.687  0.00  0.00    +0.000 HD
ENDBRANCH  10  24
BRANCH  10  26
ATOM     26  C   UNL     1      17.600  -2.426 -26.606  0.00  0.00    +0.000 C 
ATOM     27  C   UNL     1      17.813  -3.900 -26.270  0.00  0.00    +0.000 C 
ENDBRANCH  10  26
BRANCH  13  28
ATOM     28  C   UNL     1      11.852   2.630 -21.638  0.00  0.00    +0.000 C 
ATOM     29  C   UNL     1      10.715   2.602 -22.648  0.00  0.00    +0.000 C 
ENDBRANCH  13  28
BRANCH  20  30
ATOM     30  O   UNL     1      10.155  -0.769 -17.996  0.00  0.00    +0.000 OA
BRANCH  30  38
ATOM     31  O   UNL     1       9.793   1.390 -17.239  0.00  0.00    +0.000 OA
ATOM     32  N   UNL     1       8.394   0.478 -18.825  0.00  0.00    +0.000 N 
ATOM     33  C   UNL     1       5.635   0.282 -19.780  0.00  0.00    +0.000 C 
ATOM     34  C   UNL     1       6.555  -0.952 -19.601  0.00  0.00    +0.000 C 
ATOM     35  C   UNL     1       6.117   1.393 -18.812  0.00  0.00    +0.000 C 
ATOM     36  C   UNL     1       8.036  -0.604 -19.726  0.00  0.00    +0.000 C 
ATOM     37  C   UNL     1       7.606   1.688 -18.958  0.00  0.00    +0.000 C 
ATOM     38  C   UNL     1       9.478   0.447 -17.959  0.00  0.00    +0.000 C 
BRANCH  33  39
ATOM     39  N   UNL     1       4.193  -0.055 -19.565  0.00  0.00    +0.000 NA
ATOM     40  C   UNL     1       3.829  -1.352 -20.177  0.00  0.00    +0.000 C 
ATOM     41  C   UNL     1       3.825  -0.055 -18.134  0.00  0.00    +0.000 C 
ATOM     42  C   UNL     1       2.350  -1.701 -19.995  0.00  0.00    +0.000 C 
ATOM     43  C   UNL     1       2.346  -0.372 -17.900  0.00  0.00    +0.000 C 
ATOM     44  C   UNL     1       1.954  -1.697 -18.528  0.00  0.00    +0.000 C 
ENDBRANCH  33  39
ENDBRANCH  30  38
ENDBRANCH  20  30
TORSDOF 6
ENDMDL
MODEL 7
REMARK VINA RESULT:      -6.2     25.171     30.467
REMARK  Name = 
REMARK  8 active torsions:
REMARK  status: ('A' for Active; 'I' for Inactive)
REMARK    1  A    between atoms: O_1  and  C_21
REMARK    2  A    between atoms: O_1  and  C_38
REMARK    3  A    between atoms: O_4  and  C_26
REMARK    4  A    between atoms: N_7  and  C_11
REMARK    5  A    between atoms: C_26  and  C_33
REMARK    6  A    between atoms: C_29  and  C_37
REMARK    7  A    between atoms: C_33  and  C_42
REMARK    8  A    between atoms: C_37  and  C_43
REMARK                            x       y       z     vdW  Elec       q    Type
REMARK                         _______ _______ _______ _____ _____    ______ ____
ROOT
ATOM      1  O   UNL     1      -6.186  -3.945 -21.635  0.00  0.00    +0.000 OA
ATOM      2  O   UNL     1      -9.576  -3.814 -24.133  0.00  0.00    +0.000 OA
ATOM      3  O   UNL     1      -4.866  -2.576 -20.439  0.00  0.00    +0.000 OA
ATOM      4  N   UNL     1     -10.399  -1.960 -23.060  0.00  0.00    +0.000 N 
ATOM      5  N   UNL     1     -11.733   0.908 -21.368  0.00  0.00    +0.000 NA
ATOM      6  C   UNL     1     -10.329  -1.035 -22.038  0.00  0.00    +0.000 A 
ATOM      7  C   UNL     1     -12.189  -0.505 -23.292  0.00  0.00    +0.000 A 
ATOM      8  C   UNL     1     -11.556  -1.710 -23.924  0.00  0.00    +0.000 C 
ATOM      9  C   UNL     1      -8.335  -2.121 -21.231  0.00  0.00    +0.000 A 
ATOM     10  C   UNL     1      -7.246  -2.216 -20.192  0.00  0.00    +0.000 C 
ATOM     11  C   UNL     1     -11.454  -0.117 -22.177  0.00  0.00    +0.000 A 
ATOM     12  C   UNL     1      -8.398  -3.028 -22.226  0.00  0.00    +0.000 A 
ATOM     13  C   UNL     1     -13.324   0.214 -23.639  0.00  0.00    +0.000 A 
ATOM     14  C   UNL     1      -9.349  -1.077 -21.130  0.00  0.00    +0.000 A 
ATOM     15  C   UNL     1      -9.503  -2.982 -23.236  0.00  0.00    +0.000 A 
ATOM     16  C   UNL     1     -13.675   1.310 -22.800  0.00  0.00    +0.000 A 
ATOM     17  C   UNL     1      -7.408  -4.129 -22.380  0.00  0.00    +0.000 C 
ATOM     18  C   UNL     1     -12.834   1.609 -21.678  0.00  0.00    +0.000 A 
ATOM     19  C   UNL     1      -6.000  -2.913 -20.785  0.00  0.00    +0.000 C 
ATOM     20  C   UNL     1     -15.108   3.171 -22.149  0.00  0.00    +0.000 A 
ATOM     21  C   UNL     1     -14.812   2.120 -23.014  0.00  0.00    +0.000 A 
ATOM     22  C   UNL     1     -13.157   2.681 -20.855  0.00  0.00    +0.000 A 
ATOM     23  C   UNL     1     -14.282   3.474 -21.079  0.00  0.00    +0.000 A 
ENDROOT
BRANCH  10  24
ATOM     24  O   UNL     1      -6.874  -0.890 -19.791  0.00  0.00    +0.000 OA
ATOM     25  H   UNL     1      -6.935  -0.874 -18.815  0.00  0.00    +0.000 HD
ENDBRANCH  10  24
BRANCH  10  26
ATOM     26  C   UNL     1      -7.744  -2.993 -18.955  0.00  0.00    +0.000 C 
ATOM     27  C   UNL     1      -8.827  -2.278 -18.152  0.00  0.00    +0.000 C 
ENDBRANCH  10  26
BRANCH  13  28
ATOM     28  C   UNL     1     -14.138  -0.204 -24.839  0.00  0.00    +0.000 C 
ATOM     29  C   UNL     1     -15.169  -1.267 -24.491  0.00  0.00    +0.000 C 
ENDBRANCH  13  28
BRANCH  20  30
ATOM     30  O   UNL     1     -16.214   3.978 -22.413  0.00  0.00    +0.000 OA
BRANCH  30  38
ATOM     31  O   UNL     1     -17.161   4.378 -20.338  0.00  0.00    +0.000 OA
ATOM     32  N   UNL     1     -18.312   3.150 -21.910  0.00  0.00    +0.000 N 
ATOM     33  C   UNL     1     -20.097   0.875 -22.357  0.00  0.00    +0.000 C 
ATOM     34  C   UNL     1     -18.823   1.126 -23.203  0.00  0.00    +0.000 C 
ATOM     35  C   UNL     1     -19.895   1.529 -20.967  0.00  0.00    +0.000 C 
ATOM     36  C   UNL     1     -18.430   2.600 -23.249  0.00  0.00    +0.000 C 
ATOM     37  C   UNL     1     -19.480   2.993 -21.065  0.00  0.00    +0.000 C 
ATOM     38  C   UNL     1     -17.223   3.881 -21.459  0.00  0.00    +0.000 C 
BRANCH  33  39
ATOM     39  N   UNL     1     -20.420  -0.582 -22.245  0.00  0.00    +0.000 NA
ATOM     40  C   UNL     1     -21.329  -0.864 -21.114  0.00  0.00    +0.000 C 
ATOM     41  C   UNL     1     -20.989  -1.127 -23.496  0.00  0.00    +0.000 C 
ATOM     42  C   UNL     1     -21.646  -2.354 -20.964  0.00  0.00    +0.000 C 
ATOM     43  C   UNL     1     -21.300  -2.623 -23.406  0.00  0.00    +0.000 C 
ATOM     44  C   UNL     1     -22.227  -2.931 -22.243  0.00  0.00    +0.000 C 
ENDBRANCH  33  39
ENDBRANCH  30  38
ENDBRANCH  20  30
TORSDOF 6
ENDMDL
MODEL 8
REMARK VINA RESULT:      -6.2     13.678     18.698
REMARK  Name = 
REMARK  8 active torsions:
REMARK  status: ('A' for Active; 'I' for Inactive)
REMARK    1  A    between atoms: O_1  and  C_21
REMARK    2  A    between atoms: O_1  and  C_38
REMARK    3  A    between atoms: O_4  and  C_26
REMARK    4  A    between atoms: N_7  and  C_11
REMARK    5  A    between atoms: C_26  and  C_33
REMARK    6  A    between atoms: C_29  and  C_37
REMARK    7  A    between atoms: C_33  and  C_42
REMARK    8  A    between atoms: C_37  and  C_43
REMARK                            x       y       z     vdW  Elec       q    Type
REMARK                         _______ _______ _______ _____ _____    ______ ____
ROOT
ATOM      1  O   UNL     1      13.537   2.479   3.154  0.00  0.00    +0.000 OA
ATOM      2  O   UNL     1      16.007  -0.802   2.213  0.00  0.00    +0.000 OA
ATOM      3  O   UNL     1      11.676   3.506   2.426  0.00  0.00    +0.000 OA
ATOM      4  N   UNL     1      14.256  -1.964   1.291  0.00  0.00    +0.000 N 
ATOM      5  N   UNL     1      11.527  -3.822  -0.111  0.00  0.00    +0.000 NA
ATOM      6  C   UNL     1      12.909  -2.086   1.016  0.00  0.00    +0.000 A 
ATOM      7  C   UNL     1      13.936  -3.967   0.170  0.00  0.00    +0.000 A 
ATOM      8  C   UNL     1      15.007  -3.117   0.790  0.00  0.00    +0.000 C 
ATOM      9  C   UNL     1      12.527   0.037   2.090  0.00  0.00    +0.000 A 
ATOM     10  C   UNL     1      11.557   1.093   2.558  0.00  0.00    +0.000 C 
ATOM     11  C   UNL     1      12.701  -3.346   0.312  0.00  0.00    +0.000 A 
ATOM     12  C   UNL     1      13.841   0.163   2.362  0.00  0.00    +0.000 A 
ATOM     13  C   UNL     1      14.007  -5.197  -0.470  0.00  0.00    +0.000 A 
ATOM     14  C   UNL     1      12.037  -1.142   1.386  0.00  0.00    +0.000 A 
ATOM     15  C   UNL     1      14.813  -0.901   1.953  0.00  0.00    +0.000 A 
ATOM     16  C   UNL     1      12.779  -5.757  -0.928  0.00  0.00    +0.000 A 
ATOM     17  C   UNL     1      14.409   1.331   3.090  0.00  0.00    +0.000 C 
ATOM     18  C   UNL     1      11.570  -5.016  -0.721  0.00  0.00    +0.000 A 
ATOM     19  C   UNL     1      12.271   2.459   2.684  0.00  0.00    +0.000 C 
ATOM     20  C   UNL     1      11.458  -7.507  -1.991  0.00  0.00    +0.000 A 
ATOM     21  C   UNL     1      12.691  -7.008  -1.577  0.00  0.00    +0.000 A 
ATOM     22  C   UNL     1      10.366  -5.543  -1.170  0.00  0.00    +0.000 A 
ATOM     23  C   UNL     1      10.293  -6.780  -1.812  0.00  0.00    +0.000 A 
ENDROOT
BRANCH  10  24
ATOM     24  O   UNL     1      10.510   1.219   1.586  0.00  0.00    +0.000 OA
ATOM     25  H   UNL     1       9.944   0.428   1.690  0.00  0.00    +0.000 HD
ENDBRANCH  10  24
BRANCH  10  26
ATOM     26  C   UNL     1      10.937   0.695   3.914  0.00  0.00    +0.000 C 
ATOM     27  C   UNL     1       9.575   0.015   3.812  0.00  0.00    +0.000 C 
ENDBRANCH  10  26
BRANCH  13  28
ATOM     28  C   UNL     1      15.340  -5.888  -0.619  0.00  0.00    +0.000 C 
ATOM     29  C   UNL     1      15.677  -6.751   0.587  0.00  0.00    +0.000 C 
ENDBRANCH  13  28
BRANCH  20  30
ATOM     30  O   UNL     1      11.410  -8.726  -2.668  0.00  0.00    +0.000 OA
BRANCH  30  38
ATOM     31  O   UNL     1      13.536  -9.543  -3.091  0.00  0.00    +0.000 OA
ATOM     32  N   UNL     1      12.359  -8.476  -4.759  0.00  0.00    +0.000 N 
ATOM     33  C   UNL     1      12.530  -6.660  -7.048  0.00  0.00    +0.000 C 
ATOM     34  C   UNL     1      11.462  -6.516  -5.935  0.00  0.00    +0.000 C 
ATOM     35  C   UNL     1      13.765  -7.380  -6.447  0.00  0.00    +0.000 C 
ATOM     36  C   UNL     1      11.147  -7.841  -5.247  0.00  0.00    +0.000 C 
ATOM     37  C   UNL     1      13.397  -8.686  -5.751  0.00  0.00    +0.000 C 
ATOM     38  C   UNL     1      12.520  -8.967  -3.472  0.00  0.00    +0.000 C 
BRANCH  33  39
ATOM     39  N   UNL     1      12.896  -5.340  -7.652  0.00  0.00    +0.000 NA
ATOM     40  C   UNL     1      13.791  -4.557  -6.774  0.00  0.00    +0.000 C 
ATOM     41  C   UNL     1      13.506  -5.487  -8.989  0.00  0.00    +0.000 C 
ATOM     42  C   UNL     1      14.152  -3.190  -7.360  0.00  0.00    +0.000 C 
ATOM     43  C   UNL     1      13.861  -4.144  -9.632  0.00  0.00    +0.000 C 
ATOM     44  C   UNL     1      14.775  -3.323  -8.739  0.00  0.00    +0.000 C 
ENDBRANCH  33  39
ENDBRANCH  30  38
ENDBRANCH  20  30
TORSDOF 6
ENDMDL
MODEL 9
REMARK VINA RESULT:      -6.0     25.637     30.662
REMARK  Name = 
REMARK  8 active torsions:
REMARK  status: ('A' for Active; 'I' for Inactive)
REMARK    1  A    between atoms: O_1  and  C_21
REMARK    2  A    between atoms: O_1  and  C_38
REMARK    3  A    between atoms: O_4  and  C_26
REMARK    4  A    between atoms: N_7  and  C_11
REMARK    5  A    between atoms: C_26  and  C_33
REMARK    6  A    between atoms: C_29  and  C_37
REMARK    7  A    between atoms: C_33  and  C_42
REMARK    8  A    between atoms: C_37  and  C_43
REMARK                            x       y       z     vdW  Elec       q    Type
REMARK                         _______ _______ _______ _____ _____    ______ ____
ROOT
ATOM      1  O   UNL     1      -5.623  -3.754 -21.638  0.00  0.00    +0.000 OA
ATOM      2  O   UNL     1      -9.226  -3.978 -23.810  0.00  0.00    +0.000 OA
ATOM      3  O   UNL     1      -4.222  -2.229 -20.766  0.00  0.00    +0.000 OA
ATOM      4  N   UNL     1      -9.977  -1.996 -22.930  0.00  0.00    +0.000 N 
ATOM      5  N   UNL     1     -11.197   1.074 -21.533  0.00  0.00    +0.000 NA
ATOM      6  C   UNL     1      -9.830  -0.939 -22.055  0.00  0.00    +0.000 A 
ATOM      7  C   UNL     1     -11.802  -0.592 -23.195  0.00  0.00    +0.000 A 
ATOM      8  C   UNL     1     -11.210  -1.871 -23.712  0.00  0.00    +0.000 C 
ATOM      9  C   UNL     1      -7.755  -1.898 -21.292  0.00  0.00    +0.000 A 
ATOM     10  C   UNL     1      -6.575  -1.846 -20.355  0.00  0.00    +0.000 C 
ATOM     11  C   UNL     1     -10.977  -0.053 -22.216  0.00  0.00    +0.000 A 
ATOM     12  C   UNL     1      -7.892  -2.933 -22.144  0.00  0.00    +0.000 A 
ATOM     13  C   UNL     1     -12.975   0.069 -23.532  0.00  0.00    +0.000 A 
ATOM     14  C   UNL     1      -8.771  -0.853 -21.244  0.00  0.00    +0.000 A 
ATOM     15  C   UNL     1      -9.085  -3.030 -23.046  0.00  0.00    +0.000 A 
ATOM     16  C   UNL     1     -13.266   1.269 -22.822  0.00  0.00    +0.000 A 
ATOM     17  C   UNL     1      -6.904  -4.042 -22.236  0.00  0.00    +0.000 C 
ATOM     18  C   UNL     1     -12.333   1.722 -21.834  0.00  0.00    +0.000 A 
ATOM     19  C   UNL     1      -5.377  -2.614 -20.958  0.00  0.00    +0.000 C 
ATOM     20  C   UNL     1     -14.663   3.197 -22.304  0.00  0.00    +0.000 A 
ATOM     21  C   UNL     1     -14.430   2.038 -23.041  0.00  0.00    +0.000 A 
ATOM     22  C   UNL     1     -12.596   2.896 -21.139  0.00  0.00    +0.000 A 
ATOM     23  C   UNL     1     -13.750   3.647 -21.366  0.00  0.00    +0.000 A 
ENDROOT
BRANCH  10  24
ATOM     24  O   UNL     1      -6.189  -0.476 -20.174  0.00  0.00    +0.000 OA
ATOM     25  H   UNL     1      -6.923   0.063 -20.533  0.00  0.00    +0.000 HD
ENDBRANCH  10  24
BRANCH  10  26
ATOM     26  C   UNL     1      -6.948  -2.447 -18.982  0.00  0.00    +0.000 C 
ATOM     27  C   UNL     1      -5.943  -2.157 -17.871  0.00  0.00    +0.000 C 
ENDBRANCH  10  26
BRANCH  13  28
ATOM     28  C   UNL     1     -13.888  -0.513 -24.585  0.00  0.00    +0.000 C 
ATOM     29  C   UNL     1     -14.709  -1.677 -24.052  0.00  0.00    +0.000 C 
ENDBRANCH  13  28
BRANCH  20  30
ATOM     30  O   UNL     1     -15.802   3.958 -22.574  0.00  0.00    +0.000 OA
BRANCH  30  38
ATOM     31  O   UNL     1     -15.097   4.979 -24.530  0.00  0.00    +0.000 OA
ATOM     32  N   UNL     1     -15.902   6.256 -22.792  0.00  0.00    +0.000 N 
ATOM     33  C   UNL     1     -15.615   8.760 -21.305  0.00  0.00    +0.000 C 
ATOM     34  C   UNL     1     -15.757   7.381 -20.614  0.00  0.00    +0.000 C 
ATOM     35  C   UNL     1     -15.004   8.539 -22.712  0.00  0.00    +0.000 C 
ATOM     36  C   UNL     1     -16.505   6.367 -21.475  0.00  0.00    +0.000 C 
ATOM     37  C   UNL     1     -15.771   7.500 -23.525  0.00  0.00    +0.000 C 
ATOM     38  C   UNL     1     -15.563   5.055 -23.397  0.00  0.00    +0.000 C 
BRANCH  33  39
ATOM     39  N   UNL     1     -14.803   9.717 -20.490  0.00  0.00    +0.000 NA
ATOM     40  C   UNL     1     -13.470   9.959 -21.083  0.00  0.00    +0.000 C 
ATOM     41  C   UNL     1     -15.499  11.003 -20.278  0.00  0.00    +0.000 C 
ATOM     42  C   UNL     1     -12.611  10.911 -20.247  0.00  0.00    +0.000 C 
ATOM     43  C   UNL     1     -14.692  11.983 -19.423  0.00  0.00    +0.000 C 
ATOM     44  C   UNL     1     -13.317  12.236 -20.014  0.00  0.00    +0.000 C 
ENDBRANCH  33  39
ENDBRANCH  30  38
ENDBRANCH  20  30
TORSDOF 6
ENDMDL
