MODEL 1
REMARK VINA RESULT:      -5.3      0.000      0.000
REMARK  Name = 
REMARK  4 active torsions:
REMARK  status: ('A' for Active; 'I' for Inactive)
REMARK    1  A    between atoms: C_1  and  C_6
REMARK    2  A    between atoms: C_1  and  C_7
REMARK    3  A    between atoms: C_9  and  C_14
REMARK    4  A    between atoms: C_11  and  C_15
REMARK                            x       y       z     vdW  Elec       q    Type
REMARK                         _______ _______ _______ _____ _____    ______ ____
ROOT
ATOM      1  C   UNL     1      12.315   1.097 -20.458  0.00  0.00    +0.000 C 
ATOM      2  C   UNL     1      11.142   0.363 -19.815  0.00  0.00    +0.000 C 
ATOM      3  C   UNL     1      10.894   1.335 -20.941  0.00  0.00    +0.000 C 
ATOM      4  C   UNL     1      10.769   0.644 -18.431  0.00  0.00    +0.000 C 
ATOM      5  C   UNL     1      10.119   2.596 -20.720  0.00  0.00    +0.000 C 
ATOM      6  C   UNL     1      13.053   2.187 -19.717  0.00  0.00    +0.000 C 
ATOM      7  C   UNL     1      13.218   0.289 -21.359  0.00  0.00    +0.000 C 
ATOM      8  C   UNL     1       9.776   1.399 -17.920  0.00  0.00    +0.000 C 
ATOM      9  C   UNL     1      11.594   0.012 -17.328  0.00  0.00    +0.000 C 
ATOM     10  C   UNL     1       8.739   2.277 -20.146  0.00  0.00    +0.000 C 
ATOM     11  C   UNL     1       8.709   2.220 -18.606  0.00  0.00    +0.000 C 
ATOM     12  C   UNL     1       9.833   1.406 -16.414  0.00  0.00    +0.000 C 
ATOM     13  C   UNL     1      11.228   0.870 -16.117  0.00  0.00    +0.000 C 
ATOM     14  C   UNL     1      11.246  -1.460 -17.117  0.00  0.00    +0.000 C 
ATOM     15  C   UNL     1       7.309   1.769 -18.165  0.00  0.00    +0.000 C 
ENDROOT
TORSDOF 0
ENDMDL
MODEL 2
REMARK VINA RESULT:      -5.3      1.192      3.799
REMARK  Name = 
REMARK  4 active torsions:
REMARK  status: ('A' for Active; 'I' for Inactive)
REMARK    1  A    between atoms: C_1  and  C_6
REMARK    2  A    between atoms: C_1  and  C_7
REMARK    3  A    between atoms: C_9  and  C_14
REMARK    4  A    between atoms: C_11  and  C_15
REMARK                            x       y       z     vdW  Elec       q    Type
REMARK                         _______ _______ _______ _____ _____    ______ ____
ROOT
ATOM      1  C   UNL     1      10.943   0.477 -17.180  0.00  0.00    +0.000 C 
ATOM      2  C   UNL     1      10.351   0.266 -18.570  0.00  0.00    +0.000 C 
ATOM      3  C   UNL     1      11.800   0.655 -18.422  0.00  0.00    +0.000 C 
ATOM      4  C   UNL     1       9.334   1.183 -19.082  0.00  0.00    +0.000 C 
ATOM      5  C   UNL     1      12.305   1.970 -18.926  0.00  0.00    +0.000 C 
ATOM      6  C   UNL     1      10.565   1.677 -16.344  0.00  0.00    +0.000 C 
ATOM      7  C   UNL     1      11.193  -0.758 -16.348  0.00  0.00    +0.000 C 
ATOM      8  C   UNL     1       9.427   2.208 -19.951  0.00  0.00    +0.000 C 
ATOM      9  C   UNL     1       7.909   1.010 -18.595  0.00  0.00    +0.000 C 
ATOM     10  C   UNL     1      11.993   2.124 -20.414  0.00  0.00    +0.000 C 
ATOM     11  C   UNL     1      10.619   2.766 -20.694  0.00  0.00    +0.000 C 
ATOM     12  C   UNL     1       8.090   2.881 -20.127  0.00  0.00    +0.000 C 
ATOM     13  C   UNL     1       7.281   2.358 -18.947  0.00  0.00    +0.000 C 
ATOM     14  C   UNL     1       7.200  -0.153 -19.286  0.00  0.00    +0.000 C 
ATOM     15  C   UNL     1      10.374   2.746 -22.209  0.00  0.00    +0.000 C 
ENDROOT
TORSDOF 0
ENDMDL
MODEL 3
REMARK VINA RESULT:      -5.2     17.666     19.351
REMARK  Name = 
REMARK  4 active torsions:
REMARK  status: ('A' for Active; 'I' for Inactive)
REMARK    1  A    between atoms: C_1  and  C_6
REMARK    2  A    between atoms: C_1  and  C_7
REMARK    3  A    between atoms: C_9  and  C_14
REMARK    4  A    between atoms: C_11  and  C_15
REMARK                            x       y       z     vdW  Elec       q    Type
REMARK                         _______ _______ _______ _____ _____    ______ ____
ROOT
ATOM      1  C   UNL     1       5.254 -16.393 -10.942  0.00  0.00    +0.000 C 
ATOM      2  C   UNL     1       5.593 -15.529 -12.153  0.00  0.00    +0.000 C 
ATOM      3  C   UNL     1       4.317 -15.283 -11.389  0.00  0.00    +0.000 C 
ATOM      4  C   UNL     1       5.612 -16.115 -13.491  0.00  0.00    +0.000 C 
ATOM      5  C   UNL     1       2.979 -15.502 -12.022  0.00  0.00    +0.000 C 
ATOM      6  C   UNL     1       4.844 -17.838 -11.105  0.00  0.00    +0.000 C 
ATOM      7  C   UNL     1       6.051 -16.150  -9.683  0.00  0.00    +0.000 C 
ATOM      8  C   UNL     1       4.706 -16.071 -14.488  0.00  0.00    +0.000 C 
ATOM      9  C   UNL     1       6.828 -16.925 -13.897  0.00  0.00    +0.000 C 
ATOM     10  C   UNL     1       2.854 -14.671 -13.299  0.00  0.00    +0.000 C 
ATOM     11  C   UNL     1       3.353 -15.401 -14.561  0.00  0.00    +0.000 C 
ATOM     12  C   UNL     1       5.175 -16.877 -15.671  0.00  0.00    +0.000 C 
ATOM     13  C   UNL     1       6.302 -17.723 -15.090  0.00  0.00    +0.000 C 
ATOM     14  C   UNL     1       8.012 -16.038 -14.274  0.00  0.00    +0.000 C 
ATOM     15  C   UNL     1       3.294 -14.423 -15.743  0.00  0.00    +0.000 C 
ENDROOT
TORSDOF 0
ENDMDL
MODEL 4
REMARK VINA RESULT:      -5.0     17.600     19.266
REMARK  Name = 
REMARK  4 active torsions:
REMARK  status: ('A' for Active; 'I' for Inactive)
REMARK    1  A    between atoms: C_1  and  C_6
REMARK    2  A    between atoms: C_1  and  C_7
REMARK    3  A    between atoms: C_9  and  C_14
REMARK    4  A    between atoms: C_11  and  C_15
REMARK                            x       y       z     vdW  Elec       q    Type
REMARK                         _______ _______ _______ _____ _____    ______ ____
ROOT
ATOM      1  C   UNL     1       2.799 -15.645 -15.290  0.00  0.00    +0.000 C 
ATOM      2  C   UNL     1       3.458 -16.645 -14.345  0.00  0.00    +0.000 C 
ATOM      3  C   UNL     1       2.465 -15.646 -13.808  0.00  0.00    +0.000 C 
ATOM      4  C   UNL     1       4.891 -16.561 -14.071  0.00  0.00    +0.000 C 
ATOM      5  C   UNL     1       2.881 -14.582 -12.841  0.00  0.00    +0.000 C 
ATOM      6  C   UNL     1       3.584 -14.501 -15.887  0.00  0.00    +0.000 C 
ATOM      7  C   UNL     1       1.745 -16.182 -16.229  0.00  0.00    +0.000 C 
ATOM      8  C   UNL     1       5.560 -16.060 -13.014  0.00  0.00    +0.000 C 
ATOM      9  C   UNL     1       5.849 -17.115 -15.108  0.00  0.00    +0.000 C 
ATOM     10  C   UNL     1       3.533 -15.210 -11.609  0.00  0.00    +0.000 C 
ATOM     11  C   UNL     1       5.056 -15.405 -11.749  0.00  0.00    +0.000 C 
ATOM     12  C   UNL     1       7.048 -16.172 -13.223  0.00  0.00    +0.000 C 
ATOM     13  C   UNL     1       7.169 -16.451 -14.716  0.00  0.00    +0.000 C 
ATOM     14  C   UNL     1       5.933 -18.639 -15.060  0.00  0.00    +0.000 C 
ATOM     15  C   UNL     1       5.564 -16.154 -10.509  0.00  0.00    +0.000 C 
ENDROOT
TORSDOF 0
ENDMDL
MODEL 5
REMARK VINA RESULT:      -4.8     17.663     18.793
REMARK  Name = 
REMARK  4 active torsions:
REMARK  status: ('A' for Active; 'I' for Inactive)
REMARK    1  A    between atoms: C_1  and  C_6
REMARK    2  A    between atoms: C_1  and  C_7
REMARK    3  A    between atoms: C_9  and  C_14
REMARK    4  A    between atoms: C_11  and  C_15
REMARK                            x       y       z     vdW  Elec       q    Type
REMARK                         _______ _______ _______ _____ _____    ______ ____
ROOT
ATOM      1  C   UNL     1       7.364 -16.904 -14.847  0.00  0.00    +0.000 C 
ATOM      2  C   UNL     1       6.015 -17.265 -14.233  0.00  0.00    +0.000 C 
ATOM      3  C   UNL     1       6.088 -16.796 -15.665  0.00  0.00    +0.000 C 
ATOM      4  C   UNL     1       5.453 -16.447 -13.161  0.00  0.00    +0.000 C 
ATOM      5  C   UNL     1       5.457 -15.509 -16.092  0.00  0.00    +0.000 C 
ATOM      6  C   UNL     1       8.101 -15.653 -14.429  0.00  0.00    +0.000 C 
ATOM      7  C   UNL     1       8.295 -18.046 -15.177  0.00  0.00    +0.000 C 
ATOM      8  C   UNL     1       4.494 -15.500 -13.183  0.00  0.00    +0.000 C 
ATOM      9  C   UNL     1       5.992 -16.643 -11.758  0.00  0.00    +0.000 C 
ATOM     10  C   UNL     1       3.970 -15.504 -15.738  0.00  0.00    +0.000 C 
ATOM     11  C   UNL     1       3.673 -14.955 -14.329  0.00  0.00    +0.000 C 
ATOM     12  C   UNL     1       4.296 -14.910 -11.810  0.00  0.00    +0.000 C 
ATOM     13  C   UNL     1       5.540 -15.362 -11.056  0.00  0.00    +0.000 C 
ATOM     14  C   UNL     1       5.426 -17.895 -11.092  0.00  0.00    +0.000 C 
ATOM     15  C   UNL     1       2.172 -15.122 -14.049  0.00  0.00    +0.000 C 
ENDROOT
TORSDOF 0
ENDMDL
MODEL 6
REMARK VINA RESULT:      -4.8     18.022     20.368
REMARK  Name = 
REMARK  4 active torsions:
REMARK  status: ('A' for Active; 'I' for Inactive)
REMARK    1  A    between atoms: C_1  and  C_6
REMARK    2  A    between atoms: C_1  and  C_7
REMARK    3  A    between atoms: C_9  and  C_14
REMARK    4  A    between atoms: C_11  and  C_15
REMARK                            x       y       z     vdW  Elec       q    Type
REMARK                         _______ _______ _______ _____ _____    ______ ____
ROOT
ATOM      1  C   UNL     1       3.675 -15.276 -12.572  0.00  0.00    +0.000 C 
ATOM      2  C   UNL     1       3.578 -16.480 -13.504  0.00  0.00    +0.000 C 
ATOM      3  C   UNL     1       3.848 -15.110 -14.073  0.00  0.00    +0.000 C 
ATOM      4  C   UNL     1       2.302 -17.171 -13.680  0.00  0.00    +0.000 C 
ATOM      5  C   UNL     1       2.862 -14.436 -14.974  0.00  0.00    +0.000 C 
ATOM      6  C   UNL     1       2.449 -14.719 -11.887  0.00  0.00    +0.000 C 
ATOM      7  C   UNL     1       4.919 -15.165 -11.724  0.00  0.00    +0.000 C 
ATOM      8  C   UNL     1       1.393 -17.108 -14.673  0.00  0.00    +0.000 C 
ATOM      9  C   UNL     1       1.863 -18.141 -12.601  0.00  0.00    +0.000 C 
ATOM     10  C   UNL     1       2.552 -15.322 -16.180  0.00  0.00    +0.000 C 
ATOM     11  C   UNL     1       1.379 -16.294 -15.946  0.00  0.00    +0.000 C 
ATOM     12  C   UNL     1       0.210 -17.991 -14.369  0.00  0.00    +0.000 C 
ATOM     13  C   UNL     1       0.367 -18.281 -12.882  0.00  0.00    +0.000 C 
ATOM     14  C   UNL     1       2.595 -19.478 -12.693  0.00  0.00    +0.000 C 
ATOM     15  C   UNL     1       1.254 -17.208 -17.174  0.00  0.00    +0.000 C 
ENDROOT
TORSDOF 0
ENDMDL
MODEL 7
REMARK VINA RESULT:      -4.6     17.976     20.460
REMARK  Name = 
REMARK  4 active torsions:
REMARK  status: ('A' for Active; 'I' for Inactive)
REMARK    1  A    between atoms: C_1  and  C_6
REMARK    2  A    between atoms: C_1  and  C_7
REMARK    3  A    between atoms: C_9  and  C_14
REMARK    4  A    between atoms: C_11  and  C_15
REMARK                            x       y       z     vdW  Elec       q    Type
REMARK                         _______ _______ _______ _____ _____    ______ ____
ROOT
ATOM      1  C   UNL     1       3.294 -14.923 -15.077  0.00  0.00    +0.000 C 
ATOM      2  C   UNL     1       2.135 -15.643 -14.394  0.00  0.00    +0.000 C 
ATOM      3  C   UNL     1       2.940 -14.622 -13.630  0.00  0.00    +0.000 C 
ATOM      4  C   UNL     1       2.217 -17.077 -14.125  0.00  0.00    +0.000 C 
ATOM      5  C   UNL     1       3.771 -15.015 -12.450  0.00  0.00    +0.000 C 
ATOM      6  C   UNL     1       4.579 -15.649 -15.405  0.00  0.00    +0.000 C 
ATOM      7  C   UNL     1       2.940 -13.872 -16.101  0.00  0.00    +0.000 C 
ATOM      8  C   UNL     1       2.493 -17.747 -12.989  0.00  0.00    +0.000 C 
ATOM      9  C   UNL     1       1.958 -18.033 -15.273  0.00  0.00    +0.000 C 
ATOM     10  C   UNL     1       2.908 -15.718 -11.403  0.00  0.00    +0.000 C 
ATOM     11  C   UNL     1       2.818 -17.245 -11.601  0.00  0.00    +0.000 C 
ATOM     12  C   UNL     1       2.498 -19.234 -13.236  0.00  0.00    +0.000 C 
ATOM     13  C   UNL     1       2.573 -19.334 -14.754  0.00  0.00    +0.000 C 
ATOM     14  C   UNL     1       0.470 -18.180 -15.577  0.00  0.00    +0.000 C 
ATOM     15  C   UNL     1       1.828 -17.810 -10.573  0.00  0.00    +0.000 C 
ENDROOT
TORSDOF 0
ENDMDL
MODEL 8
REMARK VINA RESULT:      -4.6     17.749     19.728
REMARK  Name = 
REMARK  4 active torsions:
REMARK  status: ('A' for Active; 'I' for Inactive)
REMARK    1  A    between atoms: C_1  and  C_6
REMARK    2  A    between atoms: C_1  and  C_7
REMARK    3  A    between atoms: C_9  and  C_14
REMARK    4  A    between atoms: C_11  and  C_15
REMARK                            x       y       z     vdW  Elec       q    Type
REMARK                         _______ _______ _______ _____ _____    ______ ____
ROOT
ATOM      1  C   UNL     1       3.186 -16.556 -11.821  0.00  0.00    +0.000 C 
ATOM      2  C   UNL     1       3.402 -17.097 -13.231  0.00  0.00    +0.000 C 
ATOM      3  C   UNL     1       4.557 -17.041 -12.262  0.00  0.00    +0.000 C 
ATOM      4  C   UNL     1       3.294 -16.206 -14.384  0.00  0.00    +0.000 C 
ATOM      5  C   UNL     1       5.735 -16.153 -12.511  0.00  0.00    +0.000 C 
ATOM      6  C   UNL     1       2.948 -15.084 -11.577  0.00  0.00    +0.000 C 
ATOM      7  C   UNL     1       2.426 -17.437 -10.858  0.00  0.00    +0.000 C 
ATOM      8  C   UNL     1       4.243 -15.611 -15.132  0.00  0.00    +0.000 C 
ATOM      9  C   UNL     1       1.906 -15.848 -14.879  0.00  0.00    +0.000 C 
ATOM     10  C   UNL     1       6.359 -16.467 -13.870  0.00  0.00    +0.000 C 
ATOM     11  C   UNL     1       5.750 -15.656 -15.031  0.00  0.00    +0.000 C 
ATOM     12  C   UNL     1       3.619 -14.744 -16.195  0.00  0.00    +0.000 C 
ATOM     13  C   UNL     1       2.176 -14.603 -15.724  0.00  0.00    +0.000 C 
ATOM     14  C   UNL     1       1.276 -16.973 -15.696  0.00  0.00    +0.000 C 
ATOM     15  C   UNL     1       6.368 -16.153 -16.346  0.00  0.00    +0.000 C 
ENDROOT
TORSDOF 0
ENDMDL
MODEL 9
REMARK VINA RESULT:      -4.6     18.285     20.635
REMARK  Name = 
REMARK  4 active torsions:
REMARK  status: ('A' for Active; 'I' for Inactive)
REMARK    1  A    between atoms: C_1  and  C_6
REMARK    2  A    between atoms: C_1  and  C_7
REMARK    3  A    between atoms: C_9  and  C_14
REMARK    4  A    between atoms: C_11  and  C_15
REMARK                            x       y       z     vdW  Elec       q    Type
REMARK                         _______ _______ _______ _____ _____    ______ ____
ROOT
ATOM      1  C   UNL     1      -2.803  18.253 -18.029  0.00  0.00    +0.000 C 
ATOM      2  C   UNL     1      -3.726  17.111 -17.616  0.00  0.00    +0.000 C 
ATOM      3  C   UNL     1      -3.143  18.022 -16.566  0.00  0.00    +0.000 C 
ATOM      4  C   UNL     1      -3.299  15.724 -17.784  0.00  0.00    +0.000 C 
ATOM      5  C   UNL     1      -2.183  17.509 -15.539  0.00  0.00    +0.000 C 
ATOM      6  C   UNL     1      -1.404  17.983 -18.531  0.00  0.00    +0.000 C 
ATOM      7  C   UNL     1      -3.445  19.443 -18.701  0.00  0.00    +0.000 C 
ATOM      8  C   UNL     1      -2.816  14.835 -16.894  0.00  0.00    +0.000 C 
ATOM      9  C   UNL     1      -3.386  15.114 -19.169  0.00  0.00    +0.000 C 
ATOM     10  C   UNL     1      -2.804  16.345 -14.767  0.00  0.00    +0.000 C 
ATOM     11  C   UNL     1      -2.546  14.969 -15.413  0.00  0.00    +0.000 C 
ATOM     12  C   UNL     1      -2.478  13.532 -17.572  0.00  0.00    +0.000 C 
ATOM     13  C   UNL     1      -2.460  13.904 -19.049  0.00  0.00    +0.000 C 
ATOM     14  C   UNL     1      -4.814  14.714 -19.535  0.00  0.00    +0.000 C 
ATOM     15  C   UNL     1      -3.323  13.908 -14.620  0.00  0.00    +0.000 C 
ENDROOT
TORSDOF 0
ENDMDL
