MODEL 1
REMARK VINA RESULT:      -7.0      0.000      0.000
REMARK  Name = JAK3_Inhibitor.pdbqt.pdb
REMARK  1 active torsions:
REMARK  status: ('A' for Active; 'I' for Inactive)
REMARK    1  A    between atoms: C_7  and  C_20
REMARK                            x       y       z     vdW  Elec       q    Type
REMARK                         _______ _______ _______ _____ _____    ______ ____
ROOT
ATOM      1  O   UNL     1      -1.563   2.405 -19.277  0.00  0.00    +0.000 OA
ATOM      2  N   UNL     1      -2.412   0.748 -17.856  0.00  0.00    +0.000 N 
ATOM      3  C   UNL     1      -4.169  -0.026 -19.112  0.00  0.00    +0.000 A 
ATOM      4  C   UNL     1      -3.469  -0.161 -17.911  0.00  0.00    +0.000 A 
ATOM      5  C   UNL     1      -3.497   1.036 -19.842  0.00  0.00    +0.000 C 
ATOM      6  C   UNL     1      -5.261  -0.822 -19.393  0.00  0.00    +0.000 A 
ATOM      7  C   UNL     1      -5.665  -1.781 -18.448  0.00  0.00    +0.000 A 
ATOM      8  C   UNL     1      -2.357   1.525 -19.007  0.00  0.00    +0.000 C 
ATOM      9  C   UNL     1      -3.826  -1.086 -16.955  0.00  0.00    +0.000 A 
ATOM     10  C   UNL     1      -3.796   1.510 -21.010  0.00  0.00    +0.000 C 
ATOM     11  C   UNL     1      -4.931  -1.890 -17.243  0.00  0.00    +0.000 A 
ATOM     12  H   UNL     1      -1.758   0.847 -17.093  0.00  0.00    +0.000 HD
ATOM     13  N   UNL     1      -3.357   3.075 -22.857  0.00  0.00    +0.000 N 
ATOM     14  C   UNL     1      -4.081   2.062 -22.284  0.00  0.00    +0.000 C 
ATOM     15  C   UNL     1      -5.087   1.715 -23.156  0.00  0.00    +0.000 C 
ATOM     16  C   UNL     1      -3.889   3.377 -24.083  0.00  0.00    +0.000 C 
ATOM     17  C   UNL     1      -4.965   2.546 -24.294  0.00  0.00    +0.000 C 
ATOM     18  H   UNL     1      -2.555   3.527 -22.439  0.00  0.00    +0.000 HD
ENDROOT
BRANCH   7  20
ATOM     19  N   UNL     1      -7.696  -4.818 -19.394  0.00  0.00    +0.000 NA
ATOM     20  C   UNL     1      -6.820  -2.649 -18.705  0.00  0.00    +0.000 A 
ATOM     21  C   UNL     1      -8.134  -2.211 -18.528  0.00  0.00    +0.000 A 
ATOM     22  C   UNL     1      -6.679  -3.964 -19.139  0.00  0.00    +0.000 A 
ATOM     23  C   UNL     1      -9.215  -3.049 -18.776  0.00  0.00    +0.000 A 
ATOM     24  C   UNL     1      -8.942  -4.335 -19.204  0.00  0.00    +0.000 A 
ENDBRANCH   7  20
TORSDOF 1
ENDMDL
MODEL 2
REMARK VINA RESULT:      -6.0      5.917      7.957
REMARK  Name = JAK3_Inhibitor.pdbqt.pdb
REMARK  1 active torsions:
REMARK  status: ('A' for Active; 'I' for Inactive)
REMARK    1  A    between atoms: C_7  and  C_20
REMARK                            x       y       z     vdW  Elec       q    Type
REMARK                         _______ _______ _______ _____ _____    ______ ____
ROOT
ATOM      1  O   UNL     1       4.825  -3.811 -20.250  0.00  0.00    +0.000 OA
ATOM      2  N   UNL     1       2.530  -4.278 -20.219  0.00  0.00    +0.000 N 
ATOM      3  C   UNL     1       1.701  -2.270 -19.480  0.00  0.00    +0.000 A 
ATOM      4  C   UNL     1       1.376  -3.566 -19.887  0.00  0.00    +0.000 A 
ATOM      5  C   UNL     1       3.149  -2.181 -19.568  0.00  0.00    +0.000 C 
ATOM      6  C   UNL     1       0.719  -1.377 -19.100  0.00  0.00    +0.000 A 
ATOM      7  C   UNL     1      -0.624  -1.790 -19.128  0.00  0.00    +0.000 A 
ATOM      8  C   UNL     1       3.667  -3.497 -20.051  0.00  0.00    +0.000 C 
ATOM      9  C   UNL     1       0.076  -4.017 -19.932  0.00  0.00    +0.000 A 
ATOM     10  C   UNL     1       3.900  -1.164 -19.287  0.00  0.00    +0.000 C 
ATOM     11  C   UNL     1      -0.914  -3.110 -19.548  0.00  0.00    +0.000 A 
ATOM     12  H   UNL     1       2.561  -5.234 -20.543  0.00  0.00    +0.000 HD
ATOM     13  N   UNL     1       6.129  -0.135 -19.122  0.00  0.00    +0.000 N 
ATOM     14  C   UNL     1       4.765  -0.080 -18.995  0.00  0.00    +0.000 C 
ATOM     15  C   UNL     1       4.433   1.178 -18.548  0.00  0.00    +0.000 C 
ATOM     16  C   UNL     1       6.669   1.071 -18.762  0.00  0.00    +0.000 C 
ATOM     17  C   UNL     1       5.637   1.906 -18.401  0.00  0.00    +0.000 C 
ATOM     18  H   UNL     1       6.653  -0.942 -19.434  0.00  0.00    +0.000 HD
ENDROOT
BRANCH   7  20
ATOM     19  N   UNL     1      -2.622   1.383 -18.703  0.00  0.00    +0.000 NA
ATOM     20  C   UNL     1      -1.701  -0.874 -18.734  0.00  0.00    +0.000 A 
ATOM     21  C   UNL     1      -2.826  -1.308 -18.030  0.00  0.00    +0.000 A 
ATOM     22  C   UNL     1      -1.668   0.484 -19.035  0.00  0.00    +0.000 A 
ATOM     23  C   UNL     1      -3.836  -0.425 -17.665  0.00  0.00    +0.000 A 
ATOM     24  C   UNL     1      -3.685   0.902 -18.025  0.00  0.00    +0.000 A 
ENDBRANCH   7  20
TORSDOF 1
ENDMDL
MODEL 3
REMARK VINA RESULT:      -5.9     19.316     22.119
REMARK  Name = JAK3_Inhibitor.pdbqt.pdb
REMARK  1 active torsions:
REMARK  status: ('A' for Active; 'I' for Inactive)
REMARK    1  A    between atoms: C_7  and  C_20
REMARK                            x       y       z     vdW  Elec       q    Type
REMARK                         _______ _______ _______ _____ _____    ______ ____
ROOT
ATOM      1  O   UNL     1       4.824 -18.816  -6.789  0.00  0.00    +0.000 OA
ATOM      2  N   UNL     1       5.826 -17.223  -8.184  0.00  0.00    +0.000 N 
ATOM      3  C   UNL     1       4.384 -17.259  -9.968  0.00  0.00    +0.000 A 
ATOM      4  C   UNL     1       5.545 -16.688  -9.442  0.00  0.00    +0.000 A 
ATOM      5  C   UNL     1       3.922 -18.206  -8.968  0.00  0.00    +0.000 C 
ATOM      6  C   UNL     1       3.907 -16.886 -11.209  0.00  0.00    +0.000 A 
ATOM      7  C   UNL     1       4.608 -15.914 -11.943  0.00  0.00    +0.000 A 
ATOM      8  C   UNL     1       4.874 -18.167  -7.816  0.00  0.00    +0.000 C 
ATOM      9  C   UNL     1       6.267 -15.733 -10.122  0.00  0.00    +0.000 A 
ATOM     10  C   UNL     1       2.879 -18.971  -9.020  0.00  0.00    +0.000 C 
ATOM     11  C   UNL     1       5.780 -15.357 -11.377  0.00  0.00    +0.000 A 
ATOM     12  H   UNL     1       6.609 -16.973  -7.598  0.00  0.00    +0.000 HD
ATOM     13  N   UNL     1       1.429 -20.682  -8.006  0.00  0.00    +0.000 N 
ATOM     14  C   UNL     1       1.748 -19.827  -9.029  0.00  0.00    +0.000 C 
ATOM     15  C   UNL     1       0.795 -19.968 -10.010  0.00  0.00    +0.000 C 
ATOM     16  C   UNL     1       0.285 -21.365  -8.323  0.00  0.00    +0.000 C 
ATOM     17  C   UNL     1      -0.130 -20.940  -9.564  0.00  0.00    +0.000 C 
ATOM     18  H   UNL     1       1.958 -20.790  -7.150  0.00  0.00    +0.000 HD
ENDROOT
BRANCH   7  20
ATOM     19  N   UNL     1       4.453 -15.432 -15.682  0.00  0.00    +0.000 NA
ATOM     20  C   UNL     1       4.138 -15.486 -13.266  0.00  0.00    +0.000 A 
ATOM     21  C   UNL     1       2.968 -14.743 -13.434  0.00  0.00    +0.000 A 
ATOM     22  C   UNL     1       4.828 -15.793 -14.435  0.00  0.00    +0.000 A 
ATOM     23  C   UNL     1       2.538 -14.347 -14.695  0.00  0.00    +0.000 A 
ATOM     24  C   UNL     1       3.313 -14.716 -15.780  0.00  0.00    +0.000 A 
ENDBRANCH   7  20
TORSDOF 1
ENDMDL
MODEL 4
REMARK VINA RESULT:      -5.9     16.902     19.108
REMARK  Name = JAK3_Inhibitor.pdbqt.pdb
REMARK  1 active torsions:
REMARK  status: ('A' for Active; 'I' for Inactive)
REMARK    1  A    between atoms: C_7  and  C_20
REMARK                            x       y       z     vdW  Elec       q    Type
REMARK                         _______ _______ _______ _____ _____    ______ ____
ROOT
ATOM      1  O   UNL     1      -5.584  19.390 -10.865  0.00  0.00    +0.000 OA
ATOM      2  N   UNL     1      -6.408  17.574 -12.094  0.00  0.00    +0.000 N 
ATOM      3  C   UNL     1      -4.734  17.319 -13.642  0.00  0.00    +0.000 A 
ATOM      4  C   UNL     1      -5.965  16.835 -13.192  0.00  0.00    +0.000 A 
ATOM      5  C   UNL     1      -4.400  18.427 -12.763  0.00  0.00    +0.000 C 
ATOM      6  C   UNL     1      -4.096  16.744 -14.724  0.00  0.00    +0.000 A 
ATOM      7  C   UNL     1      -4.704  15.656 -15.372  0.00  0.00    +0.000 A 
ATOM      8  C   UNL     1      -5.502  18.575 -11.763  0.00  0.00    +0.000 C 
ATOM      9  C   UNL     1      -6.600  15.772 -13.794  0.00  0.00    +0.000 A 
ATOM     10  C   UNL     1      -3.349  19.181 -12.800  0.00  0.00    +0.000 C 
ATOM     11  C   UNL     1      -5.951  15.193 -14.887  0.00  0.00    +0.000 A 
ATOM     12  H   UNL     1      -7.268  17.420 -11.588  0.00  0.00    +0.000 HD
ATOM     13  N   UNL     1      -2.028  21.053 -11.900  0.00  0.00    +0.000 N 
ATOM     14  C   UNL     1      -2.216  20.034 -12.798  0.00  0.00    +0.000 C 
ATOM     15  C   UNL     1      -1.134  20.014 -13.647  0.00  0.00    +0.000 C 
ATOM     16  C   UNL     1      -0.842  21.682 -12.168  0.00  0.00    +0.000 C 
ATOM     17  C   UNL     1      -0.265  21.057 -13.249  0.00  0.00    +0.000 C 
ATOM     18  H   UNL     1      -2.668  21.299 -11.157  0.00  0.00    +0.000 HD
ENDROOT
BRANCH   7  20
ATOM     19  N   UNL     1      -2.240  13.667 -17.424  0.00  0.00    +0.000 NA
ATOM     20  C   UNL     1      -4.063  15.013 -16.525  0.00  0.00    +0.000 A 
ATOM     21  C   UNL     1      -4.595  15.095 -17.813  0.00  0.00    +0.000 A 
ATOM     22  C   UNL     1      -2.884  14.283 -16.407  0.00  0.00    +0.000 A 
ATOM     23  C   UNL     1      -3.973  14.479 -18.893  0.00  0.00    +0.000 A 
ATOM     24  C   UNL     1      -2.804  13.781 -18.644  0.00  0.00    +0.000 A 
ENDBRANCH   7  20
TORSDOF 1
ENDMDL
MODEL 5
REMARK VINA RESULT:      -5.6     16.636     19.374
REMARK  Name = JAK3_Inhibitor.pdbqt.pdb
REMARK  1 active torsions:
REMARK  status: ('A' for Active; 'I' for Inactive)
REMARK    1  A    between atoms: C_7  and  C_20
REMARK                            x       y       z     vdW  Elec       q    Type
REMARK                         _______ _______ _______ _____ _____    ______ ____
ROOT
ATOM      1  O   UNL     1      15.595   0.277 -24.570  0.00  0.00    +0.000 OA
ATOM      2  N   UNL     1      14.096   1.751 -23.538  0.00  0.00    +0.000 N 
ATOM      3  C   UNL     1      13.702   0.641 -21.569  0.00  0.00    +0.000 A 
ATOM      4  C   UNL     1      13.407   1.778 -22.325  0.00  0.00    +0.000 A 
ATOM      5  C   UNL     1      14.633  -0.134 -22.371  0.00  0.00    +0.000 C 
ATOM      6  C   UNL     1      13.133   0.446 -20.326  0.00  0.00    +0.000 A 
ATOM      7  C   UNL     1      12.247   1.414 -19.824  0.00  0.00    +0.000 A 
ATOM      8  C   UNL     1      14.876   0.606 -23.647  0.00  0.00    +0.000 C 
ATOM      9  C   UNL     1      12.545   2.754 -21.876  0.00  0.00    +0.000 A 
ATOM     10  C   UNL     1      15.181  -1.270 -22.076  0.00  0.00    +0.000 C 
ATOM     11  C   UNL     1      11.973   2.553 -20.618  0.00  0.00    +0.000 A 
ATOM     12  H   UNL     1      14.053   2.459 -24.257  0.00  0.00    +0.000 HD
ATOM     13  N   UNL     1      16.674  -3.138 -22.657  0.00  0.00    +0.000 N 
ATOM     14  C   UNL     1      15.807  -2.511 -21.799  0.00  0.00    +0.000 C 
ATOM     15  C   UNL     1      15.680  -3.297 -20.677  0.00  0.00    +0.000 C 
ATOM     16  C   UNL     1      17.100  -4.312 -22.096  0.00  0.00    +0.000 C 
ATOM     17  C   UNL     1      16.498  -4.436 -20.865  0.00  0.00    +0.000 C 
ATOM     18  H   UNL     1      16.954  -2.785 -23.562  0.00  0.00    +0.000 HD
ENDROOT
BRANCH   7  20
ATOM     19  N   UNL     1      10.623   2.255 -16.523  0.00  0.00    +0.000 NA
ATOM     20  C   UNL     1      11.620   1.249 -18.508  0.00  0.00    +0.000 A 
ATOM     21  C   UNL     1      11.399  -0.009 -17.942  0.00  0.00    +0.000 A 
ATOM     22  C   UNL     1      11.205   2.333 -17.740  0.00  0.00    +0.000 A 
ATOM     23  C   UNL     1      10.803  -0.145 -16.693  0.00  0.00    +0.000 A 
ATOM     24  C   UNL     1      10.436   1.012 -16.030  0.00  0.00    +0.000 A 
ENDBRANCH   7  20
TORSDOF 1
ENDMDL
MODEL 6
REMARK VINA RESULT:      -5.6     18.238     20.478
REMARK  Name = JAK3_Inhibitor.pdbqt.pdb
REMARK  1 active torsions:
REMARK  status: ('A' for Active; 'I' for Inactive)
REMARK    1  A    between atoms: C_7  and  C_20
REMARK                            x       y       z     vdW  Elec       q    Type
REMARK                         _______ _______ _______ _____ _____    ______ ____
ROOT
ATOM      1  O   UNL     1      -8.128  17.270 -15.639  0.00  0.00    +0.000 OA
ATOM      2  N   UNL     1      -8.359  18.502 -13.661  0.00  0.00    +0.000 N 
ATOM      3  C   UNL     1      -6.325  18.105 -12.677  0.00  0.00    +0.000 A 
ATOM      4  C   UNL     1      -7.555  18.755 -12.549  0.00  0.00    +0.000 A 
ATOM      5  C   UNL     1      -6.379  17.407 -13.950  0.00  0.00    +0.000 C 
ATOM      6  C   UNL     1      -5.360  18.208 -11.695  0.00  0.00    +0.000 A 
ATOM      7  C   UNL     1      -5.631  18.984 -10.554  0.00  0.00    +0.000 A 
ATOM      8  C   UNL     1      -7.711  17.679 -14.573  0.00  0.00    +0.000 C 
ATOM      9  C   UNL     1      -7.866  19.526 -11.451  0.00  0.00    +0.000 A 
ATOM     10  C   UNL     1      -5.463  16.668 -14.491  0.00  0.00    +0.000 C 
ATOM     11  C   UNL     1      -6.887  19.629 -10.461  0.00  0.00    +0.000 A 
ATOM     12  H   UNL     1      -9.293  18.859 -13.807  0.00  0.00    +0.000 HD
ATOM     13  N   UNL     1      -4.679  15.246 -16.339  0.00  0.00    +0.000 N 
ATOM     14  C   UNL     1      -4.493  15.851 -15.124  0.00  0.00    +0.000 C 
ATOM     15  C   UNL     1      -3.236  15.518 -14.674  0.00  0.00    +0.000 C 
ATOM     16  C   UNL     1      -3.558  14.531 -16.669  0.00  0.00    +0.000 C 
ATOM     17  C   UNL     1      -2.646  14.683 -15.651  0.00  0.00    +0.000 C 
ATOM     18  H   UNL     1      -5.516  15.317 -16.904  0.00  0.00    +0.000 HD
ENDROOT
BRANCH   7  20
ATOM     19  N   UNL     1      -2.309  19.420  -8.818  0.00  0.00    +0.000 NA
ATOM     20  C   UNL     1      -4.635  19.122  -9.486  0.00  0.00    +0.000 A 
ATOM     21  C   UNL     1      -4.986  19.097  -8.134  0.00  0.00    +0.000 A 
ATOM     22  C   UNL     1      -3.279  19.287  -9.751  0.00  0.00    +0.000 A 
ATOM     23  C   UNL     1      -4.027  19.230  -7.136  0.00  0.00    +0.000 A 
ATOM     24  C   UNL     1      -2.711  19.388  -7.531  0.00  0.00    +0.000 A 
ENDBRANCH   7  20
TORSDOF 1
ENDMDL
MODEL 7
REMARK VINA RESULT:      -5.5     17.770     20.034
REMARK  Name = JAK3_Inhibitor.pdbqt.pdb
REMARK  1 active torsions:
REMARK  status: ('A' for Active; 'I' for Inactive)
REMARK    1  A    between atoms: C_7  and  C_20
REMARK                            x       y       z     vdW  Elec       q    Type
REMARK                         _______ _______ _______ _____ _____    ______ ____
ROOT
ATOM      1  O   UNL     1      -6.370  20.232 -10.105  0.00  0.00    +0.000 OA
ATOM      2  N   UNL     1      -7.238  18.838 -11.776  0.00  0.00    +0.000 N 
ATOM      3  C   UNL     1      -5.299  18.053 -12.719  0.00  0.00    +0.000 A 
ATOM      4  C   UNL     1      -6.695  18.015 -12.763  0.00  0.00    +0.000 A 
ATOM      5  C   UNL     1      -4.964  18.959 -11.633  0.00  0.00    +0.000 C 
ATOM      6  C   UNL     1      -4.539  17.317 -13.605  0.00  0.00    +0.000 A 
ATOM      7  C   UNL     1      -5.191  16.518 -14.561  0.00  0.00    +0.000 A 
ATOM      8  C   UNL     1      -6.239  19.458 -11.034  0.00  0.00    +0.000 C 
ATOM      9  C   UNL     1      -7.379  17.249 -13.680  0.00  0.00    +0.000 A 
ATOM     10  C   UNL     1      -3.786  19.305 -11.222  0.00  0.00    +0.000 C 
ATOM     11  C   UNL     1      -6.606  16.505 -14.574  0.00  0.00    +0.000 A 
ATOM     12  H   UNL     1      -8.222  18.981 -11.602  0.00  0.00    +0.000 HD
ATOM     13  N   UNL     1      -2.347  20.586  -9.692  0.00  0.00    +0.000 N 
ATOM     14  C   UNL     1      -2.519  19.714 -10.735  0.00  0.00    +0.000 C 
ATOM     15  C   UNL     1      -1.273  19.339 -11.183  0.00  0.00    +0.000 C 
ATOM     16  C   UNL     1      -1.008  20.773  -9.471  0.00  0.00    +0.000 C 
ATOM     17  C   UNL     1      -0.318  20.010 -10.384  0.00  0.00    +0.000 C 
ATOM     18  H   UNL     1      -3.094  21.023  -9.169  0.00  0.00    +0.000 HD
ENDROOT
BRANCH   7  20
ATOM     19  N   UNL     1      -4.140  14.882 -17.794  0.00  0.00    +0.000 NA
ATOM     20  C   UNL     1      -4.423  15.718 -15.522  0.00  0.00    +0.000 A 
ATOM     21  C   UNL     1      -3.268  15.024 -15.157  0.00  0.00    +0.000 A 
ATOM     22  C   UNL     1      -4.798  15.601 -16.857  0.00  0.00    +0.000 A 
ATOM     23  C   UNL     1      -2.554  14.271 -16.082  0.00  0.00    +0.000 A 
ATOM     24  C   UNL     1      -3.031  14.235 -17.380  0.00  0.00    +0.000 A 
ENDBRANCH   7  20
TORSDOF 1
ENDMDL
MODEL 8
REMARK VINA RESULT:      -5.5     14.940     16.366
REMARK  Name = JAK3_Inhibitor.pdbqt.pdb
REMARK  1 active torsions:
REMARK  status: ('A' for Active; 'I' for Inactive)
REMARK    1  A    between atoms: C_7  and  C_20
REMARK                            x       y       z     vdW  Elec       q    Type
REMARK                         _______ _______ _______ _____ _____    ______ ____
ROOT
ATOM      1  O   UNL     1      -7.184  15.805 -15.890  0.00  0.00    +0.000 OA
ATOM      2  N   UNL     1      -4.884  15.411 -15.695  0.00  0.00    +0.000 N 
ATOM      3  C   UNL     1      -4.318  15.114 -17.898  0.00  0.00    +0.000 A 
ATOM      4  C   UNL     1      -3.843  15.146 -16.586  0.00  0.00    +0.000 A 
ATOM      5  C   UNL     1      -5.745  15.377 -17.807  0.00  0.00    +0.000 C 
ATOM      6  C   UNL     1      -3.468  14.866 -18.958  0.00  0.00    +0.000 A 
ATOM      7  C   UNL     1      -2.104  14.646 -18.698  0.00  0.00    +0.000 A 
ATOM      8  C   UNL     1      -6.091  15.567 -16.366  0.00  0.00    +0.000 C 
ATOM      9  C   UNL     1      -2.516  14.936 -16.281  0.00  0.00    +0.000 A 
ATOM     10  C   UNL     1      -6.604  15.443 -18.774  0.00  0.00    +0.000 C 
ATOM     11  C   UNL     1      -1.659  14.687 -17.355  0.00  0.00    +0.000 A 
ATOM     12  H   UNL     1      -4.797  15.486 -14.691  0.00  0.00    +0.000 HD
ATOM     13  N   UNL     1      -8.909  15.782 -19.566  0.00  0.00    +0.000 N 
ATOM     14  C   UNL     1      -7.582  15.526 -19.797  0.00  0.00    +0.000 C 
ATOM     15  C   UNL     1      -7.410  15.376 -21.153  0.00  0.00    +0.000 C 
ATOM     16  C   UNL     1      -9.584  15.796 -20.757  0.00  0.00    +0.000 C 
ATOM     17  C   UNL     1      -8.676  15.546 -21.761  0.00  0.00    +0.000 C 
ATOM     18  H   UNL     1      -9.322  15.936 -18.656  0.00  0.00    +0.000 HD
ENDROOT
BRANCH   7  20
ATOM     19  N   UNL     1       0.583  15.182 -21.292  0.00  0.00    +0.000 NA
ATOM     20  C   UNL     1      -1.164  14.380 -19.792  0.00  0.00    +0.000 A 
ATOM     21  C   UNL     1      -1.070  13.128 -20.405  0.00  0.00    +0.000 A 
ATOM     22  C   UNL     1      -0.306  15.357 -20.289  0.00  0.00    +0.000 A 
ATOM     23  C   UNL     1      -0.172  12.895 -21.440  0.00  0.00    +0.000 A 
ATOM     24  C   UNL     1       0.627  13.950 -21.843  0.00  0.00    +0.000 A 
ENDBRANCH   7  20
TORSDOF 1
ENDMDL
MODEL 9
REMARK VINA RESULT:      -5.4     15.325     16.406
REMARK  Name = JAK3_Inhibitor.pdbqt.pdb
REMARK  1 active torsions:
REMARK  status: ('A' for Active; 'I' for Inactive)
REMARK    1  A    between atoms: C_7  and  C_20
REMARK                            x       y       z     vdW  Elec       q    Type
REMARK                         _______ _______ _______ _____ _____    ______ ____
ROOT
ATOM      1  O   UNL     1     -10.850   8.561  -5.826  0.00  0.00    +0.000 OA
ATOM      2  N   UNL     1     -10.989   6.726  -7.275  0.00  0.00    +0.000 N 
ATOM      3  C   UNL     1     -12.645   7.435  -8.696  0.00  0.00    +0.000 A 
ATOM      4  C   UNL     1     -11.757   6.400  -8.393  0.00  0.00    +0.000 A 
ATOM      5  C   UNL     1     -12.406   8.463  -7.697  0.00  0.00    +0.000 C 
ATOM      6  C   UNL     1     -13.511   7.338  -9.766  0.00  0.00    +0.000 A 
ATOM      7  C   UNL     1     -13.490   6.177 -10.557  0.00  0.00    +0.000 A 
ATOM      8  C   UNL     1     -11.326   7.982  -6.783  0.00  0.00    +0.000 C 
ATOM      9  C   UNL     1     -11.698   5.243  -9.138  0.00  0.00    +0.000 A 
ATOM     10  C   UNL     1     -12.999   9.608  -7.579  0.00  0.00    +0.000 C 
ATOM     11  C   UNL     1     -12.576   5.150 -10.220  0.00  0.00    +0.000 A 
ATOM     12  H   UNL     1     -10.276   6.144  -6.858  0.00  0.00    +0.000 HD
ATOM     13  N   UNL     1     -13.291  11.753  -6.409  0.00  0.00    +0.000 N 
ATOM     14  C   UNL     1     -13.617  10.873  -7.407  0.00  0.00    +0.000 C 
ATOM     15  C   UNL     1     -14.614  11.443  -8.165  0.00  0.00    +0.000 C 
ATOM     16  C   UNL     1     -14.068  12.876  -6.520  0.00  0.00    +0.000 C 
ATOM     17  C   UNL     1     -14.899  12.709  -7.603  0.00  0.00    +0.000 C 
ATOM     18  H   UNL     1     -12.586  11.596  -5.700  0.00  0.00    +0.000 HD
ENDROOT
BRANCH   7  20
ATOM     19  N   UNL     1     -16.532   6.531 -12.761  0.00  0.00    +0.000 NA
ATOM     20  C   UNL     1     -14.392   6.031 -11.704  0.00  0.00    +0.000 A 
ATOM     21  C   UNL     1     -14.044   5.288 -12.835  0.00  0.00    +0.000 A 
ATOM     22  C   UNL     1     -15.651   6.623 -11.739  0.00  0.00    +0.000 A 
ATOM     23  C   UNL     1     -14.914   5.162 -13.912  0.00  0.00    +0.000 A 
ATOM     24  C   UNL     1     -16.138   5.800 -13.825  0.00  0.00    +0.000 A 
ENDBRANCH   7  20
TORSDOF 1
ENDMDL
