MODEL 1
REMARK VINA RESULT:      -5.2      0.000      0.000
REMARK  Name = Leptomycin.pdbqt.pdb
REMARK  12 active torsions:
REMARK  status: ('A' for Active; 'I' for Inactive)
REMARK    1  A    between atoms: C_2  and  C_4
REMARK    2  A    between atoms: C_5  and  C_6
REMARK    3  A    between atoms: C_6  and  C_7
REMARK    4  A    between atoms: C_10  and  C_11
REMARK    5  A    between atoms: C_10  and  C_21
REMARK    6  A    between atoms: C_12  and  C_13
REMARK    7  A    between atoms: C_23  and  C_25
REMARK    8  A    between atoms: C_25  and  C_27
REMARK    9  A    between atoms: C_27  and  C_29
REMARK   10  A    between atoms: C_29  and  O_30
REMARK   11  A    between atoms: C_29  and  C_32
REMARK   12  A    between atoms: C_38  and  O_40
REMARK                            x       y       z     vdW  Elec       q    Type
REMARK                         _______ _______ _______ _____ _____    ______ ____
ROOT
ATOM      1  C   UNL     1       0.838   2.029 -21.729  0.00  0.00    +0.000 C 
ATOM      2  C   UNL     1       1.246   0.930 -22.274  0.00  0.00    +0.000 C 
ATOM      3  C   UNL     1       2.719   0.641 -22.298  0.00  0.00    +0.000 C 
ATOM      4  C   UNL     1       0.331   3.194 -21.101  0.00  0.00    +0.000 C 
ATOM      5  C   UNL     1       0.392   4.460 -21.941  0.00  0.00    +0.000 C 
ENDROOT
BRANCH   2   6
ATOM      6  C   UNL     1       0.342  -0.156 -22.381  0.00  0.00    +0.000 C 
ATOM      7  C   UNL     1      -0.377  -1.111 -22.500  0.00  0.00    +0.000 C 
BRANCH   7   8
ATOM      8  C   UNL     1      -1.198  -2.388 -22.708  0.00  0.00    +0.000 C 
BRANCH   8   9
ATOM      9  C   UNL     1      -1.888  -3.564 -23.089  0.00  0.00    +0.000 C 
ATOM     10  C   UNL     1      -1.114  -4.814 -23.377  0.00  0.00    +0.000 C 
ATOM     11  C   UNL     1      -3.286  -3.556 -23.310  0.00  0.00    +0.000 C 
ATOM     12  C   UNL     1      -4.557  -3.354 -23.481  0.00  0.00    +0.000 C 
BRANCH  12  13
ATOM     13  C   UNL     1      -4.989  -2.007 -23.348  0.00  0.00    +0.000 C 
ATOM     14  C   UNL     1      -5.249  -0.835 -23.317  0.00  0.00    +0.000 C 
BRANCH  14  15
ATOM     15  C   UNL     1      -5.452   0.568 -23.372  0.00  0.00    +0.000 A 
ATOM     16  O   UNL     1      -6.464   1.114 -22.473  0.00  0.00    +0.000 OA
ATOM     17  C   UNL     1      -6.736   2.478 -22.404  0.00  0.00    +0.000 A 
ATOM     18  O   UNL     1      -7.545   2.989 -21.645  0.00  0.00    +0.000 OA
ATOM     19  C   UNL     1      -5.930   3.226 -23.323  0.00  0.00    +0.000 A 
ATOM     20  C   UNL     1      -5.097   2.828 -24.080  0.00  0.00    +0.000 A 
ATOM     21  C   UNL     1      -4.708   1.480 -24.248  0.00  0.00    +0.000 A 
ATOM     22  C   UNL     1      -3.615   1.104 -25.197  0.00  0.00    +0.000 C 
ENDBRANCH  14  15
ENDBRANCH  12  13
BRANCH  12  23
ATOM     23  C   UNL     1      -5.397  -4.450 -23.799  0.00  0.00    +0.000 C 
ATOM     24  C   UNL     1      -6.304  -5.640 -24.136  0.00  0.00    +0.000 C 
ENDBRANCH  12  23
ENDBRANCH   8   9
ENDBRANCH   7   8
ENDBRANCH   2   6
BRANCH   4  25
ATOM     25  C   UNL     1      -0.670   3.047 -19.998  0.00  0.00    +0.000 C 
ATOM     26  O   UNL     1      -0.688   3.800 -19.018  0.00  0.00    +0.000 OA
BRANCH  25  27
ATOM     27  C   UNL     1      -1.625   1.902 -20.096  0.00  0.00    +0.000 C 
ATOM     28  C   UNL     1      -2.705   1.912 -21.174  0.00  0.00    +0.000 C 
BRANCH  27  29
ATOM     29  C   UNL     1      -1.692   0.954 -18.989  0.00  0.00    +0.000 C 
BRANCH  29  30
ATOM     30  C   UNL     1      -1.114  -0.375 -18.898  0.00  0.00    +0.000 C 
ATOM     31  C   UNL     1      -1.995  -1.601 -19.010  0.00  0.00    +0.000 C 
ATOM     32  C   UNL     1       0.277  -0.627 -18.885  0.00  0.00    +0.000 C 
ATOM     33  C   UNL     1       1.652  -0.942 -18.852  0.00  0.00    +0.000 C 
ATOM     34  C   UNL     1       2.566  -0.096 -18.020  0.00  0.00    +0.000 C 
ATOM     35  C   UNL     1       2.126  -1.865 -19.616  0.00  0.00    +0.000 C 
ATOM     36  C   UNL     1       2.631  -2.876 -20.478  0.00  0.00    +0.000 C 
ATOM     37  O   UNL     1       2.538  -2.818 -21.690  0.00  0.00    +0.000 OA
BRANCH  36  38
ATOM     38  O   UNL     1       3.200  -3.909 -19.838  0.00  0.00    +0.000 OA
ATOM     39  H   UNL     1       2.624  -4.063 -19.061  0.00  0.00    +0.000 HD
ENDBRANCH  36  38
ENDBRANCH  29  30
BRANCH  29  40
ATOM     40  O   UNL     1      -2.371   1.398 -17.851  0.00  0.00    +0.000 OA
ATOM     41  H   UNL     1      -3.168   1.919 -18.081  0.00  0.00    +0.000 HD
ENDBRANCH  29  40
ENDBRANCH  27  29
ENDBRANCH  25  27
ENDBRANCH   4  25
TORSDOF 12
ENDMDL
MODEL 2
REMARK VINA RESULT:      -5.0      5.378     10.069
REMARK  Name = Leptomycin.pdbqt.pdb
REMARK  12 active torsions:
REMARK  status: ('A' for Active; 'I' for Inactive)
REMARK    1  A    between atoms: C_2  and  C_4
REMARK    2  A    between atoms: C_5  and  C_6
REMARK    3  A    between atoms: C_6  and  C_7
REMARK    4  A    between atoms: C_10  and  C_11
REMARK    5  A    between atoms: C_10  and  C_21
REMARK    6  A    between atoms: C_12  and  C_13
REMARK    7  A    between atoms: C_23  and  C_25
REMARK    8  A    between atoms: C_25  and  C_27
REMARK    9  A    between atoms: C_27  and  C_29
REMARK   10  A    between atoms: C_29  and  O_30
REMARK   11  A    between atoms: C_29  and  C_32
REMARK   12  A    between atoms: C_38  and  O_40
REMARK                            x       y       z     vdW  Elec       q    Type
REMARK                         _______ _______ _______ _____ _____    ______ ____
ROOT
ATOM      1  C   UNL     1     -10.398   2.731 -23.691  0.00  0.00    +0.000 C 
ATOM      2  C   UNL     1      -9.199   2.252 -23.756  0.00  0.00    +0.000 C 
ATOM      3  C   UNL     1      -8.120   2.894 -22.933  0.00  0.00    +0.000 C 
ATOM      4  C   UNL     1     -11.740   3.184 -23.620  0.00  0.00    +0.000 C 
ATOM      5  C   UNL     1     -12.056   4.405 -24.469  0.00  0.00    +0.000 C 
ENDROOT
BRANCH   2   6
ATOM      6  C   UNL     1      -9.023   0.909 -24.174  0.00  0.00    +0.000 C 
ATOM      7  C   UNL     1      -8.930  -0.243 -24.500  0.00  0.00    +0.000 C 
BRANCH   7   8
ATOM      8  C   UNL     1      -8.921  -1.733 -24.855  0.00  0.00    +0.000 C 
BRANCH   8   9
ATOM      9  C   UNL     1      -8.941  -3.051 -25.374  0.00  0.00    +0.000 C 
ATOM     10  C   UNL     1      -9.834  -3.376 -26.530  0.00  0.00    +0.000 C 
ATOM     11  C   UNL     1      -8.214  -4.095 -24.751  0.00  0.00    +0.000 C 
ATOM     12  C   UNL     1      -7.503  -4.919 -24.044  0.00  0.00    +0.000 C 
BRANCH  12  13
ATOM     13  C   UNL     1      -6.930  -4.377 -22.862  0.00  0.00    +0.000 C 
ATOM     14  C   UNL     1      -6.574  -3.888 -21.824  0.00  0.00    +0.000 C 
BRANCH  14  15
ATOM     15  C   UNL     1      -6.288  -3.293 -20.568  0.00  0.00    +0.000 A 
ATOM     16  O   UNL     1      -4.894  -2.940 -20.318  0.00  0.00    +0.000 OA
ATOM     17  C   UNL     1      -4.487  -2.321 -19.140  0.00  0.00    +0.000 A 
ATOM     18  O   UNL     1      -3.341  -1.973 -18.897  0.00  0.00    +0.000 OA
ATOM     19  C   UNL     1      -5.585  -2.113 -18.243  0.00  0.00    +0.000 A 
ATOM     20  C   UNL     1      -6.736  -2.388 -18.397  0.00  0.00    +0.000 A 
ATOM     21  C   UNL     1      -7.294  -3.003 -19.540  0.00  0.00    +0.000 A 
ATOM     22  C   UNL     1      -8.765  -3.257 -19.641  0.00  0.00    +0.000 C 
ENDBRANCH  14  15
ENDBRANCH  12  13
BRANCH  12  23
ATOM     23  C   UNL     1      -7.368  -6.263 -24.472  0.00  0.00    +0.000 C 
ATOM     24  C   UNL     1      -7.216  -7.715 -24.940  0.00  0.00    +0.000 C 
ENDBRANCH  12  23
ENDBRANCH   8   9
ENDBRANCH   7   8
ENDBRANCH   2   6
BRANCH   4  25
ATOM     25  C   UNL     1     -12.813   2.217 -23.229  0.00  0.00    +0.000 C 
ATOM     26  O   UNL     1     -13.473   1.590 -24.065  0.00  0.00    +0.000 OA
BRANCH  25  27
ATOM     27  C   UNL     1     -13.102   2.077 -21.770  0.00  0.00    +0.000 C 
ATOM     28  C   UNL     1     -14.259   2.860 -21.153  0.00  0.00    +0.000 C 
BRANCH  27  29
ATOM     29  C   UNL     1     -12.105   1.436 -20.919  0.00  0.00    +0.000 C 
BRANCH  29  30
ATOM     30  C   UNL     1     -11.235   0.316 -21.231  0.00  0.00    +0.000 C 
ATOM     31  C   UNL     1      -9.875   0.199 -20.577  0.00  0.00    +0.000 C 
ATOM     32  C   UNL     1     -11.639  -0.805 -21.993  0.00  0.00    +0.000 C 
ATOM     33  C   UNL     1     -11.978  -1.940 -22.758  0.00  0.00    +0.000 C 
ATOM     34  C   UNL     1     -12.785  -1.755 -24.006  0.00  0.00    +0.000 C 
ATOM     35  C   UNL     1     -11.699  -3.122 -22.327  0.00  0.00    +0.000 C 
ATOM     36  C   UNL     1     -11.396  -4.417 -21.825  0.00  0.00    +0.000 C 
ATOM     37  O   UNL     1     -11.832  -4.835 -20.768  0.00  0.00    +0.000 OA
BRANCH  36  38
ATOM     38  O   UNL     1     -10.571  -5.129 -22.608  0.00  0.00    +0.000 OA
ATOM     39  H   UNL     1     -10.999  -5.119 -23.489  0.00  0.00    +0.000 HD
ENDBRANCH  36  38
ENDBRANCH  29  30
BRANCH  29  40
ATOM     40  O   UNL     1     -11.940   1.997 -19.651  0.00  0.00    +0.000 OA
ATOM     41  H   UNL     1     -11.492   1.382 -19.034  0.00  0.00    +0.000 HD
ENDBRANCH  29  40
ENDBRANCH  27  29
ENDBRANCH  25  27
ENDBRANCH   4  25
TORSDOF 12
ENDMDL
MODEL 3
REMARK VINA RESULT:      -4.7     18.045     22.116
REMARK  Name = Leptomycin.pdbqt.pdb
REMARK  12 active torsions:
REMARK  status: ('A' for Active; 'I' for Inactive)
REMARK    1  A    between atoms: C_2  and  C_4
REMARK    2  A    between atoms: C_5  and  C_6
REMARK    3  A    between atoms: C_6  and  C_7
REMARK    4  A    between atoms: C_10  and  C_11
REMARK    5  A    between atoms: C_10  and  C_21
REMARK    6  A    between atoms: C_12  and  C_13
REMARK    7  A    between atoms: C_23  and  C_25
REMARK    8  A    between atoms: C_25  and  C_27
REMARK    9  A    between atoms: C_27  and  C_29
REMARK   10  A    between atoms: C_29  and  O_30
REMARK   11  A    between atoms: C_29  and  C_32
REMARK   12  A    between atoms: C_38  and  O_40
REMARK                            x       y       z     vdW  Elec       q    Type
REMARK                         _______ _______ _______ _____ _____    ______ ____
ROOT
ATOM      1  C   UNL     1       3.117 -22.109 -11.407  0.00  0.00    +0.000 C 
ATOM      2  C   UNL     1       3.626 -21.887 -12.575  0.00  0.00    +0.000 C 
ATOM      3  C   UNL     1       4.619 -22.868 -13.127  0.00  0.00    +0.000 C 
ATOM      4  C   UNL     1       2.491 -22.328 -10.154  0.00  0.00    +0.000 C 
ATOM      5  C   UNL     1       3.311 -21.918  -8.941  0.00  0.00    +0.000 C 
ENDROOT
BRANCH   2   6
ATOM      6  C   UNL     1       2.918 -21.058 -13.481  0.00  0.00    +0.000 C 
ATOM      7  C   UNL     1       2.356 -20.379 -14.297  0.00  0.00    +0.000 C 
BRANCH   7   8
ATOM      8  C   UNL     1       1.718 -19.561 -15.424  0.00  0.00    +0.000 C 
BRANCH   8   9
ATOM      9  C   UNL     1       1.305 -18.823 -16.560  0.00  0.00    +0.000 C 
ATOM     10  C   UNL     1       0.659 -19.535 -17.708  0.00  0.00    +0.000 C 
ATOM     11  C   UNL     1       1.589 -17.441 -16.681  0.00  0.00    +0.000 C 
ATOM     12  C   UNL     1       1.949 -16.195 -16.622  0.00  0.00    +0.000 C 
BRANCH  12  13
ATOM     13  C   UNL     1       2.749 -15.838 -15.503  0.00  0.00    +0.000 C 
ATOM     14  C   UNL     1       3.474 -15.665 -14.561  0.00  0.00    +0.000 C 
BRANCH  14  15
ATOM     15  C   UNL     1       4.376 -15.590 -13.469  0.00  0.00    +0.000 A 
ATOM     16  O   UNL     1       5.698 -16.172 -13.677  0.00  0.00    +0.000 OA
ATOM     17  C   UNL     1       6.687 -16.134 -12.697  0.00  0.00    +0.000 A 
ATOM     18  O   UNL     1       7.818 -16.573 -12.832  0.00  0.00    +0.000 OA
ATOM     19  C   UNL     1       6.225 -15.490 -11.502  0.00  0.00    +0.000 A 
ATOM     20  C   UNL     1       5.156 -15.005 -11.282  0.00  0.00    +0.000 A 
ATOM     21  C   UNL     1       4.067 -14.959 -12.181  0.00  0.00    +0.000 A 
ATOM     22  C   UNL     1       2.787 -14.281 -11.809  0.00  0.00    +0.000 C 
ENDBRANCH  14  15
ENDBRANCH  12  13
BRANCH  12  23
ATOM     23  C   UNL     1       1.551 -15.310 -17.654  0.00  0.00    +0.000 C 
ATOM     24  C   UNL     1       1.128 -14.351 -18.773  0.00  0.00    +0.000 C 
ENDBRANCH  12  23
ENDBRANCH   8   9
ENDBRANCH   7   8
ENDBRANCH   2   6
BRANCH   4  25
ATOM     25  C   UNL     1       0.997 -22.391 -10.090  0.00  0.00    +0.000 C 
ATOM     26  O   UNL     1       0.382 -23.462 -10.071  0.00  0.00    +0.000 OA
BRANCH  25  27
ATOM     27  C   UNL     1       0.261 -21.091 -10.110  0.00  0.00    +0.000 C 
ATOM     28  C   UNL     1      -0.073 -20.435 -11.448  0.00  0.00    +0.000 C 
BRANCH  27  29
ATOM     29  C   UNL     1       0.140 -20.338  -8.866  0.00  0.00    +0.000 C 
BRANCH  29  30
ATOM     30  C   UNL     1       0.903 -19.184  -8.428  0.00  0.00    +0.000 C 
ATOM     31  C   UNL     1       0.550 -18.478  -7.137  0.00  0.00    +0.000 C 
ATOM     32  C   UNL     1       2.100 -18.753  -9.046  0.00  0.00    +0.000 C 
ATOM     33  C   UNL     1       3.290 -18.267  -9.628  0.00  0.00    +0.000 C 
ATOM     34  C   UNL     1       3.397 -18.223 -11.121  0.00  0.00    +0.000 C 
ATOM     35  C   UNL     1       4.305 -17.978  -8.888  0.00  0.00    +0.000 C 
ATOM     36  C   UNL     1       5.418 -17.681  -8.055  0.00  0.00    +0.000 C 
ATOM     37  O   UNL     1       5.950 -18.512  -7.342  0.00  0.00    +0.000 OA
BRANCH  36  38
ATOM     38  O   UNL     1       5.817 -16.401  -8.109  0.00  0.00    +0.000 OA
ATOM     39  H   UNL     1       5.001 -15.883  -7.948  0.00  0.00    +0.000 HD
ENDBRANCH  36  38
ENDBRANCH  29  30
BRANCH  29  40
ATOM     40  O   UNL     1      -0.869 -20.762  -7.998  0.00  0.00    +0.000 OA
ATOM     41  H   UNL     1      -1.229 -21.637  -8.253  0.00  0.00    +0.000 HD
ENDBRANCH  29  40
ENDBRANCH  27  29
ENDBRANCH  25  27
ENDBRANCH   4  25
TORSDOF 12
ENDMDL
MODEL 4
REMARK VINA RESULT:      -4.5     10.121     13.879
REMARK  Name = Leptomycin.pdbqt.pdb
REMARK  12 active torsions:
REMARK  status: ('A' for Active; 'I' for Inactive)
REMARK    1  A    between atoms: C_2  and  C_4
REMARK    2  A    between atoms: C_5  and  C_6
REMARK    3  A    between atoms: C_6  and  C_7
REMARK    4  A    between atoms: C_10  and  C_11
REMARK    5  A    between atoms: C_10  and  C_21
REMARK    6  A    between atoms: C_12  and  C_13
REMARK    7  A    between atoms: C_23  and  C_25
REMARK    8  A    between atoms: C_25  and  C_27
REMARK    9  A    between atoms: C_27  and  C_29
REMARK   10  A    between atoms: C_29  and  O_30
REMARK   11  A    between atoms: C_29  and  C_32
REMARK   12  A    between atoms: C_38  and  O_40
REMARK                            x       y       z     vdW  Elec       q    Type
REMARK                         _______ _______ _______ _____ _____    ______ ____
ROOT
ATOM      1  C   UNL     1      12.581  -3.564 -20.815  0.00  0.00    +0.000 C 
ATOM      2  C   UNL     1      13.088  -2.994 -21.860  0.00  0.00    +0.000 C 
ATOM      3  C   UNL     1      14.252  -3.650 -22.545  0.00  0.00    +0.000 C 
ATOM      4  C   UNL     1      11.955  -4.170 -19.697  0.00  0.00    +0.000 C 
ATOM      5  C   UNL     1      12.650  -3.940 -18.364  0.00  0.00    +0.000 C 
ENDROOT
BRANCH   2   6
ATOM      6  C   UNL     1      12.286  -2.092 -22.602  0.00  0.00    +0.000 C 
ATOM      7  C   UNL     1      11.649  -1.332 -23.280  0.00  0.00    +0.000 C 
BRANCH   7   8
ATOM      8  C   UNL     1      10.927  -0.374 -24.232  0.00  0.00    +0.000 C 
BRANCH   8   9
ATOM      9  C   UNL     1      10.275   0.648 -24.965  0.00  0.00    +0.000 C 
ATOM     10  C   UNL     1      10.078   0.487 -26.440  0.00  0.00    +0.000 C 
ATOM     11  C   UNL     1       9.903   1.868 -24.350  0.00  0.00    +0.000 C 
ATOM     12  C   UNL     1       9.652   2.916 -23.627  0.00  0.00    +0.000 C 
BRANCH  12  13
ATOM     13  C   UNL     1      10.148   2.878 -22.296  0.00  0.00    +0.000 C 
ATOM     14  C   UNL     1      10.592   2.712 -21.193  0.00  0.00    +0.000 C 
BRANCH  14  15
ATOM     15  C   UNL     1      11.144   2.385 -19.927  0.00  0.00    +0.000 A 
ATOM     16  O   UNL     1      10.391   2.825 -18.757  0.00  0.00    +0.000 OA
ATOM     17  C   UNL     1      10.806   2.539 -17.459  0.00  0.00    +0.000 A 
ATOM     18  O   UNL     1      10.196   2.853 -16.448  0.00  0.00    +0.000 OA
ATOM     19  C   UNL     1      12.037   1.805 -17.445  0.00  0.00    +0.000 A 
ATOM     20  C   UNL     1      12.691   1.429 -18.370  0.00  0.00    +0.000 A 
ATOM     21  C   UNL     1      12.389   1.633 -19.735  0.00  0.00    +0.000 A 
ATOM     22  C   UNL     1      13.262   1.071 -20.812  0.00  0.00    +0.000 C 
ENDBRANCH  14  15
ENDBRANCH  12  13
BRANCH  12  23
ATOM     23  C   UNL     1       8.942   4.000 -24.200  0.00  0.00    +0.000 C 
ATOM     24  C   UNL     1       8.169   5.168 -24.824  0.00  0.00    +0.000 C 
ENDBRANCH  12  23
ENDBRANCH   8   9
ENDBRANCH   7   8
ENDBRANCH   2   6
BRANCH   4  25
ATOM     25  C   UNL     1      10.492  -4.475 -19.762  0.00  0.00    +0.000 C 
ATOM     26  O   UNL     1       9.772  -4.476 -18.758  0.00  0.00    +0.000 OA
BRANCH  25  27
ATOM     27  C   UNL     1       9.934  -4.844 -21.098  0.00  0.00    +0.000 C 
ATOM     28  C   UNL     1      10.722  -5.780 -22.012  0.00  0.00    +0.000 C 
BRANCH  27  29
ATOM     29  C   UNL     1       8.806  -4.078 -21.619  0.00  0.00    +0.000 C 
BRANCH  29  30
ATOM     30  C   UNL     1       8.654  -2.637 -21.707  0.00  0.00    +0.000 C 
ATOM     31  C   UNL     1       8.084  -2.003 -22.958  0.00  0.00    +0.000 C 
ATOM     32  C   UNL     1       8.842  -1.759 -20.614  0.00  0.00    +0.000 C 
ATOM     33  C   UNL     1       9.030  -0.832 -19.568  0.00  0.00    +0.000 C 
ATOM     34  C   UNL     1      10.193  -1.014 -18.643  0.00  0.00    +0.000 C 
ATOM     35  C   UNL     1       8.150   0.082 -19.344  0.00  0.00    +0.000 C 
ATOM     36  C   UNL     1       7.159   1.073 -19.103  0.00  0.00    +0.000 C 
ATOM     37  O   UNL     1       6.004   0.801 -18.833  0.00  0.00    +0.000 OA
BRANCH  36  38
ATOM     38  O   UNL     1       7.604   2.334 -19.221  0.00  0.00    +0.000 OA
ATOM     39  H   UNL     1       6.843   2.829 -19.590  0.00  0.00    +0.000 HD
ENDBRANCH  36  38
ENDBRANCH  29  30
BRANCH  29  40
ATOM     40  O   UNL     1       7.749  -4.832 -22.134  0.00  0.00    +0.000 OA
ATOM     41  H   UNL     1       7.780  -4.885 -23.112  0.00  0.00    +0.000 HD
ENDBRANCH  29  40
ENDBRANCH  27  29
ENDBRANCH  25  27
ENDBRANCH   4  25
TORSDOF 12
ENDMDL
MODEL 5
REMARK VINA RESULT:      -4.5     21.872     24.572
REMARK  Name = Leptomycin.pdbqt.pdb
REMARK  12 active torsions:
REMARK  status: ('A' for Active; 'I' for Inactive)
REMARK    1  A    between atoms: C_2  and  C_4
REMARK    2  A    between atoms: C_5  and  C_6
REMARK    3  A    between atoms: C_6  and  C_7
REMARK    4  A    between atoms: C_10  and  C_11
REMARK    5  A    between atoms: C_10  and  C_21
REMARK    6  A    between atoms: C_12  and  C_13
REMARK    7  A    between atoms: C_23  and  C_25
REMARK    8  A    between atoms: C_25  and  C_27
REMARK    9  A    between atoms: C_27  and  C_29
REMARK   10  A    between atoms: C_29  and  O_30
REMARK   11  A    between atoms: C_29  and  C_32
REMARK   12  A    between atoms: C_38  and  O_40
REMARK                            x       y       z     vdW  Elec       q    Type
REMARK                         _______ _______ _______ _____ _____    ______ ____
ROOT
ATOM      1  C   UNL     1       0.665   2.251   4.197  0.00  0.00    +0.000 C 
ATOM      2  C   UNL     1      -0.613   2.084   4.308  0.00  0.00    +0.000 C 
ATOM      3  C   UNL     1      -1.391   3.033   5.173  0.00  0.00    +0.000 C 
ATOM      4  C   UNL     1       2.059   2.416   3.999  0.00  0.00    +0.000 C 
ATOM      5  C   UNL     1       2.940   1.859   5.107  0.00  0.00    +0.000 C 
ENDROOT
BRANCH   2   6
ATOM      6  C   UNL     1      -1.300   1.378   3.290  0.00  0.00    +0.000 C 
ATOM      7  C   UNL     1      -1.881   0.726   2.465  0.00  0.00    +0.000 C 
BRANCH   7   8
ATOM      8  C   UNL     1      -2.608  -0.204   1.489  0.00  0.00    +0.000 C 
BRANCH   8   9
ATOM      9  C   UNL     1      -3.446  -0.957   0.631  0.00  0.00    +0.000 C 
ATOM     10  C   UNL     1      -2.834  -1.893  -0.364  0.00  0.00    +0.000 C 
ATOM     11  C   UNL     1      -4.849  -0.763   0.619  0.00  0.00    +0.000 C 
ATOM     12  C   UNL     1      -6.101  -0.440   0.738  0.00  0.00    +0.000 C 
BRANCH  12  13
ATOM     13  C   UNL     1      -6.375   0.645   1.613  0.00  0.00    +0.000 C 
ATOM     14  C   UNL     1      -6.523   1.637   2.274  0.00  0.00    +0.000 C 
BRANCH  14  15
ATOM     15  C   UNL     1      -6.619   2.873   2.963  0.00  0.00    +0.000 A 
ATOM     16  O   UNL     1      -6.686   4.074   2.137  0.00  0.00    +0.000 OA
ATOM     17  C   UNL     1      -6.815   5.346   2.688  0.00  0.00    +0.000 A 
ATOM     18  O   UNL     1      -6.911   6.378   2.041  0.00  0.00    +0.000 OA
ATOM     19  C   UNL     1      -6.846   5.303   4.120  0.00  0.00    +0.000 A 
ATOM     20  C   UNL     1      -6.788   4.352   4.839  0.00  0.00    +0.000 A 
ATOM     21  C   UNL     1      -6.670   3.007   4.423  0.00  0.00    +0.000 A 
ATOM     22  C   UNL     1      -6.655   1.889   5.418  0.00  0.00    +0.000 C 
ENDBRANCH  14  15
ENDBRANCH  12  13
BRANCH  12  23
ATOM     23  C   UNL     1      -7.074  -1.152  -0.007  0.00  0.00    +0.000 C 
ATOM     24  C   UNL     1      -8.121  -1.924  -0.818  0.00  0.00    +0.000 C 
ENDBRANCH  12  23
ENDBRANCH   8   9
ENDBRANCH   7   8
ENDBRANCH   2   6
BRANCH   4  25
ATOM     25  C   UNL     1       2.580   2.578   2.606  0.00  0.00    +0.000 C 
ATOM     26  O   UNL     1       1.868   2.408   1.611  0.00  0.00    +0.000 OA
BRANCH  25  27
ATOM     27  C   UNL     1       4.032   2.900   2.458  0.00  0.00    +0.000 C 
ATOM     28  C   UNL     1       4.643   4.027   3.287  0.00  0.00    +0.000 C 
BRANCH  27  29
ATOM     29  C   UNL     1       4.758   2.337   1.324  0.00  0.00    +0.000 C 
BRANCH  29  30
ATOM     30  C   UNL     1       5.789   2.958   0.511  0.00  0.00    +0.000 C 
ATOM     31  C   UNL     1       5.414   3.931  -0.587  0.00  0.00    +0.000 C 
ATOM     32  C   UNL     1       7.172   2.854   0.782  0.00  0.00    +0.000 C 
ATOM     33  C   UNL     1       8.565   2.776   0.992  0.00  0.00    +0.000 C 
ATOM     34  C   UNL     1       9.163   1.460   1.385  0.00  0.00    +0.000 C 
ATOM     35  C   UNL     1       9.288   3.842   0.961  0.00  0.00    +0.000 C 
ATOM     36  C   UNL     1      10.065   5.033   0.939  0.00  0.00    +0.000 C 
ATOM     37  O   UNL     1       9.870   5.964   1.698  0.00  0.00    +0.000 OA
BRANCH  36  38
ATOM     38  O   UNL     1      11.019   5.047  -0.005  0.00  0.00    +0.000 OA
ATOM     39  H   UNL     1      11.009   4.141  -0.378  0.00  0.00    +0.000 HD
ENDBRANCH  36  38
ENDBRANCH  29  30
BRANCH  29  40
ATOM     40  O   UNL     1       4.448   1.013   1.003  0.00  0.00    +0.000 OA
ATOM     41  H   UNL     1       5.241   0.438   1.014  0.00  0.00    +0.000 HD
ENDBRANCH  29  40
ENDBRANCH  27  29
ENDBRANCH  25  27
ENDBRANCH   4  25
TORSDOF 12
ENDMDL
MODEL 6
REMARK VINA RESULT:      -4.5     17.696     22.372
REMARK  Name = Leptomycin.pdbqt.pdb
REMARK  12 active torsions:
REMARK  status: ('A' for Active; 'I' for Inactive)
REMARK    1  A    between atoms: C_2  and  C_4
REMARK    2  A    between atoms: C_5  and  C_6
REMARK    3  A    between atoms: C_6  and  C_7
REMARK    4  A    between atoms: C_10  and  C_11
REMARK    5  A    between atoms: C_10  and  C_21
REMARK    6  A    between atoms: C_12  and  C_13
REMARK    7  A    between atoms: C_23  and  C_25
REMARK    8  A    between atoms: C_25  and  C_27
REMARK    9  A    between atoms: C_27  and  C_29
REMARK   10  A    between atoms: C_29  and  O_30
REMARK   11  A    between atoms: C_29  and  C_32
REMARK   12  A    between atoms: C_38  and  O_40
REMARK                            x       y       z     vdW  Elec       q    Type
REMARK                         _______ _______ _______ _____ _____    ______ ____
ROOT
ATOM      1  C   UNL     1      14.030  15.762 -11.367  0.00  0.00    +0.000 C 
ATOM      2  C   UNL     1      15.080  15.579 -12.101  0.00  0.00    +0.000 C 
ATOM      3  C   UNL     1      16.323  15.036 -11.457  0.00  0.00    +0.000 C 
ATOM      4  C   UNL     1      12.837  15.935 -10.622  0.00  0.00    +0.000 C 
ATOM      5  C   UNL     1      12.766  17.214  -9.802  0.00  0.00    +0.000 C 
ENDROOT
BRANCH   2   6
ATOM      6  C   UNL     1      14.916  15.419 -13.499  0.00  0.00    +0.000 C 
ATOM      7  C   UNL     1      14.722  15.318 -14.680  0.00  0.00    +0.000 C 
BRANCH   7   8
ATOM      8  C   UNL     1      14.369  15.257 -16.169  0.00  0.00    +0.000 C 
BRANCH   8   9
ATOM      9  C   UNL     1      14.233  15.137 -17.574  0.00  0.00    +0.000 C 
ATOM     10  C   UNL     1      13.636  16.265 -18.357  0.00  0.00    +0.000 C 
ATOM     11  C   UNL     1      14.547  13.928 -18.241  0.00  0.00    +0.000 C 
ATOM     12  C   UNL     1      14.868  12.746 -18.673  0.00  0.00    +0.000 C 
BRANCH  12  13
ATOM     13  C   UNL     1      15.197  11.794 -17.671  0.00  0.00    +0.000 C 
ATOM     14  C   UNL     1      15.491  11.096 -16.739  0.00  0.00    +0.000 C 
BRANCH  14  15
ATOM     15  C   UNL     1      15.843  10.387 -15.561  0.00  0.00    +0.000 A 
ATOM     16  O   UNL     1      17.188  10.614 -15.043  0.00  0.00    +0.000 OA
ATOM     17  C   UNL     1      17.645  10.006 -13.877  0.00  0.00    +0.000 A 
ATOM     18  O   UNL     1      18.747  10.190 -13.382  0.00  0.00    +0.000 OA
ATOM     19  C   UNL     1      16.653   9.146 -13.303  0.00  0.00    +0.000 A 
ATOM     20  C   UNL     1      15.546   8.923 -13.691  0.00  0.00    +0.000 A 
ATOM     21  C   UNL     1      14.945   9.475 -14.844  0.00  0.00    +0.000 A 
ATOM     22  C   UNL     1      13.529   9.157 -15.205  0.00  0.00    +0.000 C 
ENDBRANCH  14  15
ENDBRANCH  12  13
BRANCH  12  23
ATOM     23  C   UNL     1      14.848  12.488 -20.066  0.00  0.00    +0.000 C 
ATOM     24  C   UNL     1      14.821  12.215 -21.574  0.00  0.00    +0.000 C 
ENDBRANCH  12  23
ENDBRANCH   8   9
ENDBRANCH   7   8
ENDBRANCH   2   6
BRANCH   4  25
ATOM     25  C   UNL     1      11.593  15.237 -11.072  0.00  0.00    +0.000 C 
ATOM     26  O   UNL     1      10.872  14.604 -10.294  0.00  0.00    +0.000 OA
BRANCH  25  27
ATOM     27  C   UNL     1      11.279  15.283 -12.532  0.00  0.00    +0.000 C 
ATOM     28  C   UNL     1      11.033  16.630 -13.208  0.00  0.00    +0.000 C 
BRANCH  27  29
ATOM     29  C   UNL     1      10.926  14.040 -13.210  0.00  0.00    +0.000 C 
BRANCH  29  30
ATOM     30  C   UNL     1      11.708  13.275 -14.165  0.00  0.00    +0.000 C 
ATOM     31  C   UNL     1      12.811  12.355 -13.687  0.00  0.00    +0.000 C 
ATOM     32  C   UNL     1      11.400  13.188 -15.542  0.00  0.00    +0.000 C 
ATOM     33  C   UNL     1      11.152  13.074 -16.926  0.00  0.00    +0.000 C 
ATOM     34  C   UNL     1      10.749  14.297 -17.690  0.00  0.00    +0.000 C 
ATOM     35  C   UNL     1      11.159  11.918 -17.495  0.00  0.00    +0.000 C 
ATOM     36  C   UNL     1      11.155  10.630 -18.099  0.00  0.00    +0.000 C 
ATOM     37  O   UNL     1      10.398   9.742 -17.756  0.00  0.00    +0.000 OA
BRANCH  36  38
ATOM     38  O   UNL     1      12.074  10.476 -19.065  0.00  0.00    +0.000 OA
ATOM     39  H   UNL     1      12.813  11.059 -18.796  0.00  0.00    +0.000 HD
ENDBRANCH  36  38
ENDBRANCH  29  30
BRANCH  29  40
ATOM     40  O   UNL     1       9.687  13.493 -12.866  0.00  0.00    +0.000 OA
ATOM     41  H   UNL     1       9.404  13.764 -11.968  0.00  0.00    +0.000 HD
ENDBRANCH  29  40
ENDBRANCH  27  29
ENDBRANCH  25  27
ENDBRANCH   4  25
TORSDOF 12
ENDMDL
MODEL 7
REMARK VINA RESULT:      -4.4     17.088     21.770
REMARK  Name = Leptomycin.pdbqt.pdb
REMARK  12 active torsions:
REMARK  status: ('A' for Active; 'I' for Inactive)
REMARK    1  A    between atoms: C_2  and  C_4
REMARK    2  A    between atoms: C_5  and  C_6
REMARK    3  A    between atoms: C_6  and  C_7
REMARK    4  A    between atoms: C_10  and  C_11
REMARK    5  A    between atoms: C_10  and  C_21
REMARK    6  A    between atoms: C_12  and  C_13
REMARK    7  A    between atoms: C_23  and  C_25
REMARK    8  A    between atoms: C_25  and  C_27
REMARK    9  A    between atoms: C_27  and  C_29
REMARK   10  A    between atoms: C_29  and  O_30
REMARK   11  A    between atoms: C_29  and  C_32
REMARK   12  A    between atoms: C_38  and  O_40
REMARK                            x       y       z     vdW  Elec       q    Type
REMARK                         _______ _______ _______ _____ _____    ______ ____
ROOT
ATOM      1  C   UNL     1      14.004  10.877 -13.659  0.00  0.00    +0.000 C 
ATOM      2  C   UNL     1      14.471  10.134 -14.610  0.00  0.00    +0.000 C 
ATOM      3  C   UNL     1      13.657   8.961 -15.073  0.00  0.00    +0.000 C 
ATOM      4  C   UNL     1      13.519  11.752 -12.655  0.00  0.00    +0.000 C 
ATOM      5  C   UNL     1      13.715  11.270 -11.227  0.00  0.00    +0.000 C 
ENDROOT
BRANCH   2   6
ATOM      6  C   UNL     1      15.432  10.682 -15.494  0.00  0.00    +0.000 C 
ATOM      7  C   UNL     1      16.294  11.133 -16.201  0.00  0.00    +0.000 C 
BRANCH   7   8
ATOM      8  C   UNL     1      17.474  11.678 -17.010  0.00  0.00    +0.000 C 
BRANCH   8   9
ATOM      9  C   UNL     1      18.664  12.191 -17.582  0.00  0.00    +0.000 C 
ATOM     10  C   UNL     1      19.930  12.186 -16.783  0.00  0.00    +0.000 C 
ATOM     11  C   UNL     1      18.657  12.811 -18.856  0.00  0.00    +0.000 C 
ATOM     12  C   UNL     1      18.456  13.352 -20.019  0.00  0.00    +0.000 C 
BRANCH  12  13
ATOM     13  C   UNL     1      17.101  13.410 -20.444  0.00  0.00    +0.000 C 
ATOM     14  C   UNL     1      15.979  13.339 -20.866  0.00  0.00    +0.000 C 
BRANCH  14  15
ATOM     15  C   UNL     1      14.689  13.131 -21.417  0.00  0.00    +0.000 A 
ATOM     16  O   UNL     1      14.536  11.980 -22.301  0.00  0.00    +0.000 OA
ATOM     17  C   UNL     1      13.314  11.646 -22.879  0.00  0.00    +0.000 A 
ATOM     18  O   UNL     1      13.125  10.675 -23.595  0.00  0.00    +0.000 OA
ATOM     19  C   UNL     1      12.284  12.573 -22.513  0.00  0.00    +0.000 A 
ATOM     20  C   UNL     1      12.359  13.529 -21.802  0.00  0.00    +0.000 A 
ATOM     21  C   UNL     1      13.523  13.979 -21.140  0.00  0.00    +0.000 A 
ATOM     22  C   UNL     1      13.486  15.168 -20.233  0.00  0.00    +0.000 C 
ENDBRANCH  14  15
ENDBRANCH  12  13
BRANCH  12  23
ATOM     23  C   UNL     1      19.561  13.852 -20.751  0.00  0.00    +0.000 C 
ATOM     24  C   UNL     1      20.761  14.394 -21.536  0.00  0.00    +0.000 C 
ENDBRANCH  12  23
ENDBRANCH   8   9
ENDBRANCH   7   8
ENDBRANCH   2   6
BRANCH   4  25
ATOM     25  C   UNL     1      13.386  13.210 -12.967  0.00  0.00    +0.000 C 
ATOM     26  O   UNL     1      12.847  14.004 -12.190  0.00  0.00    +0.000 OA
BRANCH  25  27
ATOM     27  C   UNL     1      13.883  13.667 -14.299  0.00  0.00    +0.000 C 
ATOM     28  C   UNL     1      15.273  14.289 -14.412  0.00  0.00    +0.000 C 
BRANCH  27  29
ATOM     29  C   UNL     1      12.929  13.782 -15.398  0.00  0.00    +0.000 C 
BRANCH  29  30
ATOM     30  C   UNL     1      11.971  12.800 -15.872  0.00  0.00    +0.000 C 
ATOM     31  C   UNL     1      10.646  12.620 -15.162  0.00  0.00    +0.000 C 
ATOM     32  C   UNL     1      12.109  12.090 -17.087  0.00  0.00    +0.000 C 
ATOM     33  C   UNL     1      12.197  11.342 -18.280  0.00  0.00    +0.000 C 
ATOM     34  C   UNL     1      13.524  10.770 -18.676  0.00  0.00    +0.000 C 
ATOM     35  C   UNL     1      11.183  11.254 -19.069  0.00  0.00    +0.000 C 
ATOM     36  C   UNL     1      10.057  11.184 -19.934  0.00  0.00    +0.000 C 
ATOM     37  O   UNL     1       9.545  12.169 -20.434  0.00  0.00    +0.000 OA
BRANCH  36  38
ATOM     38  O   UNL     1       9.596   9.940 -20.134  0.00  0.00    +0.000 OA
ATOM     39  H   UNL     1       9.798   9.467 -19.300  0.00  0.00    +0.000 HD
ENDBRANCH  36  38
ENDBRANCH  29  30
BRANCH  29  40
ATOM     40  O   UNL     1      12.910  15.014 -16.057  0.00  0.00    +0.000 OA
ATOM     41  H   UNL     1      13.508  15.665 -15.634  0.00  0.00    +0.000 HD
ENDBRANCH  29  40
ENDBRANCH  27  29
ENDBRANCH  25  27
ENDBRANCH   4  25
TORSDOF 12
ENDMDL
MODEL 8
REMARK VINA RESULT:      -4.2      8.789     13.140
REMARK  Name = Leptomycin.pdbqt.pdb
REMARK  12 active torsions:
REMARK  status: ('A' for Active; 'I' for Inactive)
REMARK    1  A    between atoms: C_2  and  C_4
REMARK    2  A    between atoms: C_5  and  C_6
REMARK    3  A    between atoms: C_6  and  C_7
REMARK    4  A    between atoms: C_10  and  C_11
REMARK    5  A    between atoms: C_10  and  C_21
REMARK    6  A    between atoms: C_12  and  C_13
REMARK    7  A    between atoms: C_23  and  C_25
REMARK    8  A    between atoms: C_25  and  C_27
REMARK    9  A    between atoms: C_27  and  C_29
REMARK   10  A    between atoms: C_29  and  O_30
REMARK   11  A    between atoms: C_29  and  C_32
REMARK   12  A    between atoms: C_38  and  O_40
REMARK                            x       y       z     vdW  Elec       q    Type
REMARK                         _______ _______ _______ _____ _____    ______ ____
ROOT
ATOM      1  C   UNL     1      12.430  -5.188 -21.165  0.00  0.00    +0.000 C 
ATOM      2  C   UNL     1      11.869  -5.109 -22.327  0.00  0.00    +0.000 C 
ATOM      3  C   UNL     1      10.922  -6.196 -22.746  0.00  0.00    +0.000 C 
ATOM      4  C   UNL     1      13.034  -5.199 -19.882  0.00  0.00    +0.000 C 
ATOM      5  C   UNL     1      14.264  -6.084 -19.754  0.00  0.00    +0.000 C 
ENDROOT
BRANCH   2   6
ATOM      6  C   UNL     1      11.758  -3.839 -22.946  0.00  0.00    +0.000 C 
ATOM      7  C   UNL     1      11.700  -2.738 -23.422  0.00  0.00    +0.000 C 
BRANCH   7   8
ATOM      8  C   UNL     1      11.692  -1.293 -23.930  0.00  0.00    +0.000 C 
BRANCH   8   9
ATOM      9  C   UNL     1      11.632   0.094 -24.212  0.00  0.00    +0.000 C 
ATOM     10  C   UNL     1      12.844   0.792 -24.746  0.00  0.00    +0.000 C 
ATOM     11  C   UNL     1      10.483   0.859 -23.895  0.00  0.00    +0.000 C 
ATOM     12  C   UNL     1       9.359   1.393 -23.524  0.00  0.00    +0.000 C 
BRANCH  12  13
ATOM     13  C   UNL     1       8.464   0.529 -22.839  0.00  0.00    +0.000 C 
ATOM     14  C   UNL     1       7.812  -0.233 -22.178  0.00  0.00    +0.000 C 
BRANCH  14  15
ATOM     15  C   UNL     1       7.154  -1.149 -21.317  0.00  0.00    +0.000 A 
ATOM     16  O   UNL     1       6.177  -0.585 -20.393  0.00  0.00    +0.000 OA
ATOM     17  C   UNL     1       5.439  -1.379 -19.519  0.00  0.00    +0.000 A 
ATOM     18  O   UNL     1       4.585  -0.962 -18.752  0.00  0.00    +0.000 OA
ATOM     19  C   UNL     1       5.785  -2.765 -19.641  0.00  0.00    +0.000 A 
ATOM     20  C   UNL     1       6.578  -3.273 -20.374  0.00  0.00    +0.000 A 
ATOM     21  C   UNL     1       7.385  -2.598 -21.318  0.00  0.00    +0.000 A 
ATOM     22  C   UNL     1       8.312  -3.349 -22.219  0.00  0.00    +0.000 C 
ENDBRANCH  14  15
ENDBRANCH  12  13
BRANCH  12  23
ATOM     23  C   UNL     1       9.120   2.763 -23.799  0.00  0.00    +0.000 C 
ATOM     24  C   UNL     1       8.859   4.242 -24.104  0.00  0.00    +0.000 C 
ENDBRANCH  12  23
ENDBRANCH   8   9
ENDBRANCH   7   8
ENDBRANCH   2   6
BRANCH   4  25
ATOM     25  C   UNL     1      12.827  -4.029 -18.973  0.00  0.00    +0.000 C 
ATOM     26  O   UNL     1      13.770  -3.386 -18.498  0.00  0.00    +0.000 OA
BRANCH  25  27
ATOM     27  C   UNL     1      11.418  -3.695 -18.606  0.00  0.00    +0.000 C 
ATOM     28  C   UNL     1      10.278  -4.573 -19.118  0.00  0.00    +0.000 C 
BRANCH  27  29
ATOM     29  C   UNL     1      11.140  -2.387 -18.022  0.00  0.00    +0.000 C 
BRANCH  29  30
ATOM     30  C   UNL     1      10.780  -1.152 -18.696  0.00  0.00    +0.000 C 
ATOM     31  C   UNL     1      10.717  -1.097 -20.207  0.00  0.00    +0.000 C 
ATOM     32  C   UNL     1      10.302  -0.003 -18.026  0.00  0.00    +0.000 C 
ATOM     33  C   UNL     1       9.833   1.179 -17.414  0.00  0.00    +0.000 C 
ATOM     34  C   UNL     1      10.480   1.639 -16.144  0.00  0.00    +0.000 C 
ATOM     35  C   UNL     1       8.794   1.783 -17.878  0.00  0.00    +0.000 C 
ATOM     36  C   UNL     1       7.635   2.425 -18.395  0.00  0.00    +0.000 C 
ATOM     37  O   UNL     1       6.552   1.875 -18.467  0.00  0.00    +0.000 OA
BRANCH  36  38
ATOM     38  O   UNL     1       7.847   3.681 -18.816  0.00  0.00    +0.000 OA
ATOM     39  H   UNL     1       6.971   3.986 -19.130  0.00  0.00    +0.000 HD
ENDBRANCH  36  38
ENDBRANCH  29  30
BRANCH  29  40
ATOM     40  O   UNL     1      11.190  -2.324 -16.627  0.00  0.00    +0.000 OA
ATOM     41  H   UNL     1      11.394  -3.195 -16.228  0.00  0.00    +0.000 HD
ENDBRANCH  29  40
ENDBRANCH  27  29
ENDBRANCH  25  27
ENDBRANCH   4  25
TORSDOF 12
ENDMDL
MODEL 9
REMARK VINA RESULT:      -4.2     21.508     24.671
REMARK  Name = Leptomycin.pdbqt.pdb
REMARK  12 active torsions:
REMARK  status: ('A' for Active; 'I' for Inactive)
REMARK    1  A    between atoms: C_2  and  C_4
REMARK    2  A    between atoms: C_5  and  C_6
REMARK    3  A    between atoms: C_6  and  C_7
REMARK    4  A    between atoms: C_10  and  C_11
REMARK    5  A    between atoms: C_10  and  C_21
REMARK    6  A    between atoms: C_12  and  C_13
REMARK    7  A    between atoms: C_23  and  C_25
REMARK    8  A    between atoms: C_25  and  C_27
REMARK    9  A    between atoms: C_27  and  C_29
REMARK   10  A    between atoms: C_29  and  O_30
REMARK   11  A    between atoms: C_29  and  C_32
REMARK   12  A    between atoms: C_38  and  O_40
REMARK                            x       y       z     vdW  Elec       q    Type
REMARK                         _______ _______ _______ _____ _____    ______ ____
ROOT
ATOM      1  C   UNL     1      -0.602   2.138   5.354  0.00  0.00    +0.000 C 
ATOM      2  C   UNL     1      -1.807   1.674   5.282  0.00  0.00    +0.000 C 
ATOM      3  C   UNL     1      -2.867   2.280   6.155  0.00  0.00    +0.000 C 
ATOM      4  C   UNL     1       0.724   2.640   5.357  0.00  0.00    +0.000 C 
ATOM      5  C   UNL     1       1.606   2.132   6.487  0.00  0.00    +0.000 C 
ENDROOT
BRANCH   2   6
ATOM      6  C   UNL     1      -2.207   0.996   4.103  0.00  0.00    +0.000 C 
ATOM      7  C   UNL     1      -2.570   0.374   3.142  0.00  0.00    +0.000 C 
BRANCH   7   8
ATOM      8  C   UNL     1      -3.071  -0.510   1.995  0.00  0.00    +0.000 C 
BRANCH   8   9
ATOM      9  C   UNL     1      -3.675  -1.186   0.907  0.00  0.00    +0.000 C 
ATOM     10  C   UNL     1      -2.817  -1.926  -0.071  0.00  0.00    +0.000 C 
ATOM     11  C   UNL     1      -5.066  -1.085   0.662  0.00  0.00    +0.000 C 
ATOM     12  C   UNL     1      -6.344  -0.865   0.588  0.00  0.00    +0.000 C 
BRANCH  12  13
ATOM     13  C   UNL     1      -6.864   0.062   1.531  0.00  0.00    +0.000 C 
ATOM     14  C   UNL     1      -7.194   0.924   2.299  0.00  0.00    +0.000 C 
BRANCH  14  15
ATOM     15  C   UNL     1      -7.477   2.014   3.161  0.00  0.00    +0.000 A 
ATOM     16  O   UNL     1      -6.964   3.318   2.749  0.00  0.00    +0.000 OA
ATOM     17  C   UNL     1      -7.201   4.474   3.488  0.00  0.00    +0.000 A 
ATOM     18  O   UNL     1      -6.827   5.592   3.170  0.00  0.00    +0.000 OA
ATOM     19  C   UNL     1      -7.965   4.201   4.670  0.00  0.00    +0.000 A 
ATOM     20  C   UNL     1      -8.399   3.156   5.052  0.00  0.00    +0.000 A 
ATOM     21  C   UNL     1      -8.251   1.910   4.403  0.00  0.00    +0.000 A 
ATOM     22  C   UNL     1      -8.882   0.672   4.954  0.00  0.00    +0.000 C 
ENDBRANCH  14  15
ENDBRANCH  12  13
BRANCH  12  23
ATOM     23  C   UNL     1      -7.103  -1.526  -0.409  0.00  0.00    +0.000 C 
ATOM     24  C   UNL     1      -7.922  -2.247  -1.487  0.00  0.00    +0.000 C 
ENDBRANCH  12  23
ENDBRANCH   8   9
ENDBRANCH   7   8
ENDBRANCH   2   6
BRANCH   4  25
ATOM     25  C   UNL     1       1.318   3.126   4.073  0.00  0.00    +0.000 C 
ATOM     26  O   UNL     1       0.642   3.683   3.201  0.00  0.00    +0.000 OA
BRANCH  25  27
ATOM     27  C   UNL     1       2.771   2.857   3.852  0.00  0.00    +0.000 C 
ATOM     28  C   UNL     1       3.797   3.937   4.186  0.00  0.00    +0.000 C 
BRANCH  27  29
ATOM     29  C   UNL     1       3.152   1.695   3.056  0.00  0.00    +0.000 C 
BRANCH  29  30
ATOM     30  C   UNL     1       3.532   1.643   1.655  0.00  0.00    +0.000 C 
ATOM     31  C   UNL     1       2.558   1.129   0.617  0.00  0.00    +0.000 C 
ATOM     32  C   UNL     1       4.721   2.212   1.142  0.00  0.00    +0.000 C 
ATOM     33  C   UNL     1       5.895   2.747   0.573  0.00  0.00    +0.000 C 
ATOM     34  C   UNL     1       7.192   2.578   1.303  0.00  0.00    +0.000 C 
ATOM     35  C   UNL     1       5.832   3.467  -0.494  0.00  0.00    +0.000 C 
ATOM     36  C   UNL     1       5.737   4.272  -1.662  0.00  0.00    +0.000 C 
ATOM     37  O   UNL     1       5.090   5.302  -1.704  0.00  0.00    +0.000 OA
BRANCH  36  38
ATOM     38  O   UNL     1       6.407   3.786  -2.718  0.00  0.00    +0.000 OA
ATOM     39  H   UNL     1       6.979   4.527  -3.008  0.00  0.00    +0.000 HD
ENDBRANCH  36  38
ENDBRANCH  29  30
BRANCH  29  40
ATOM     40  O   UNL     1       3.193   0.478   3.741  0.00  0.00    +0.000 OA
ATOM     41  H   UNL     1       2.823   0.554   4.644  0.00  0.00    +0.000 HD
ENDBRANCH  29  40
ENDBRANCH  27  29
ENDBRANCH  25  27
ENDBRANCH   4  25
TORSDOF 12
ENDMDL
