MODEL 1
REMARK VINA RESULT:      -6.9      0.000      0.000
REMARK  Name = Lobelin.pdbqt.pdb
REMARK  3 active torsions:
REMARK  status: ('A' for Active; 'I' for Inactive)
REMARK    1  A    between atoms: C_9  and  O_10
REMARK    2  A    between atoms: C_9  and  C_12
REMARK    3  A    between atoms: C_19  and  C_21
REMARK                            x       y       z     vdW  Elec       q    Type
REMARK                         _______ _______ _______ _____ _____    ______ ____
ROOT
ATOM      1  N   UNL     1      -7.504  -0.817   1.358  0.00  0.00    +0.000 N 
ATOM      2  C   UNL     1      -6.658  -0.650   2.536  0.00  0.00    +0.000 C 
ATOM      3  C   UNL     1      -8.935  -0.539   1.438  0.00  0.00    +0.000 C 
ATOM      4  C   UNL     1      -7.338  -0.170   3.697  0.00  0.00    +0.000 C 
ATOM      5  C   UNL     1      -9.383  -0.071   2.711  0.00  0.00    +0.000 C 
ATOM      6  C   UNL     1      -8.760   0.215   4.064  0.00  0.00    +0.000 C 
ATOM      7  C   UNL     1      -6.951  -1.378   0.145  0.00  0.00    +0.000 C 
ATOM      8  C   UNL     1      -5.265  -0.931   2.525  0.00  0.00    +0.000 C 
ATOM      9  C   UNL     1      -3.870  -1.190   2.498  0.00  0.00    +0.000 C 
ATOM     10  C   UNL     1      -9.804  -0.710   0.331  0.00  0.00    +0.000 C 
ATOM     11  C   UNL     1     -10.680  -0.852  -0.802  0.00  0.00    +0.000 C 
ATOM     12  O   UNL     1     -11.392   0.087  -1.126  0.00  0.00    +0.000 OA
ENDROOT
BRANCH   9  13
ATOM     13  C   UNL     1      -2.913  -0.463   1.664  0.00  0.00    +0.000 A 
ATOM     14  C   UNL     1      -2.760  -0.778   0.311  0.00  0.00    +0.000 A 
ATOM     15  C   UNL     1      -1.849  -0.085  -0.485  0.00  0.00    +0.000 A 
ATOM     16  C   UNL     1      -1.079   0.934   0.066  0.00  0.00    +0.000 A 
ATOM     17  C   UNL     1      -1.219   1.259   1.412  0.00  0.00    +0.000 A 
ATOM     18  C   UNL     1      -2.131   0.562   2.203  0.00  0.00    +0.000 A 
ENDBRANCH   9  13
BRANCH  11  19
ATOM     19  C   UNL     1     -10.693  -2.135  -1.525  0.00  0.00    +0.000 A 
ATOM     20  C   UNL     1      -9.744  -2.423  -2.506  0.00  0.00    +0.000 A 
ATOM     21  C   UNL     1      -9.778  -3.648  -3.167  0.00  0.00    +0.000 A 
ATOM     22  C   UNL     1     -10.758  -4.585  -2.847  0.00  0.00    +0.000 A 
ATOM     23  C   UNL     1     -11.704  -4.299  -1.864  0.00  0.00    +0.000 A 
ATOM     24  C   UNL     1     -11.672  -3.074  -1.201  0.00  0.00    +0.000 A 
ENDBRANCH  11  19
BRANCH   9  25
ATOM     25  O   UNL     1      -3.362  -2.181   3.307  0.00  0.00    +0.000 OA
ATOM     26  H   UNL     1      -3.357  -1.918   4.243  0.00  0.00    +0.000 HD
ENDBRANCH   9  25
TORSDOF 3
ENDMDL
MODEL 2
REMARK VINA RESULT:      -6.8      8.975     13.574
REMARK  Name = Lobelin.pdbqt.pdb
REMARK  3 active torsions:
REMARK  status: ('A' for Active; 'I' for Inactive)
REMARK    1  A    between atoms: C_9  and  O_10
REMARK    2  A    between atoms: C_9  and  C_12
REMARK    3  A    between atoms: C_19  and  C_21
REMARK                            x       y       z     vdW  Elec       q    Type
REMARK                         _______ _______ _______ _____ _____    ______ ____
ROOT
ATOM      1  N   UNL     1       5.516   3.028   2.115  0.00  0.00    +0.000 N 
ATOM      2  C   UNL     1       6.895   2.600   2.324  0.00  0.00    +0.000 C 
ATOM      3  C   UNL     1       4.523   2.844   3.170  0.00  0.00    +0.000 C 
ATOM      4  C   UNL     1       7.162   2.051   3.616  0.00  0.00    +0.000 C 
ATOM      5  C   UNL     1       5.031   2.270   4.376  0.00  0.00    +0.000 C 
ATOM      6  C   UNL     1       6.369   1.764   4.879  0.00  0.00    +0.000 C 
ATOM      7  C   UNL     1       5.100   3.520   0.820  0.00  0.00    +0.000 C 
ATOM      8  C   UNL     1       7.897   2.728   1.325  0.00  0.00    +0.000 C 
ATOM      9  C   UNL     1       8.897   2.884   0.331  0.00  0.00    +0.000 C 
ATOM     10  C   UNL     1       3.166   3.220   3.009  0.00  0.00    +0.000 C 
ATOM     11  C   UNL     1       1.795   3.632   2.856  0.00  0.00    +0.000 C 
ATOM     12  O   UNL     1       1.293   4.359   3.701  0.00  0.00    +0.000 OA
ENDROOT
BRANCH   9  13
ATOM     13  C   UNL     1       9.341   4.175  -0.196  0.00  0.00    +0.000 A 
ATOM     14  C   UNL     1      10.533   4.756   0.244  0.00  0.00    +0.000 A 
ATOM     15  C   UNL     1      10.957   5.986  -0.258  0.00  0.00    +0.000 A 
ATOM     16  C   UNL     1      10.189   6.650  -1.209  0.00  0.00    +0.000 A 
ATOM     17  C   UNL     1       8.998   6.085  -1.657  0.00  0.00    +0.000 A 
ATOM     18  C   UNL     1       8.580   4.855  -1.151  0.00  0.00    +0.000 A 
ENDBRANCH   9  13
BRANCH  11  19
ATOM     19  C   UNL     1       1.041   3.148   1.686  0.00  0.00    +0.000 A 
ATOM     20  C   UNL     1       0.357   1.933   1.719  0.00  0.00    +0.000 A 
ATOM     21  C   UNL     1      -0.353   1.506   0.600  0.00  0.00    +0.000 A 
ATOM     22  C   UNL     1      -0.379   2.292  -0.550  0.00  0.00    +0.000 A 
ATOM     23  C   UNL     1       0.302   3.507  -0.581  0.00  0.00    +0.000 A 
ATOM     24  C   UNL     1       1.012   3.937   0.537  0.00  0.00    +0.000 A 
ENDBRANCH  11  19
BRANCH   9  25
ATOM     25  O   UNL     1       9.508   1.761  -0.180  0.00  0.00    +0.000 OA
ATOM     26  H   UNL     1       9.980   1.950  -1.009  0.00  0.00    +0.000 HD
ENDBRANCH   9  25
TORSDOF 3
ENDMDL
MODEL 3
REMARK VINA RESULT:      -6.8     22.611     25.877
REMARK  Name = Lobelin.pdbqt.pdb
REMARK  3 active torsions:
REMARK  status: ('A' for Active; 'I' for Inactive)
REMARK    1  A    between atoms: C_9  and  O_10
REMARK    2  A    between atoms: C_9  and  C_12
REMARK    3  A    between atoms: C_19  and  C_21
REMARK                            x       y       z     vdW  Elec       q    Type
REMARK                         _______ _______ _______ _____ _____    ______ ____
ROOT
ATOM      1  N   UNL     1      10.041  -0.086 -18.097  0.00  0.00    +0.000 N 
ATOM      2  C   UNL     1      11.343  -0.486 -17.574  0.00  0.00    +0.000 C 
ATOM      3  C   UNL     1       9.376   1.105 -17.574  0.00  0.00    +0.000 C 
ATOM      4  C   UNL     1      11.884   0.388 -16.582  0.00  0.00    +0.000 C 
ATOM      5  C   UNL     1      10.116   1.816 -16.581  0.00  0.00    +0.000 C 
ATOM      6  C   UNL     1      11.453   1.663 -15.880  0.00  0.00    +0.000 C 
ATOM      7  C   UNL     1       9.350  -0.934 -19.043  0.00  0.00    +0.000 C 
ATOM      8  C   UNL     1      12.025  -1.648 -18.025  0.00  0.00    +0.000 C 
ATOM      9  C   UNL     1      12.710  -2.797 -18.498  0.00  0.00    +0.000 C 
ATOM     10  C   UNL     1       8.100   1.522 -18.030  0.00  0.00    +0.000 C 
ATOM     11  C   UNL     1       6.819   1.964 -18.516  0.00  0.00    +0.000 C 
ATOM     12  O   UNL     1       6.694   3.118 -18.901  0.00  0.00    +0.000 OA
ENDROOT
BRANCH   9  13
ATOM     13  C   UNL     1      13.171  -2.971 -19.876  0.00  0.00    +0.000 A 
ATOM     14  C   UNL     1      13.513  -4.236 -20.362  0.00  0.00    +0.000 A 
ATOM     15  C   UNL     1      13.951  -4.403 -21.675  0.00  0.00    +0.000 A 
ATOM     16  C   UNL     1      14.051  -3.302 -22.519  0.00  0.00    +0.000 A 
ATOM     17  C   UNL     1      13.716  -2.035 -22.050  0.00  0.00    +0.000 A 
ATOM     18  C   UNL     1      13.279  -1.874 -20.736  0.00  0.00    +0.000 A 
ENDBRANCH   9  13
BRANCH  11  19
ATOM     19  C   UNL     1       5.700   1.007 -18.520  0.00  0.00    +0.000 A 
ATOM     20  C   UNL     1       5.756  -0.169 -19.268  0.00  0.00    +0.000 A 
ATOM     21  C   UNL     1       4.684  -1.058 -19.246  0.00  0.00    +0.000 A 
ATOM     22  C   UNL     1       3.559  -0.772 -18.477  0.00  0.00    +0.000 A 
ATOM     23  C   UNL     1       3.504   0.402 -17.728  0.00  0.00    +0.000 A 
ATOM     24  C   UNL     1       4.574   1.292 -17.748  0.00  0.00    +0.000 A 
ENDBRANCH  11  19
BRANCH   9  25
ATOM     25  O   UNL     1      12.977  -3.823 -17.620  0.00  0.00    +0.000 OA
ATOM     26  H   UNL     1      12.427  -3.767 -16.820  0.00  0.00    +0.000 HD
ENDBRANCH   9  25
TORSDOF 3
ENDMDL
MODEL 4
REMARK VINA RESULT:      -6.7     22.559     26.578
REMARK  Name = Lobelin.pdbqt.pdb
REMARK  3 active torsions:
REMARK  status: ('A' for Active; 'I' for Inactive)
REMARK    1  A    between atoms: C_9  and  O_10
REMARK    2  A    between atoms: C_9  and  C_12
REMARK    3  A    between atoms: C_19  and  C_21
REMARK                            x       y       z     vdW  Elec       q    Type
REMARK                         _______ _______ _______ _____ _____    ______ ____
ROOT
ATOM      1  N   UNL     1      10.082  -0.304 -18.053  0.00  0.00    +0.000 N 
ATOM      2  C   UNL     1       9.391   0.897 -17.594  0.00  0.00    +0.000 C 
ATOM      3  C   UNL     1      11.367  -0.678 -17.469  0.00  0.00    +0.000 C 
ATOM      4  C   UNL     1      10.051   1.601 -16.540  0.00  0.00    +0.000 C 
ATOM      5  C   UNL     1      11.827   0.187 -16.429  0.00  0.00    +0.000 C 
ATOM      6  C   UNL     1      11.335   1.448 -15.745  0.00  0.00    +0.000 C 
ATOM      7  C   UNL     1       9.559  -1.055 -19.172  0.00  0.00    +0.000 C 
ATOM      8  C   UNL     1       8.153   1.325 -18.143  0.00  0.00    +0.000 C 
ATOM      9  C   UNL     1       6.904   1.732 -18.680  0.00  0.00    +0.000 C 
ATOM     10  C   UNL     1      12.091  -1.820 -17.897  0.00  0.00    +0.000 C 
ATOM     11  C   UNL     1      12.809  -2.997 -18.309  0.00  0.00    +0.000 C 
ATOM     12  O   UNL     1      13.166  -3.804 -17.463  0.00  0.00    +0.000 OA
ENDROOT
BRANCH   9  13
ATOM     13  C   UNL     1       5.673   0.946 -18.589  0.00  0.00    +0.000 A 
ATOM     14  C   UNL     1       5.596  -0.331 -19.152  0.00  0.00    +0.000 A 
ATOM     15  C   UNL     1       4.425  -1.081 -19.066  0.00  0.00    +0.000 A 
ATOM     16  C   UNL     1       3.313  -0.559 -18.412  0.00  0.00    +0.000 A 
ATOM     17  C   UNL     1       3.372   0.711 -17.847  0.00  0.00    +0.000 A 
ATOM     18  C   UNL     1       4.547   1.457 -17.937  0.00  0.00    +0.000 A 
ENDBRANCH   9  13
BRANCH  11  19
ATOM     19  C   UNL     1      13.098  -3.179 -19.742  0.00  0.00    +0.000 A 
ATOM     20  C   UNL     1      13.236  -4.452 -20.296  0.00  0.00    +0.000 A 
ATOM     21  C   UNL     1      13.503  -4.592 -21.655  0.00  0.00    +0.000 A 
ATOM     22  C   UNL     1      13.630  -3.462 -22.460  0.00  0.00    +0.000 A 
ATOM     23  C   UNL     1      13.489  -2.190 -21.907  0.00  0.00    +0.000 A 
ATOM     24  C   UNL     1      13.222  -2.048 -20.548  0.00  0.00    +0.000 A 
ENDBRANCH  11  19
BRANCH   9  25
ATOM     25  O   UNL     1       6.820   2.945 -19.326  0.00  0.00    +0.000 OA
ATOM     26  H   UNL     1       6.125   3.510 -18.949  0.00  0.00    +0.000 HD
ENDBRANCH   9  25
TORSDOF 3
ENDMDL
MODEL 5
REMARK VINA RESULT:      -6.5     21.330     23.884
REMARK  Name = Lobelin.pdbqt.pdb
REMARK  3 active torsions:
REMARK  status: ('A' for Active; 'I' for Inactive)
REMARK    1  A    between atoms: C_9  and  O_10
REMARK    2  A    between atoms: C_9  and  C_12
REMARK    3  A    between atoms: C_19  and  C_21
REMARK                            x       y       z     vdW  Elec       q    Type
REMARK                         _______ _______ _______ _____ _____    ______ ____
ROOT
ATOM      1  N   UNL     1       6.194  -1.328 -19.394  0.00  0.00    +0.000 N 
ATOM      2  C   UNL     1       7.567  -1.525 -19.849  0.00  0.00    +0.000 C 
ATOM      3  C   UNL     1       5.213  -2.399 -19.543  0.00  0.00    +0.000 C 
ATOM      4  C   UNL     1       7.840  -2.821 -20.385  0.00  0.00    +0.000 C 
ATOM      5  C   UNL     1       5.724  -3.605 -20.111  0.00  0.00    +0.000 C 
ATOM      6  C   UNL     1       7.059  -4.098 -20.638  0.00  0.00    +0.000 C 
ATOM      7  C   UNL     1       5.772  -0.032 -18.912  0.00  0.00    +0.000 C 
ATOM      8  C   UNL     1       8.558  -0.511 -19.755  0.00  0.00    +0.000 C 
ATOM      9  C   UNL     1       9.548   0.498 -19.634  0.00  0.00    +0.000 C 
ATOM     10  C   UNL     1       3.861  -2.250 -19.142  0.00  0.00    +0.000 C 
ATOM     11  C   UNL     1       2.497  -2.109 -18.703  0.00  0.00    +0.000 C 
ATOM     12  O   UNL     1       2.022  -2.950 -17.954  0.00  0.00    +0.000 OA
ENDROOT
BRANCH   9  13
ATOM     13  C   UNL     1      10.011   1.049 -18.359  0.00  0.00    +0.000 A 
ATOM     14  C   UNL     1      10.217   0.219 -17.254  0.00  0.00    +0.000 A 
ATOM     15  C   UNL     1      10.659   0.743 -16.040  0.00  0.00    +0.000 A 
ATOM     16  C   UNL     1      10.900   2.108 -15.919  0.00  0.00    +0.000 A 
ATOM     17  C   UNL     1      10.698   2.948 -17.010  0.00  0.00    +0.000 A 
ATOM     18  C   UNL     1      10.256   2.418 -18.221  0.00  0.00    +0.000 A 
ENDBRANCH   9  13
BRANCH  11  19
ATOM     19  C   UNL     1       1.718  -0.956 -19.187  0.00  0.00    +0.000 A 
ATOM     20  C   UNL     1       2.268  -0.034 -20.077  0.00  0.00    +0.000 A 
ATOM     21  C   UNL     1       1.504   1.042 -20.522  0.00  0.00    +0.000 A 
ATOM     22  C   UNL     1       0.192   1.194 -20.080  0.00  0.00    +0.000 A 
ATOM     23  C   UNL     1      -0.359   0.270 -19.194  0.00  0.00    +0.000 A 
ATOM     24  C   UNL     1       0.403  -0.807 -18.747  0.00  0.00    +0.000 A 
ENDBRANCH  11  19
BRANCH   9  25
ATOM     25  O   UNL     1      10.128   1.001 -20.776  0.00  0.00    +0.000 OA
ATOM     26  H   UNL     1      10.921   0.500 -21.031  0.00  0.00    +0.000 HD
ENDBRANCH   9  25
TORSDOF 3
ENDMDL
MODEL 6
REMARK VINA RESULT:      -6.5     21.365     25.064
REMARK  Name = Lobelin.pdbqt.pdb
REMARK  3 active torsions:
REMARK  status: ('A' for Active; 'I' for Inactive)
REMARK    1  A    between atoms: C_9  and  O_10
REMARK    2  A    between atoms: C_9  and  C_12
REMARK    3  A    between atoms: C_19  and  C_21
REMARK                            x       y       z     vdW  Elec       q    Type
REMARK                         _______ _______ _______ _____ _____    ______ ____
ROOT
ATOM      1  N   UNL     1       6.352  -1.074 -19.450  0.00  0.00    +0.000 N 
ATOM      2  C   UNL     1       5.311  -2.089 -19.575  0.00  0.00    +0.000 C 
ATOM      3  C   UNL     1       7.685  -1.322 -19.991  0.00  0.00    +0.000 C 
ATOM      4  C   UNL     1       5.705  -3.267 -20.282  0.00  0.00    +0.000 C 
ATOM      5  C   UNL     1       7.838  -2.578 -20.655  0.00  0.00    +0.000 C 
ATOM      6  C   UNL     1       6.965  -3.782 -20.953  0.00  0.00    +0.000 C 
ATOM      7  C   UNL     1       6.104   0.126 -18.682  0.00  0.00    +0.000 C 
ATOM      8  C   UNL     1       4.004  -1.915 -19.044  0.00  0.00    +0.000 C 
ATOM      9  C   UNL     1       2.694  -1.722 -18.534  0.00  0.00    +0.000 C 
ATOM     10  C   UNL     1       8.739  -0.380 -19.874  0.00  0.00    +0.000 C 
ATOM     11  C   UNL     1       9.798   0.590 -19.784  0.00  0.00    +0.000 C 
ATOM     12  O   UNL     1      10.389   0.924 -20.801  0.00  0.00    +0.000 OA
ENDROOT
BRANCH   9  13
ATOM     13  C   UNL     1       1.778  -0.676 -18.990  0.00  0.00    +0.000 A 
ATOM     14  C   UNL     1       2.263   0.481 -19.606  0.00  0.00    +0.000 A 
ATOM     15  C   UNL     1       1.392   1.478 -20.041  0.00  0.00    +0.000 A 
ATOM     16  C   UNL     1       0.020   1.327 -19.863  0.00  0.00    +0.000 A 
ATOM     17  C   UNL     1      -0.479   0.182 -19.250  0.00  0.00    +0.000 A 
ATOM     18  C   UNL     1       0.398  -0.811 -18.817  0.00  0.00    +0.000 A 
ENDBRANCH   9  13
BRANCH  11  19
ATOM     19  C   UNL     1      10.140   1.138 -18.460  0.00  0.00    +0.000 A 
ATOM     20  C   UNL     1      10.159   0.327 -17.325  0.00  0.00    +0.000 A 
ATOM     21  C   UNL     1      10.492   0.873 -16.088  0.00  0.00    +0.000 A 
ATOM     22  C   UNL     1      10.808   2.226 -15.986  0.00  0.00    +0.000 A 
ATOM     23  C   UNL     1      10.792   3.035 -17.121  0.00  0.00    +0.000 A 
ATOM     24  C   UNL     1      10.459   2.491 -18.360  0.00  0.00    +0.000 A 
ENDBRANCH  11  19
BRANCH   9  25
ATOM     25  O   UNL     1       2.232  -2.568 -17.551  0.00  0.00    +0.000 OA
ATOM     26  H   UNL     1       2.906  -2.738 -16.872  0.00  0.00    +0.000 HD
ENDBRANCH   9  25
TORSDOF 3
ENDMDL
MODEL 7
REMARK VINA RESULT:      -6.5     23.525     27.433
REMARK  Name = Lobelin.pdbqt.pdb
REMARK  3 active torsions:
REMARK  status: ('A' for Active; 'I' for Inactive)
REMARK    1  A    between atoms: C_9  and  O_10
REMARK    2  A    between atoms: C_9  and  C_12
REMARK    3  A    between atoms: C_19  and  C_21
REMARK                            x       y       z     vdW  Elec       q    Type
REMARK                         _______ _______ _______ _____ _____    ______ ____
ROOT
ATOM      1  N   UNL     1       9.870   0.874 -19.339  0.00  0.00    +0.000 N 
ATOM      2  C   UNL     1       9.110   1.554 -18.295  0.00  0.00    +0.000 C 
ATOM      3  C   UNL     1      11.323   0.773 -19.238  0.00  0.00    +0.000 C 
ATOM      4  C   UNL     1       9.894   2.042 -17.205  0.00  0.00    +0.000 C 
ATOM      5  C   UNL     1      11.882   1.342 -18.054  0.00  0.00    +0.000 C 
ATOM      6  C   UNL     1      11.363   2.065 -16.826  0.00  0.00    +0.000 C 
ATOM      7  C   UNL     1       9.201   0.411 -20.535  0.00  0.00    +0.000 C 
ATOM      8  C   UNL     1       7.698   1.707 -18.352  0.00  0.00    +0.000 C 
ATOM      9  C   UNL     1       6.286   1.833 -18.404  0.00  0.00    +0.000 C 
ATOM     10  C   UNL     1      12.110   0.146 -20.237  0.00  0.00    +0.000 C 
ATOM     11  C   UNL     1      12.906  -0.520 -21.235  0.00  0.00    +0.000 C 
ATOM     12  O   UNL     1      13.684  -1.396 -20.890  0.00  0.00    +0.000 OA
ENDROOT
BRANCH   9  13
ATOM     13  C   UNL     1       5.357   0.703 -18.395  0.00  0.00    +0.000 A 
ATOM     14  C   UNL     1       4.172   0.755 -17.654  0.00  0.00    +0.000 A 
ATOM     15  C   UNL     1       3.287  -0.321 -17.645  0.00  0.00    +0.000 A 
ATOM     16  C   UNL     1       3.578  -1.466 -18.379  0.00  0.00    +0.000 A 
ATOM     17  C   UNL     1       4.754  -1.535 -19.121  0.00  0.00    +0.000 A 
ATOM     18  C   UNL     1       5.636  -0.456 -19.126  0.00  0.00    +0.000 A 
ENDBRANCH   9  13
BRANCH  11  19
ATOM     19  C   UNL     1      12.759  -0.107 -22.642  0.00  0.00    +0.000 A 
ATOM     20  C   UNL     1      11.617  -0.432 -23.375  0.00  0.00    +0.000 A 
ATOM     21  C   UNL     1      11.505  -0.022 -24.701  0.00  0.00    +0.000 A 
ATOM     22  C   UNL     1      12.530   0.712 -25.293  0.00  0.00    +0.000 A 
ATOM     23  C   UNL     1      13.669   1.039 -24.559  0.00  0.00    +0.000 A 
ATOM     24  C   UNL     1      13.784   0.631 -23.232  0.00  0.00    +0.000 A 
ENDBRANCH  11  19
BRANCH   9  25
ATOM     25  O   UNL     1       5.732   3.092 -18.461  0.00  0.00    +0.000 OA
ATOM     26  H   UNL     1       6.259   3.743 -17.968  0.00  0.00    +0.000 HD
ENDBRANCH   9  25
TORSDOF 3
ENDMDL
MODEL 8
REMARK VINA RESULT:      -6.4     21.389     23.435
REMARK  Name = Lobelin.pdbqt.pdb
REMARK  3 active torsions:
REMARK  status: ('A' for Active; 'I' for Inactive)
REMARK    1  A    between atoms: C_9  and  O_10
REMARK    2  A    between atoms: C_9  and  C_12
REMARK    3  A    between atoms: C_19  and  C_21
REMARK                            x       y       z     vdW  Elec       q    Type
REMARK                         _______ _______ _______ _____ _____    ______ ____
ROOT
ATOM      1  N   UNL     1       1.655  -0.891 -19.808  0.00  0.00    +0.000 N 
ATOM      2  C   UNL     1       2.071   0.502 -19.686  0.00  0.00    +0.000 C 
ATOM      3  C   UNL     1       2.170  -1.893 -18.879  0.00  0.00    +0.000 C 
ATOM      4  C   UNL     1       2.953   0.770 -18.594  0.00  0.00    +0.000 C 
ATOM      5  C   UNL     1       3.043  -1.382 -17.870  0.00  0.00    +0.000 C 
ATOM      6  C   UNL     1       3.618  -0.031 -17.490  0.00  0.00    +0.000 C 
ATOM      7  C   UNL     1       0.832  -1.305 -20.923  0.00  0.00    +0.000 C 
ATOM      8  C   UNL     1       1.624   1.516 -20.576  0.00  0.00    +0.000 C 
ATOM      9  C   UNL     1       1.154   2.526 -21.454  0.00  0.00    +0.000 C 
ATOM     10  C   UNL     1       1.818  -3.264 -18.970  0.00  0.00    +0.000 C 
ATOM     11  C   UNL     1       1.434  -4.649 -19.042  0.00  0.00    +0.000 C 
ATOM     12  O   UNL     1       0.996  -5.199 -18.042  0.00  0.00    +0.000 OA
ENDROOT
BRANCH   9  13
ATOM     13  C   UNL     1      -0.250   2.919 -21.580  0.00  0.00    +0.000 A 
ATOM     14  C   UNL     1      -0.606   4.261 -21.741  0.00  0.00    +0.000 A 
ATOM     15  C   UNL     1      -1.943   4.636 -21.862  0.00  0.00    +0.000 A 
ATOM     16  C   UNL     1      -2.942   3.669 -21.822  0.00  0.00    +0.000 A 
ATOM     17  C   UNL     1      -2.605   2.329 -21.661  0.00  0.00    +0.000 A 
ATOM     18  C   UNL     1      -1.266   1.960 -21.540  0.00  0.00    +0.000 A 
ENDBRANCH   9  13
BRANCH  11  19
ATOM     19  C   UNL     1       1.595  -5.357 -20.324  0.00  0.00    +0.000 A 
ATOM     20  C   UNL     1       0.498  -5.900 -20.993  0.00  0.00    +0.000 A 
ATOM     21  C   UNL     1       0.681  -6.559 -22.206  0.00  0.00    +0.000 A 
ATOM     22  C   UNL     1       1.958  -6.673 -22.750  0.00  0.00    +0.000 A 
ATOM     23  C   UNL     1       3.054  -6.127 -22.083  0.00  0.00    +0.000 A 
ATOM     24  C   UNL     1       2.873  -5.468 -20.870  0.00  0.00    +0.000 A 
ENDBRANCH  11  19
BRANCH   9  25
ATOM     25  O   UNL     1       2.060   3.198 -22.243  0.00  0.00    +0.000 OA
ATOM     26  H   UNL     1       2.658   2.589 -22.708  0.00  0.00    +0.000 HD
ENDBRANCH   9  25
TORSDOF 3
ENDMDL
MODEL 9
REMARK VINA RESULT:      -6.3     18.897     21.508
REMARK  Name = Lobelin.pdbqt.pdb
REMARK  3 active torsions:
REMARK  status: ('A' for Active; 'I' for Inactive)
REMARK    1  A    between atoms: C_9  and  O_10
REMARK    2  A    between atoms: C_9  and  C_12
REMARK    3  A    between atoms: C_19  and  C_21
REMARK                            x       y       z     vdW  Elec       q    Type
REMARK                         _______ _______ _______ _____ _____    ______ ____
ROOT
ATOM      1  N   UNL     1      -8.465  -1.717 -20.112  0.00  0.00    +0.000 N 
ATOM      2  C   UNL     1      -7.862  -2.106 -18.841  0.00  0.00    +0.000 C 
ATOM      3  C   UNL     1      -9.916  -1.616 -20.234  0.00  0.00    +0.000 C 
ATOM      4  C   UNL     1      -8.793  -2.322 -17.778  0.00  0.00    +0.000 C 
ATOM      5  C   UNL     1     -10.638  -1.883 -19.030  0.00  0.00    +0.000 C 
ATOM      6  C   UNL     1     -10.300  -2.272 -17.604  0.00  0.00    +0.000 C 
ATOM      7  C   UNL     1      -7.635  -1.554 -21.285  0.00  0.00    +0.000 C 
ATOM      8  C   UNL     1      -6.459  -2.247 -18.670  0.00  0.00    +0.000 C 
ATOM      9  C   UNL     1      -5.054  -2.361 -18.501  0.00  0.00    +0.000 C 
ATOM     10  C   UNL     1     -10.553  -1.267 -21.452  0.00  0.00    +0.000 C 
ATOM     11  C   UNL     1     -11.196  -0.881 -22.680  0.00  0.00    +0.000 C 
ATOM     12  O   UNL     1     -11.997   0.042 -22.669  0.00  0.00    +0.000 OA
ENDROOT
BRANCH   9  13
ATOM     13  C   UNL     1      -4.114  -1.249 -18.647  0.00  0.00    +0.000 A 
ATOM     14  C   UNL     1      -4.557   0.015 -19.047  0.00  0.00    +0.000 A 
ATOM     15  C   UNL     1      -3.663   1.074 -19.186  0.00  0.00    +0.000 A 
ATOM     16  C   UNL     1      -2.310   0.880 -18.926  0.00  0.00    +0.000 A 
ATOM     17  C   UNL     1      -1.852  -0.373 -18.529  0.00  0.00    +0.000 A 
ATOM     18  C   UNL     1      -2.752  -1.429 -18.392  0.00  0.00    +0.000 A 
ENDBRANCH   9  13
BRANCH  11  19
ATOM     19  C   UNL     1     -10.871  -1.626 -23.909  0.00  0.00    +0.000 A 
ATOM     20  C   UNL     1     -10.156  -2.822 -23.862  0.00  0.00    +0.000 A 
ATOM     21  C   UNL     1      -9.870  -3.507 -25.040  0.00  0.00    +0.000 A 
ATOM     22  C   UNL     1     -10.300  -2.997 -26.263  0.00  0.00    +0.000 A 
ATOM     23  C   UNL     1     -11.018  -1.804 -26.310  0.00  0.00    +0.000 A 
ATOM     24  C   UNL     1     -11.306  -1.117 -25.133  0.00  0.00    +0.000 A 
ENDBRANCH  11  19
BRANCH   9  25
ATOM     25  O   UNL     1      -4.521  -3.587 -18.171  0.00  0.00    +0.000 OA
ATOM     26  H   UNL     1      -5.212  -4.253 -18.015  0.00  0.00    +0.000 HD
ENDBRANCH   9  25
TORSDOF 3
ENDMDL
