MODEL 1
REMARK VINA RESULT:      -4.9      0.000      0.000
REMARK  Name = LUCANTHONE.pdbqt.pdb
REMARK  5 active torsions:
REMARK  status: ('A' for Active; 'I' for Inactive)
REMARK    1  A    between atoms: C_3  and  N_17
REMARK    2  A    between atoms: N_17  and  C_19
REMARK    3  A    between atoms: C_20  and  N_21
REMARK    4  A    between atoms: N_21  and  C_22
REMARK    5  A    between atoms: N_21  and  C_24
REMARK                            x       y       z     vdW  Elec       q    Type
REMARK                         _______ _______ _______ _____ _____    ______ ____
ROOT
ATOM      1  S   UNL     1       2.172 -17.946 -10.734  0.00  0.00    +0.000 S 
ATOM      2  O   UNL     1       3.160 -14.670 -13.396  0.00  0.00    +0.000 OA
ATOM      3  C   UNL     1       1.461 -16.561 -14.562  0.00  0.00    +0.000 A 
ATOM      4  C   UNL     1       2.001 -16.714 -13.254  0.00  0.00    +0.000 A 
ATOM      5  C   UNL     1       1.553 -17.749 -12.407  0.00  0.00    +0.000 A 
ATOM      6  C   UNL     1       0.563 -18.633 -12.896  0.00  0.00    +0.000 A 
ATOM      7  C   UNL     1       3.036 -15.740 -12.801  0.00  0.00    +0.000 A 
ATOM      8  C   UNL     1       0.504 -17.480 -15.005  0.00  0.00    +0.000 A 
ATOM      9  C   UNL     1       3.941 -16.025 -11.680  0.00  0.00    +0.000 A 
ATOM     10  C   UNL     1       0.048 -18.496 -14.180  0.00  0.00    +0.000 A 
ATOM     11  C   UNL     1       3.657 -17.001 -10.736  0.00  0.00    +0.000 A 
ATOM     12  C   UNL     1      -0.003 -19.783 -12.091  0.00  0.00    +0.000 C 
ATOM     13  C   UNL     1       5.112 -15.266 -11.580  0.00  0.00    +0.000 A 
ATOM     14  C   UNL     1       4.561 -17.215  -9.693  0.00  0.00    +0.000 A 
ATOM     15  C   UNL     1       6.010 -15.490 -10.541  0.00  0.00    +0.000 A 
ATOM     16  C   UNL     1       5.735 -16.471  -9.595  0.00  0.00    +0.000 A 
ENDROOT
BRANCH   3  17
ATOM     17  N   UNL     1       1.980 -15.610 -15.480  0.00  0.00    +0.000 N 
ATOM     18  H   UNL     1       2.043 -14.673 -15.054  0.00  0.00    +0.000 HD
BRANCH  17  19
ATOM     19  C   UNL     1       1.569 -15.661 -16.873  0.00  0.00    +0.000 C 
ATOM     20  C   UNL     1       1.137 -15.713 -18.342  0.00  0.00    +0.000 C 
BRANCH  20  21
ATOM     21  N   UNL     1       0.724 -15.751 -19.735  0.00  0.00    +0.000 N 
BRANCH  21  22
ATOM     22  C   UNL     1       0.940 -14.425 -20.285  0.00  0.00    +0.000 C 
ATOM     23  C   UNL     1       1.175 -13.033 -20.877  0.00  0.00    +0.000 C 
ENDBRANCH  21  22
BRANCH  21  24
ATOM     24  C   UNL     1      -0.710 -15.973 -19.750  0.00  0.00    +0.000 C 
ATOM     25  C   UNL     1      -2.225 -16.200 -19.746  0.00  0.00    +0.000 C 
ENDBRANCH  21  24
ENDBRANCH  20  21
ENDBRANCH  17  19
ENDBRANCH   3  17
TORSDOF 5
ENDMDL
MODEL 2
REMARK VINA RESULT:      -4.9     24.266     25.190
REMARK  Name = LUCANTHONE.pdbqt.pdb
REMARK  5 active torsions:
REMARK  status: ('A' for Active; 'I' for Inactive)
REMARK    1  A    between atoms: C_3  and  N_17
REMARK    2  A    between atoms: N_17  and  C_19
REMARK    3  A    between atoms: C_20  and  N_21
REMARK    4  A    between atoms: N_21  and  C_22
REMARK    5  A    between atoms: N_21  and  C_24
REMARK                            x       y       z     vdW  Elec       q    Type
REMARK                         _______ _______ _______ _____ _____    ______ ____
ROOT
ATOM      1  S   UNL     1      -7.795  -2.727  -1.168  0.00  0.00    +0.000 S 
ATOM      2  O   UNL     1      -9.787  -2.547   2.679  0.00  0.00    +0.000 OA
ATOM      3  C   UNL     1     -11.493  -3.290   0.591  0.00  0.00    +0.000 A 
ATOM      4  C   UNL     1     -10.131  -2.933   0.382  0.00  0.00    +0.000 A 
ATOM      5  C   UNL     1      -9.523  -3.117  -0.877  0.00  0.00    +0.000 A 
ATOM      6  C   UNL     1     -10.305  -3.654  -1.926  0.00  0.00    +0.000 A 
ATOM      7  C   UNL     1      -9.363  -2.381   1.536  0.00  0.00    +0.000 A 
ATOM      8  C   UNL     1     -12.228  -3.792  -0.489  0.00  0.00    +0.000 A 
ATOM      9  C   UNL     1      -8.124  -1.612   1.355  0.00  0.00    +0.000 A 
ATOM     10  C   UNL     1     -11.641  -3.986  -1.729  0.00  0.00    +0.000 A 
ATOM     11  C   UNL     1      -7.382  -1.679   0.185  0.00  0.00    +0.000 A 
ATOM     12  C   UNL     1      -9.776  -3.901  -3.323  0.00  0.00    +0.000 C 
ATOM     13  C   UNL     1      -7.698  -0.806   2.416  0.00  0.00    +0.000 A 
ATOM     14  C   UNL     1      -6.211  -0.925   0.084  0.00  0.00    +0.000 A 
ATOM     15  C   UNL     1      -6.534  -0.053   2.304  0.00  0.00    +0.000 A 
ATOM     16  C   UNL     1      -5.788  -0.110   1.132  0.00  0.00    +0.000 A 
ENDROOT
BRANCH   3  17
ATOM     17  N   UNL     1     -12.165  -3.000   1.807  0.00  0.00    +0.000 N 
ATOM     18  H   UNL     1     -12.635  -3.837   2.184  0.00  0.00    +0.000 HD
BRANCH  17  19
ATOM     19  C   UNL     1     -12.873  -1.740   1.952  0.00  0.00    +0.000 C 
ATOM     20  C   UNL     1     -13.620  -0.410   2.102  0.00  0.00    +0.000 C 
BRANCH  20  21
ATOM     21  N   UNL     1     -14.317   0.857   2.245  0.00  0.00    +0.000 N 
BRANCH  21  22
ATOM     22  C   UNL     1     -15.530   0.774   1.452  0.00  0.00    +0.000 C 
ATOM     23  C   UNL     1     -16.801   0.682   0.602  0.00  0.00    +0.000 C 
ENDBRANCH  21  22
BRANCH  21  24
ATOM     24  C   UNL     1     -13.489   1.873   1.624  0.00  0.00    +0.000 C 
ATOM     25  C   UNL     1     -12.612   2.934   0.951  0.00  0.00    +0.000 C 
ENDBRANCH  21  24
ENDBRANCH  20  21
ENDBRANCH  17  19
ENDBRANCH   3  17
TORSDOF 5
ENDMDL
MODEL 3
REMARK VINA RESULT:      -4.8     28.363     29.480
REMARK  Name = LUCANTHONE.pdbqt.pdb
REMARK  5 active torsions:
REMARK  status: ('A' for Active; 'I' for Inactive)
REMARK    1  A    between atoms: C_3  and  N_17
REMARK    2  A    between atoms: N_17  and  C_19
REMARK    3  A    between atoms: C_20  and  N_21
REMARK    4  A    between atoms: N_21  and  C_22
REMARK    5  A    between atoms: N_21  and  C_24
REMARK                            x       y       z     vdW  Elec       q    Type
REMARK                         _______ _______ _______ _____ _____    ______ ____
ROOT
ATOM      1  S   UNL     1      15.061  10.776 -13.127  0.00  0.00    +0.000 S 
ATOM      2  O   UNL     1      11.180   9.560 -14.628  0.00  0.00    +0.000 OA
ATOM      3  C   UNL     1      12.952  10.325 -16.652  0.00  0.00    +0.000 A 
ATOM      4  C   UNL     1      13.280  10.408 -15.269  0.00  0.00    +0.000 A 
ATOM      5  C   UNL     1      14.595  10.711 -14.859  0.00  0.00    +0.000 A 
ATOM      6  C   UNL     1      15.573  10.939 -15.856  0.00  0.00    +0.000 A 
ATOM      7  C   UNL     1      12.201  10.147 -14.273  0.00  0.00    +0.000 A 
ATOM      8  C   UNL     1      13.951  10.587 -17.596  0.00  0.00    +0.000 A 
ATOM      9  C   UNL     1      12.301  10.595 -12.877  0.00  0.00    +0.000 A 
ATOM     10  C   UNL     1      15.248  10.876 -17.207  0.00  0.00    +0.000 A 
ATOM     11  C   UNL     1      13.517  10.923 -12.295  0.00  0.00    +0.000 A 
ATOM     12  C   UNL     1      17.017  11.272 -15.551  0.00  0.00    +0.000 C 
ATOM     13  C   UNL     1      11.119  10.673 -12.133  0.00  0.00    +0.000 A 
ATOM     14  C   UNL     1      13.537  11.336 -10.961  0.00  0.00    +0.000 A 
ATOM     15  C   UNL     1      11.148  11.092 -10.807  0.00  0.00    +0.000 A 
ATOM     16  C   UNL     1      12.362  11.429 -10.219  0.00  0.00    +0.000 A 
ENDROOT
BRANCH   3  17
ATOM     17  N   UNL     1      11.615  10.147 -17.095  0.00  0.00    +0.000 N 
ATOM     18  H   UNL     1      11.277   9.194 -16.893  0.00  0.00    +0.000 HD
BRANCH  17  19
ATOM     19  C   UNL     1      11.195  10.728 -18.359  0.00  0.00    +0.000 C 
ATOM     20  C   UNL     1      10.756  11.341 -19.692  0.00  0.00    +0.000 C 
BRANCH  20  21
ATOM     21  N   UNL     1      10.345  11.933 -20.956  0.00  0.00    +0.000 N 
BRANCH  21  22
ATOM     22  C   UNL     1       9.185  11.194 -21.420  0.00  0.00    +0.000 C 
ATOM     23  C   UNL     1       7.963  10.421 -21.924  0.00  0.00    +0.000 C 
ENDBRANCH  21  22
BRANCH  21  24
ATOM     24  C   UNL     1      11.405  11.676 -21.912  0.00  0.00    +0.000 C 
ATOM     25  C   UNL     1      12.536  11.397 -22.906  0.00  0.00    +0.000 C 
ENDBRANCH  21  24
ENDBRANCH  20  21
ENDBRANCH  17  19
ENDBRANCH   3  17
TORSDOF 5
ENDMDL
MODEL 4
REMARK VINA RESULT:      -4.8      2.962      8.295
REMARK  Name = LUCANTHONE.pdbqt.pdb
REMARK  5 active torsions:
REMARK  status: ('A' for Active; 'I' for Inactive)
REMARK    1  A    between atoms: C_3  and  N_17
REMARK    2  A    between atoms: N_17  and  C_19
REMARK    3  A    between atoms: C_20  and  N_21
REMARK    4  A    between atoms: N_21  and  C_22
REMARK    5  A    between atoms: N_21  and  C_24
REMARK                            x       y       z     vdW  Elec       q    Type
REMARK                         _______ _______ _______ _____ _____    ______ ____
ROOT
ATOM      1  S   UNL     1      -2.338 -16.453 -19.630  0.00  0.00    +0.000 S 
ATOM      2  O   UNL     1       1.854 -15.655 -18.862  0.00  0.00    +0.000 OA
ATOM      3  C   UNL     1       0.581 -16.974 -16.750  0.00  0.00    +0.000 A 
ATOM      4  C   UNL     1      -0.110 -16.545 -17.918  0.00  0.00    +0.000 A 
ATOM      5  C   UNL     1      -1.447 -16.931 -18.147  0.00  0.00    +0.000 A 
ATOM      6  C   UNL     1      -2.084 -17.747 -17.182  0.00  0.00    +0.000 A 
ATOM      7  C   UNL     1       0.625 -15.694 -18.898  0.00  0.00    +0.000 A 
ATOM      8  C   UNL     1      -0.105 -17.758 -15.815  0.00  0.00    +0.000 A 
ATOM      9  C   UNL     1      -0.072 -14.868 -19.894  0.00  0.00    +0.000 A 
ATOM     10  C   UNL     1      -1.415 -18.152 -16.031  0.00  0.00    +0.000 A 
ATOM     11  C   UNL     1      -1.388 -15.110 -20.258  0.00  0.00    +0.000 A 
ATOM     12  C   UNL     1      -3.512 -18.231 -17.305  0.00  0.00    +0.000 C 
ATOM     13  C   UNL     1       0.644 -13.822 -20.486  0.00  0.00    +0.000 A 
ATOM     14  C   UNL     1      -1.985 -14.288 -21.217  0.00  0.00    +0.000 A 
ATOM     15  C   UNL     1       0.038 -13.004 -21.435  0.00  0.00    +0.000 A 
ATOM     16  C   UNL     1      -1.283 -13.236 -21.801  0.00  0.00    +0.000 A 
ENDROOT
BRANCH   3  17
ATOM     17  N   UNL     1       1.880 -16.500 -16.432  0.00  0.00    +0.000 N 
ATOM     18  H   UNL     1       2.601 -16.974 -16.997  0.00  0.00    +0.000 HD
BRANCH  17  19
ATOM     19  C   UNL     1       2.222 -16.223 -15.048  0.00  0.00    +0.000 C 
ATOM     20  C   UNL     1       2.581 -15.931 -13.587  0.00  0.00    +0.000 C 
BRANCH  20  21
ATOM     21  N   UNL     1       2.914 -15.645 -12.201  0.00  0.00    +0.000 N 
BRANCH  21  22
ATOM     22  C   UNL     1       4.361 -15.659 -12.092  0.00  0.00    +0.000 C 
ATOM     23  C   UNL     1       5.888 -15.688 -11.979  0.00  0.00    +0.000 C 
ENDBRANCH  21  22
BRANCH  21  24
ATOM     24  C   UNL     1       2.432 -16.760 -11.408  0.00  0.00    +0.000 C 
ATOM     25  C   UNL     1       1.935 -17.951 -10.581  0.00  0.00    +0.000 C 
ENDBRANCH  21  24
ENDBRANCH  20  21
ENDBRANCH  17  19
ENDBRANCH   3  17
TORSDOF 5
ENDMDL
MODEL 5
REMARK VINA RESULT:      -4.8     28.415     29.709
REMARK  Name = LUCANTHONE.pdbqt.pdb
REMARK  5 active torsions:
REMARK  status: ('A' for Active; 'I' for Inactive)
REMARK    1  A    between atoms: C_3  and  N_17
REMARK    2  A    between atoms: N_17  and  C_19
REMARK    3  A    between atoms: C_20  and  N_21
REMARK    4  A    between atoms: N_21  and  C_22
REMARK    5  A    between atoms: N_21  and  C_24
REMARK                            x       y       z     vdW  Elec       q    Type
REMARK                         _______ _______ _______ _____ _____    ______ ____
ROOT
ATOM      1  S   UNL     1      14.911  10.892 -14.246  0.00  0.00    +0.000 S 
ATOM      2  O   UNL     1      11.140   9.341 -15.720  0.00  0.00    +0.000 OA
ATOM      3  C   UNL     1      12.710  10.503 -17.722  0.00  0.00    +0.000 A 
ATOM      4  C   UNL     1      13.090  10.500 -16.350  0.00  0.00    +0.000 A 
ATOM      5  C   UNL     1      14.376  10.927 -15.958  0.00  0.00    +0.000 A 
ATOM      6  C   UNL     1      15.271  11.365 -16.963  0.00  0.00    +0.000 A 
ATOM      7  C   UNL     1      12.098  10.017 -15.346  0.00  0.00    +0.000 A 
ATOM      8  C   UNL     1      13.625  10.972 -18.671  0.00  0.00    +0.000 A 
ATOM      9  C   UNL     1      12.208  10.345 -13.919  0.00  0.00    +0.000 A 
ATOM     10  C   UNL     1      14.895  11.385 -18.302  0.00  0.00    +0.000 A 
ATOM     11  C   UNL     1      13.401  10.767 -13.351  0.00  0.00    +0.000 A 
ATOM     12  C   UNL     1      16.677  11.846 -16.678  0.00  0.00    +0.000 C 
ATOM     13  C   UNL     1      11.061  10.206 -13.130  0.00  0.00    +0.000 A 
ATOM     14  C   UNL     1      13.433  11.057 -11.985  0.00  0.00    +0.000 A 
ATOM     15  C   UNL     1      11.100  10.503 -11.771  0.00  0.00    +0.000 A 
ATOM     16  C   UNL     1      12.291  10.933 -11.196  0.00  0.00    +0.000 A 
ENDROOT
BRANCH   3  17
ATOM     17  N   UNL     1      11.385  10.201 -18.133  0.00  0.00    +0.000 N 
ATOM     18  H   UNL     1      11.192   9.190 -18.062  0.00  0.00    +0.000 HD
BRANCH  17  19
ATOM     19  C   UNL     1      10.816  10.889 -19.279  0.00  0.00    +0.000 C 
ATOM     20  C   UNL     1      10.214  11.616 -20.486  0.00  0.00    +0.000 C 
BRANCH  20  21
ATOM     21  N   UNL     1       9.632  12.304 -21.627  0.00  0.00    +0.000 N 
BRANCH  21  22
ATOM     22  C   UNL     1       9.935  13.716 -21.480  0.00  0.00    +0.000 C 
ATOM     23  C   UNL     1      10.259  15.203 -21.312  0.00  0.00    +0.000 C 
ENDBRANCH  21  22
BRANCH  21  24
ATOM     24  C   UNL     1       8.192  12.178 -21.513  0.00  0.00    +0.000 C 
ATOM     25  C   UNL     1       6.671  12.028 -21.404  0.00  0.00    +0.000 C 
ENDBRANCH  21  24
ENDBRANCH  20  21
ENDBRANCH  17  19
ENDBRANCH   3  17
TORSDOF 5
ENDMDL
MODEL 6
REMARK VINA RESULT:      -4.7      3.179      4.460
REMARK  Name = LUCANTHONE.pdbqt.pdb
REMARK  5 active torsions:
REMARK  status: ('A' for Active; 'I' for Inactive)
REMARK    1  A    between atoms: C_3  and  N_17
REMARK    2  A    between atoms: N_17  and  C_19
REMARK    3  A    between atoms: C_20  and  N_21
REMARK    4  A    between atoms: N_21  and  C_22
REMARK    5  A    between atoms: N_21  and  C_24
REMARK                            x       y       z     vdW  Elec       q    Type
REMARK                         _______ _______ _______ _____ _____    ______ ____
ROOT
ATOM      1  S   UNL     1       2.054 -18.486 -10.247  0.00  0.00    +0.000 S 
ATOM      2  O   UNL     1       3.989 -14.903 -11.735  0.00  0.00    +0.000 OA
ATOM      3  C   UNL     1       2.264 -16.076 -13.598  0.00  0.00    +0.000 A 
ATOM      4  C   UNL     1       2.530 -16.653 -12.324  0.00  0.00    +0.000 A 
ATOM      5  C   UNL     1       1.786 -17.761 -11.866  0.00  0.00    +0.000 A 
ATOM      6  C   UNL     1       0.778 -18.286 -12.710  0.00  0.00    +0.000 A 
ATOM      7  C   UNL     1       3.600 -16.042 -11.484  0.00  0.00    +0.000 A 
ATOM      8  C   UNL     1       1.275 -16.653 -14.403  0.00  0.00    +0.000 A 
ATOM      9  C   UNL     1       4.234 -16.769 -10.376  0.00  0.00    +0.000 A 
ATOM     10  C   UNL     1       0.531 -17.734 -13.962  0.00  0.00    +0.000 A 
ATOM     11  C   UNL     1       3.640 -17.876  -9.787  0.00  0.00    +0.000 A 
ATOM     12  C   UNL     1      -0.091 -19.468 -12.340  0.00  0.00    +0.000 C 
ATOM     13  C   UNL     1       5.468 -16.300  -9.912  0.00  0.00    +0.000 A 
ATOM     14  C   UNL     1       4.298 -18.515  -8.733  0.00  0.00    +0.000 A 
ATOM     15  C   UNL     1       6.119 -16.947  -8.866  0.00  0.00    +0.000 A 
ATOM     16  C   UNL     1       5.533 -18.061  -8.276  0.00  0.00    +0.000 A 
ENDROOT
BRANCH   3  17
ATOM     17  N   UNL     1       3.078 -15.045 -14.137  0.00  0.00    +0.000 N 
ATOM     18  H   UNL     1       2.508 -14.250 -14.462  0.00  0.00    +0.000 HD
BRANCH  17  19
ATOM     19  C   UNL     1       4.228 -15.394 -14.955  0.00  0.00    +0.000 C 
ATOM     20  C   UNL     1       5.439 -15.764 -15.817  0.00  0.00    +0.000 C 
BRANCH  20  21
ATOM     21  N   UNL     1       6.591 -16.124 -16.628  0.00  0.00    +0.000 N 
BRANCH  21  22
ATOM     22  C   UNL     1       6.442 -17.521 -16.991  0.00  0.00    +0.000 C 
ATOM     23  C   UNL     1       6.273 -18.996 -17.366  0.00  0.00    +0.000 C 
ENDBRANCH  21  22
BRANCH  21  24
ATOM     24  C   UNL     1       7.759 -16.043 -15.772  0.00  0.00    +0.000 C 
ATOM     25  C   UNL     1       9.003 -15.970 -14.882  0.00  0.00    +0.000 C 
ENDBRANCH  21  24
ENDBRANCH  20  21
ENDBRANCH  17  19
ENDBRANCH   3  17
TORSDOF 5
ENDMDL
MODEL 7
REMARK VINA RESULT:      -4.7     34.655     36.565
REMARK  Name = LUCANTHONE.pdbqt.pdb
REMARK  5 active torsions:
REMARK  status: ('A' for Active; 'I' for Inactive)
REMARK    1  A    between atoms: C_3  and  N_17
REMARK    2  A    between atoms: N_17  and  C_19
REMARK    3  A    between atoms: C_20  and  N_21
REMARK    4  A    between atoms: N_21  and  C_22
REMARK    5  A    between atoms: N_21  and  C_24
REMARK                            x       y       z     vdW  Elec       q    Type
REMARK                         _______ _______ _______ _____ _____    ______ ____
ROOT
ATOM      1  S   UNL     1      -2.136  20.144  -9.516  0.00  0.00    +0.000 S 
ATOM      2  O   UNL     1      -6.300  19.103  -8.907  0.00  0.00    +0.000 OA
ATOM      3  C   UNL     1      -4.763  18.894  -6.580  0.00  0.00    +0.000 A 
ATOM      4  C   UNL     1      -4.203  19.232  -7.845  0.00  0.00    +0.000 A 
ATOM      5  C   UNL     1      -2.864  19.661  -7.948  0.00  0.00    +0.000 A 
ATOM      6  C   UNL     1      -2.091  19.736  -6.765  0.00  0.00    +0.000 A 
ATOM      7  C   UNL     1      -5.079  19.139  -9.049  0.00  0.00    +0.000 A 
ATOM      8  C   UNL     1      -3.945  18.960  -5.446  0.00  0.00    +0.000 A 
ATOM      9  C   UNL     1      -4.530  19.057 -10.410  0.00  0.00    +0.000 A 
ATOM     10  C   UNL     1      -2.631  19.389  -5.531  0.00  0.00    +0.000 A 
ATOM     11  C   UNL     1      -3.233  19.450 -10.704  0.00  0.00    +0.000 A 
ATOM     12  C   UNL     1      -0.645  20.180  -6.737  0.00  0.00    +0.000 C 
ATOM     13  C   UNL     1      -5.369  18.575 -11.421  0.00  0.00    +0.000 A 
ATOM     14  C   UNL     1      -2.780  19.349 -12.022  0.00  0.00    +0.000 A 
ATOM     15  C   UNL     1      -4.907  18.472 -12.729  0.00  0.00    +0.000 A 
ATOM     16  C   UNL     1      -3.606  18.858 -13.031  0.00  0.00    +0.000 A 
ENDROOT
BRANCH   3  17
ATOM     17  N   UNL     1      -6.065  18.341  -6.461  0.00  0.00    +0.000 N 
ATOM     18  H   UNL     1      -6.772  19.076  -6.310  0.00  0.00    +0.000 HD
BRANCH  17  19
ATOM     19  C   UNL     1      -6.251  17.102  -5.725  0.00  0.00    +0.000 C 
ATOM     20  C   UNL     1      -6.447  15.795  -4.949  0.00  0.00    +0.000 C 
BRANCH  20  21
ATOM     21  N   UNL     1      -6.628  14.550  -4.222  0.00  0.00    +0.000 N 
BRANCH  21  22
ATOM     22  C   UNL     1      -7.606  14.797  -3.178  0.00  0.00    +0.000 C 
ATOM     23  C   UNL     1      -8.648  15.050  -2.085  0.00  0.00    +0.000 C 
ENDBRANCH  21  22
BRANCH  21  24
ATOM     24  C   UNL     1      -5.375  14.261  -3.550  0.00  0.00    +0.000 C 
ATOM     25  C   UNL     1      -4.056  13.970  -2.827  0.00  0.00    +0.000 C 
ENDBRANCH  21  24
ENDBRANCH  20  21
ENDBRANCH  17  19
ENDBRANCH   3  17
TORSDOF 5
ENDMDL
MODEL 8
REMARK VINA RESULT:      -4.7      5.107      7.968
REMARK  Name = LUCANTHONE.pdbqt.pdb
REMARK  5 active torsions:
REMARK  status: ('A' for Active; 'I' for Inactive)
REMARK    1  A    between atoms: C_3  and  N_17
REMARK    2  A    between atoms: N_17  and  C_19
REMARK    3  A    between atoms: C_20  and  N_21
REMARK    4  A    between atoms: N_21  and  C_22
REMARK    5  A    between atoms: N_21  and  C_24
REMARK                            x       y       z     vdW  Elec       q    Type
REMARK                         _______ _______ _______ _____ _____    ______ ____
ROOT
ATOM      1  S   UNL     1      -0.260 -17.677 -17.135  0.00  0.00    +0.000 S 
ATOM      2  O   UNL     1      -4.584 -17.996 -17.140  0.00  0.00    +0.000 OA
ATOM      3  C   UNL     1      -3.601 -16.329 -19.160  0.00  0.00    +0.000 A 
ATOM      4  C   UNL     1      -2.760 -16.940 -18.188  0.00  0.00    +0.000 A 
ATOM      5  C   UNL     1      -1.356 -16.878 -18.310  0.00  0.00    +0.000 A 
ATOM      6  C   UNL     1      -0.809 -16.187 -19.417  0.00  0.00    +0.000 A 
ATOM      7  C   UNL     1      -3.404 -17.660 -17.051  0.00  0.00    +0.000 A 
ATOM      8  C   UNL     1      -3.008 -15.634 -20.219  0.00  0.00    +0.000 A 
ATOM      9  C   UNL     1      -2.683 -17.960 -15.807  0.00  0.00    +0.000 A 
ATOM     10  C   UNL     1      -1.631 -15.574 -20.358  0.00  0.00    +0.000 A 
ATOM     11  C   UNL     1      -1.298 -17.962 -15.741  0.00  0.00    +0.000 A 
ATOM     12  C   UNL     1       0.676 -16.047 -19.666  0.00  0.00    +0.000 C 
ATOM     13  C   UNL     1      -3.444 -18.262 -14.672  0.00  0.00    +0.000 A 
ATOM     14  C   UNL     1      -0.680 -18.262 -14.525  0.00  0.00    +0.000 A 
ATOM     15  C   UNL     1      -2.820 -18.552 -13.463  0.00  0.00    +0.000 A 
ATOM     16  C   UNL     1      -1.432 -18.550 -13.388  0.00  0.00    +0.000 A 
ENDROOT
BRANCH   3  17
ATOM     17  N   UNL     1      -5.010 -16.266 -18.996  0.00  0.00    +0.000 N 
ATOM     18  H   UNL     1      -5.446 -17.189 -19.142  0.00  0.00    +0.000 HD
BRANCH  17  19
ATOM     19  C   UNL     1      -5.740 -15.118 -19.508  0.00  0.00    +0.000 C 
ATOM     20  C   UNL     1      -6.507 -13.906 -20.047  0.00  0.00    +0.000 C 
BRANCH  20  21
ATOM     21  N   UNL     1      -7.235 -12.752 -20.547  0.00  0.00    +0.000 N 
BRANCH  21  22
ATOM     22  C   UNL     1      -8.251 -13.245 -21.460  0.00  0.00    +0.000 C 
ATOM     23  C   UNL     1      -9.325 -13.776 -22.413  0.00  0.00    +0.000 C 
ENDBRANCH  21  22
BRANCH  21  24
ATOM     24  C   UNL     1      -6.307 -11.975 -21.347  0.00  0.00    +0.000 C 
ATOM     25  C   UNL     1      -5.320 -11.173 -22.201  0.00  0.00    +0.000 C 
ENDBRANCH  21  24
ENDBRANCH  20  21
ENDBRANCH  17  19
ENDBRANCH   3  17
TORSDOF 5
ENDMDL
MODEL 9
REMARK VINA RESULT:      -4.6      8.151     12.309
REMARK  Name = LUCANTHONE.pdbqt.pdb
REMARK  5 active torsions:
REMARK  status: ('A' for Active; 'I' for Inactive)
REMARK    1  A    between atoms: C_3  and  N_17
REMARK    2  A    between atoms: N_17  and  C_19
REMARK    3  A    between atoms: C_20  and  N_21
REMARK    4  A    between atoms: N_21  and  C_22
REMARK    5  A    between atoms: N_21  and  C_24
REMARK                            x       y       z     vdW  Elec       q    Type
REMARK                         _______ _______ _______ _____ _____    ______ ____
ROOT
ATOM      1  S   UNL     1      -3.442 -14.431 -21.310  0.00  0.00    +0.000 S 
ATOM      2  O   UNL     1      -6.958 -15.917 -19.255  0.00  0.00    +0.000 OA
ATOM      3  C   UNL     1      -7.313 -13.361 -20.334  0.00  0.00    +0.000 A 
ATOM      4  C   UNL     1      -6.072 -14.057 -20.394  0.00  0.00    +0.000 A 
ATOM      5  C   UNL     1      -5.004 -13.559 -21.169  0.00  0.00    +0.000 A 
ATOM      6  C   UNL     1      -5.196 -12.348 -21.875  0.00  0.00    +0.000 A 
ATOM      7  C   UNL     1      -5.943 -15.332 -19.631  0.00  0.00    +0.000 A 
ATOM      8  C   UNL     1      -7.439 -12.154 -21.031  0.00  0.00    +0.000 A 
ATOM      9  C   UNL     1      -4.636 -15.906 -19.282  0.00  0.00    +0.000 A 
ATOM     10  C   UNL     1      -6.402 -11.659 -21.803  0.00  0.00    +0.000 A 
ATOM     11  C   UNL     1      -3.474 -15.546 -19.948  0.00  0.00    +0.000 A 
ATOM     12  C   UNL     1      -4.134 -11.707 -22.741  0.00  0.00    +0.000 C 
ATOM     13  C   UNL     1      -4.595 -16.850 -18.251  0.00  0.00    +0.000 A 
ATOM     14  C   UNL     1      -2.267 -16.136 -19.567  0.00  0.00    +0.000 A 
ATOM     15  C   UNL     1      -3.387 -17.428 -17.873  0.00  0.00    +0.000 A 
ATOM     16  C   UNL     1      -2.217 -17.067 -18.532  0.00  0.00    +0.000 A 
ENDROOT
BRANCH   3  17
ATOM     17  N   UNL     1      -8.359 -13.770 -19.466  0.00  0.00    +0.000 N 
ATOM     18  H   UNL     1      -8.294 -14.776 -19.248  0.00  0.00    +0.000 HD
BRANCH  17  19
ATOM     19  C   UNL     1      -9.696 -13.234 -19.655  0.00  0.00    +0.000 C 
ATOM     20  C   UNL     1     -11.107 -12.670 -19.853  0.00  0.00    +0.000 C 
BRANCH  20  21
ATOM     21  N   UNL     1     -12.450 -12.146 -20.041  0.00  0.00    +0.000 N 
BRANCH  21  22
ATOM     22  C   UNL     1     -13.091 -12.123 -18.739  0.00  0.00    +0.000 C 
ATOM     23  C   UNL     1     -13.758 -12.110 -17.361  0.00  0.00    +0.000 C 
ENDBRANCH  21  22
BRANCH  21  24
ATOM     24  C   UNL     1     -13.178 -13.113 -20.841  0.00  0.00    +0.000 C 
ATOM     25  C   UNL     1     -13.934 -14.150 -21.677  0.00  0.00    +0.000 C 
ENDBRANCH  21  24
ENDBRANCH  20  21
ENDBRANCH  17  19
ENDBRANCH   3  17
TORSDOF 5
ENDMDL
