MODEL 1
REMARK VINA RESULT:      -5.5      0.000      0.000
REMARK  Name = MeIQx.pdbqt.pdb
REMARK  0 active torsions:
REMARK  status: ('A' for Active; 'I' for Inactive)
REMARK                            x       y       z     vdW  Elec       q    Type
REMARK                         _______ _______ _______ _____ _____    ______ ____
ROOT
ATOM      1  N   UNL     1     -10.531   4.932  -9.227  0.00  0.00    +0.000 N 
ATOM      2  N   UNL     1     -11.513   6.545  -8.071  0.00  0.00    +0.000 NA
ATOM      3  N   UNL     1     -13.503   8.356  -9.246  0.00  0.00    +0.000 NA
ATOM      4  N   UNL     1     -14.146   7.964 -11.991  0.00  0.00    +0.000 NA
ATOM      5  C   UNL     1     -11.373   5.536 -10.121  0.00  0.00    +0.000 A 
ATOM      6  C   UNL     1     -11.980   6.547  -9.376  0.00  0.00    +0.000 A 
ATOM      7  C   UNL     1     -12.933   7.384 -10.008  0.00  0.00    +0.000 A 
ATOM      8  C   UNL     1     -13.244   7.177 -11.374  0.00  0.00    +0.000 A 
ATOM      9  C   UNL     1     -10.636   5.568  -8.000  0.00  0.00    +0.000 A 
ATOM     10  C   UNL     1     -11.661   5.307 -11.469  0.00  0.00    +0.000 A 
ATOM     11  C   UNL     1     -12.604   6.154 -12.060  0.00  0.00    +0.000 A 
ATOM     12  C   UNL     1      -9.704   3.795  -9.514  0.00  0.00    +0.000 C 
ATOM     13  C   UNL     1     -14.404   9.133  -9.882  0.00  0.00    +0.000 A 
ATOM     14  C   UNL     1     -14.716   8.938 -11.225  0.00  0.00    +0.000 A 
ATOM     15  C   UNL     1     -15.082  10.228  -9.109  0.00  0.00    +0.000 C 
ATOM     16  N   UNL     1      -9.933   5.222  -6.899  0.00  0.00    +0.000 N 
ATOM     17  H   UNL     1     -10.221   5.609  -6.005  0.00  0.00    +0.000 HD
ATOM     18  H   UNL     1      -9.443   4.332  -6.851  0.00  0.00    +0.000 HD
ENDROOT
TORSDOF 0
ENDMDL
MODEL 2
REMARK VINA RESULT:      -5.4     13.777     16.278
REMARK  Name = MeIQx.pdbqt.pdb
REMARK  0 active torsions:
REMARK  status: ('A' for Active; 'I' for Inactive)
REMARK                            x       y       z     vdW  Elec       q    Type
REMARK                         _______ _______ _______ _____ _____    ______ ____
ROOT
ATOM      1  N   UNL     1      -0.139   1.832 -20.458  0.00  0.00    +0.000 N 
ATOM      2  N   UNL     1      -1.728   1.950 -18.920  0.00  0.00    +0.000 NA
ATOM      3  N   UNL     1      -3.086  -0.426 -17.855  0.00  0.00    +0.000 NA
ATOM      4  N   UNL     1      -2.275  -2.951 -18.888  0.00  0.00    +0.000 NA
ATOM      5  C   UNL     1      -0.505   0.531 -20.238  0.00  0.00    +0.000 A 
ATOM      6  C   UNL     1      -1.505   0.627 -19.270  0.00  0.00    +0.000 A 
ATOM      7  C   UNL     1      -2.117  -0.562 -18.800  0.00  0.00    +0.000 A 
ATOM      8  C   UNL     1      -1.703  -1.812 -19.323  0.00  0.00    +0.000 A 
ATOM      9  C   UNL     1      -0.900   2.663 -19.650  0.00  0.00    +0.000 A 
ATOM     10  C   UNL     1      -0.075  -0.686 -20.770  0.00  0.00    +0.000 A 
ATOM     11  C   UNL     1      -0.703  -1.838 -20.285  0.00  0.00    +0.000 A 
ATOM     12  C   UNL     1       0.898   2.255 -21.355  0.00  0.00    +0.000 C 
ATOM     13  C   UNL     1      -3.645  -1.579 -17.434  0.00  0.00    +0.000 A 
ATOM     14  C   UNL     1      -3.246  -2.812 -17.941  0.00  0.00    +0.000 A 
ATOM     15  C   UNL     1      -4.722  -1.515 -16.388  0.00  0.00    +0.000 C 
ATOM     16  N   UNL     1      -0.793   4.010 -19.626  0.00  0.00    +0.000 N 
ATOM     17  H   UNL     1      -1.242   4.514 -18.867  0.00  0.00    +0.000 HD
ATOM     18  H   UNL     1       0.007   4.477 -20.046  0.00  0.00    +0.000 HD
ENDROOT
TORSDOF 0
ENDMDL
MODEL 3
REMARK VINA RESULT:      -5.2     24.902     28.095
REMARK  Name = MeIQx.pdbqt.pdb
REMARK  0 active torsions:
REMARK  status: ('A' for Active; 'I' for Inactive)
REMARK                            x       y       z     vdW  Elec       q    Type
REMARK                         _______ _______ _______ _____ _____    ______ ____
ROOT
ATOM      1  N   UNL     1      14.940  -5.801  -9.265  0.00  0.00    +0.000 N 
ATOM      2  N   UNL     1      13.655  -4.068  -8.764  0.00  0.00    +0.000 NA
ATOM      3  N   UNL     1      11.150  -4.332  -7.255  0.00  0.00    +0.000 NA
ATOM      4  N   UNL     1      10.404  -6.953  -6.436  0.00  0.00    +0.000 NA
ATOM      5  C   UNL     1      13.889  -6.338  -8.570  0.00  0.00    +0.000 A 
ATOM      6  C   UNL     1      13.093  -5.234  -8.266  0.00  0.00    +0.000 A 
ATOM      7  C   UNL     1      11.896  -5.434  -7.533  0.00  0.00    +0.000 A 
ATOM      8  C   UNL     1      11.537  -6.744  -7.132  0.00  0.00    +0.000 A 
ATOM      9  C   UNL     1      14.765  -4.430  -9.367  0.00  0.00    +0.000 A 
ATOM     10  C   UNL     1      13.562  -7.640  -8.186  0.00  0.00    +0.000 A 
ATOM     11  C   UNL     1      12.373  -7.801  -7.467  0.00  0.00    +0.000 A 
ATOM     12  C   UNL     1      16.059  -6.545  -9.766  0.00  0.00    +0.000 C 
ATOM     13  C   UNL     1      10.019  -4.562  -6.558  0.00  0.00    +0.000 A 
ATOM     14  C   UNL     1       9.657  -5.846  -6.159  0.00  0.00    +0.000 A 
ATOM     15  C   UNL     1       9.140  -3.395  -6.207  0.00  0.00    +0.000 C 
ATOM     16  N   UNL     1      15.623  -3.598  -9.999  0.00  0.00    +0.000 N 
ATOM     17  H   UNL     1      15.519  -2.599  -9.851  0.00  0.00    +0.000 HD
ATOM     18  H   UNL     1      16.560  -3.906 -10.250  0.00  0.00    +0.000 HD
ENDROOT
TORSDOF 0
ENDMDL
MODEL 4
REMARK VINA RESULT:      -5.1     26.092     28.669
REMARK  Name = MeIQx.pdbqt.pdb
REMARK  0 active torsions:
REMARK  status: ('A' for Active; 'I' for Inactive)
REMARK                            x       y       z     vdW  Elec       q    Type
REMARK                         _______ _______ _______ _____ _____    ______ ____
ROOT
ATOM      1  N   UNL     1      15.981  -1.499  -6.835  0.00  0.00    +0.000 N 
ATOM      2  N   UNL     1      13.838  -1.599  -6.288  0.00  0.00    +0.000 NA
ATOM      3  N   UNL     1      12.140  -3.906  -6.931  0.00  0.00    +0.000 NA
ATOM      4  N   UNL     1      13.367  -6.068  -8.318  0.00  0.00    +0.000 NA
ATOM      5  C   UNL     1      15.559  -2.714  -7.306  0.00  0.00    +0.000 A 
ATOM      6  C   UNL     1      14.211  -2.757  -6.953  0.00  0.00    +0.000 A 
ATOM      7  C   UNL     1      13.450  -3.903  -7.295  0.00  0.00    +0.000 A 
ATOM      8  C   UNL     1      14.074  -4.971  -7.985  0.00  0.00    +0.000 A 
ATOM      9  C   UNL     1      14.917  -0.850  -6.231  0.00  0.00    +0.000 A 
ATOM     10  C   UNL     1      16.201  -3.753  -7.984  0.00  0.00    +0.000 A 
ATOM     11  C   UNL     1      15.420  -4.866  -8.307  0.00  0.00    +0.000 A 
ATOM     12  C   UNL     1      17.325  -1.005  -6.923  0.00  0.00    +0.000 C 
ATOM     13  C   UNL     1      11.449  -5.013  -7.274  0.00  0.00    +0.000 A 
ATOM     14  C   UNL     1      12.052  -6.068  -7.953  0.00  0.00    +0.000 A 
ATOM     15  C   UNL     1       9.995  -5.096  -6.905  0.00  0.00    +0.000 C 
ATOM     16  N   UNL     1      14.993   0.375  -5.666  0.00  0.00    +0.000 N 
ATOM     17  H   UNL     1      14.224   0.681  -5.076  0.00  0.00    +0.000 HD
ATOM     18  H   UNL     1      15.894   0.801  -5.462  0.00  0.00    +0.000 HD
ENDROOT
TORSDOF 0
ENDMDL
MODEL 5
REMARK VINA RESULT:      -5.1      2.452      4.900
REMARK  Name = MeIQx.pdbqt.pdb
REMARK  0 active torsions:
REMARK  status: ('A' for Active; 'I' for Inactive)
REMARK                            x       y       z     vdW  Elec       q    Type
REMARK                         _______ _______ _______ _____ _____    ______ ____
ROOT
ATOM      1  N   UNL     1     -15.298   5.373 -12.354  0.00  0.00    +0.000 N 
ATOM      2  N   UNL     1     -14.090   4.157 -10.952  0.00  0.00    +0.000 NA
ATOM      3  N   UNL     1     -11.958   5.302  -9.289  0.00  0.00    +0.000 NA
ATOM      4  N   UNL     1     -11.479   8.096  -9.544  0.00  0.00    +0.000 NA
ATOM      5  C   UNL     1     -14.430   6.264 -11.783  0.00  0.00    +0.000 A 
ATOM      6  C   UNL     1     -13.679   5.481 -10.906  0.00  0.00    +0.000 A 
ATOM      7  C   UNL     1     -12.665   6.100 -10.133  0.00  0.00    +0.000 A 
ATOM      8  C   UNL     1     -12.438   7.491 -10.270  0.00  0.00    +0.000 A 
ATOM      9  C   UNL     1     -15.063   4.110 -11.834  0.00  0.00    +0.000 A 
ATOM     10  C   UNL     1     -14.230   7.638 -11.937  0.00  0.00    +0.000 A 
ATOM     11  C   UNL     1     -13.220   8.214 -11.161  0.00  0.00    +0.000 A 
ATOM     12  C   UNL     1     -16.314   5.711 -13.308  0.00  0.00    +0.000 C 
ATOM     13  C   UNL     1     -11.002   5.927  -8.572  0.00  0.00    +0.000 A 
ATOM     14  C   UNL     1     -10.770   7.293  -8.699  0.00  0.00    +0.000 A 
ATOM     15  C   UNL     1     -10.177   5.115  -7.613  0.00  0.00    +0.000 C 
ATOM     16  N   UNL     1     -15.746   2.999 -12.190  0.00  0.00    +0.000 N 
ATOM     17  H   UNL     1     -15.644   2.168 -11.617  0.00  0.00    +0.000 HD
ATOM     18  H   UNL     1     -16.621   3.067 -12.706  0.00  0.00    +0.000 HD
ENDROOT
TORSDOF 0
ENDMDL
MODEL 6
REMARK VINA RESULT:      -5.0     23.062     24.147
REMARK  Name = MeIQx.pdbqt.pdb
REMARK  0 active torsions:
REMARK  status: ('A' for Active; 'I' for Inactive)
REMARK                            x       y       z     vdW  Elec       q    Type
REMARK                         _______ _______ _______ _____ _____    ______ ____
ROOT
ATOM      1  N   UNL     1      10.948   1.267 -16.489  0.00  0.00    +0.000 N 
ATOM      2  N   UNL     1      10.187  -0.577 -17.450  0.00  0.00    +0.000 NA
ATOM      3  N   UNL     1       8.183  -0.539 -19.596  0.00  0.00    +0.000 NA
ATOM      4  N   UNL     1       7.224   2.009 -20.424  0.00  0.00    +0.000 NA
ATOM      5  C   UNL     1      10.047   1.708 -17.421  0.00  0.00    +0.000 A 
ATOM      6  C   UNL     1       9.579   0.535 -18.012  0.00  0.00    +0.000 A 
ATOM      7  C   UNL     1       8.612   0.628 -19.044  0.00  0.00    +0.000 A 
ATOM      8  C   UNL     1       8.143   1.902 -19.446  0.00  0.00    +0.000 A 
ATOM      9  C   UNL     1      11.005  -0.117 -16.530  0.00  0.00    +0.000 A 
ATOM     10  C   UNL     1       9.605   2.978 -17.798  0.00  0.00    +0.000 A 
ATOM     11  C   UNL     1       8.649   3.032 -18.817  0.00  0.00    +0.000 A 
ATOM     12  C   UNL     1      11.734   2.115 -15.640  0.00  0.00    +0.000 C 
ATOM     13  C   UNL     1       7.263  -0.411 -20.573  0.00  0.00    +0.000 A 
ATOM     14  C   UNL     1       6.795   0.837 -20.975  0.00  0.00    +0.000 A 
ATOM     15  C   UNL     1       6.740  -1.653 -21.236  0.00  0.00    +0.000 C 
ATOM     16  N   UNL     1      11.795  -0.871 -15.733  0.00  0.00    +0.000 N 
ATOM     17  H   UNL     1      11.919  -1.851 -15.969  0.00  0.00    +0.000 HD
ATOM     18  H   UNL     1      12.555  -0.451 -15.204  0.00  0.00    +0.000 HD
ENDROOT
TORSDOF 0
ENDMDL
MODEL 7
REMARK VINA RESULT:      -5.0     24.295     25.742
REMARK  Name = MeIQx.pdbqt.pdb
REMARK  0 active torsions:
REMARK  status: ('A' for Active; 'I' for Inactive)
REMARK                            x       y       z     vdW  Elec       q    Type
REMARK                         _______ _______ _______ _____ _____    ______ ____
ROOT
ATOM      1  N   UNL     1      10.941   1.710 -16.595  0.00  0.00    +0.000 N 
ATOM      2  N   UNL     1      11.925  -0.271 -16.486  0.00  0.00    +0.000 NA
ATOM      3  N   UNL     1      11.091  -2.552 -18.136  0.00  0.00    +0.000 NA
ATOM      4  N   UNL     1       8.919  -2.127 -19.926  0.00  0.00    +0.000 NA
ATOM      5  C   UNL     1      10.269   0.938 -17.504  0.00  0.00    +0.000 A 
ATOM      6  C   UNL     1      10.901  -0.302 -17.420  0.00  0.00    +0.000 A 
ATOM      7  C   UNL     1      10.446  -1.359 -18.247  0.00  0.00    +0.000 A 
ATOM      8  C   UNL     1       9.365  -1.133 -19.133  0.00  0.00    +0.000 A 
ATOM      9  C   UNL     1      11.932   0.949 -15.995  0.00  0.00    +0.000 A 
ATOM     10  C   UNL     1       9.202   1.191 -18.370  0.00  0.00    +0.000 A 
ATOM     11  C   UNL     1       8.778   0.124 -19.169  0.00  0.00    +0.000 A 
ATOM     12  C   UNL     1      10.681   3.098 -16.341  0.00  0.00    +0.000 C 
ATOM     13  C   UNL     1      10.629  -3.533 -18.938  0.00  0.00    +0.000 A 
ATOM     14  C   UNL     1       9.567  -3.322 -19.811  0.00  0.00    +0.000 A 
ATOM     15  C   UNL     1      11.291  -4.881 -18.877  0.00  0.00    +0.000 C 
ATOM     16  N   UNL     1      12.776   1.408 -15.045  0.00  0.00    +0.000 N 
ATOM     17  H   UNL     1      13.589   0.846 -14.812  0.00  0.00    +0.000 HD
ATOM     18  H   UNL     1      12.872   2.406 -14.870  0.00  0.00    +0.000 HD
ENDROOT
TORSDOF 0
ENDMDL
MODEL 8
REMARK VINA RESULT:      -4.8      2.238      3.443
REMARK  Name = MeIQx.pdbqt.pdb
REMARK  0 active torsions:
REMARK  status: ('A' for Active; 'I' for Inactive)
REMARK                            x       y       z     vdW  Elec       q    Type
REMARK                         _______ _______ _______ _____ _____    ______ ____
ROOT
ATOM      1  N   UNL     1     -11.738   6.520  -9.235  0.00  0.00    +0.000 N 
ATOM      2  N   UNL     1     -12.853   4.828 -10.129  0.00  0.00    +0.000 NA
ATOM      3  N   UNL     1     -15.105   5.209 -11.974  0.00  0.00    +0.000 NA
ATOM      4  N   UNL     1     -15.830   7.891 -12.593  0.00  0.00    +0.000 NA
ATOM      5  C   UNL     1     -12.692   7.110 -10.020  0.00  0.00    +0.000 A 
ATOM      6  C   UNL     1     -13.382   6.031 -10.572  0.00  0.00    +0.000 A 
ATOM      7  C   UNL     1     -14.459   6.288 -11.456  0.00  0.00    +0.000 A 
ATOM      8  C   UNL     1     -14.809   7.628 -11.755  0.00  0.00    +0.000 A 
ATOM      9  C   UNL     1     -11.866   5.142  -9.320  0.00  0.00    +0.000 A 
ATOM     10  C   UNL     1     -13.012   8.441 -10.298  0.00  0.00    +0.000 A 
ATOM     11  C   UNL     1     -14.081   8.657 -11.173  0.00  0.00    +0.000 A 
ATOM     12  C   UNL     1     -10.742   7.225  -8.481  0.00  0.00    +0.000 C 
ATOM     13  C   UNL     1     -16.124   5.494 -12.810  0.00  0.00    +0.000 A 
ATOM     14  C   UNL     1     -16.476   6.807 -13.110  0.00  0.00    +0.000 A 
ATOM     15  C   UNL     1     -16.887   4.356 -13.427  0.00  0.00    +0.000 C 
ATOM     16  N   UNL     1     -11.080   4.262  -8.661  0.00  0.00    +0.000 N 
ATOM     17  H   UNL     1     -11.117   3.285  -8.937  0.00  0.00    +0.000 HD
ATOM     18  H   UNL     1     -10.208   4.560  -8.231  0.00  0.00    +0.000 HD
ENDROOT
TORSDOF 0
ENDMDL
MODEL 9
REMARK VINA RESULT:      -4.7     20.823     22.637
REMARK  Name = MeIQx.pdbqt.pdb
REMARK  0 active torsions:
REMARK  status: ('A' for Active; 'I' for Inactive)
REMARK                            x       y       z     vdW  Elec       q    Type
REMARK                         _______ _______ _______ _____ _____    ______ ____
ROOT
ATOM      1  N   UNL     1       5.644   3.500   2.161  0.00  0.00    +0.000 N 
ATOM      2  N   UNL     1       7.742   4.181   2.348  0.00  0.00    +0.000 NA
ATOM      3  N   UNL     1       9.203   5.450   0.139  0.00  0.00    +0.000 NA
ATOM      4  N   UNL     1       7.801   5.786  -2.314  0.00  0.00    +0.000 NA
ATOM      5  C   UNL     1       5.948   4.025   0.933  0.00  0.00    +0.000 A 
ATOM      6  C   UNL     1       7.271   4.446   1.071  0.00  0.00    +0.000 A 
ATOM      7  C   UNL     1       7.915   5.052  -0.037  0.00  0.00    +0.000 A 
ATOM      8  C   UNL     1       7.204   5.213  -1.252  0.00  0.00    +0.000 A 
ATOM      9  C   UNL     1       6.749   3.606   2.989  0.00  0.00    +0.000 A 
ATOM     10  C   UNL     1       5.222   4.172  -0.251  0.00  0.00    +0.000 A 
ATOM     11  C   UNL     1       5.890   4.772  -1.323  0.00  0.00    +0.000 A 
ATOM     12  C   UNL     1       4.365   2.966   2.532  0.00  0.00    +0.000 C 
ATOM     13  C   UNL     1       9.782   6.021  -0.937  0.00  0.00    +0.000 A 
ATOM     14  C   UNL     1       9.093   6.183  -2.135  0.00  0.00    +0.000 A 
ATOM     15  C   UNL     1      11.204   6.491  -0.823  0.00  0.00    +0.000 C 
ATOM     16  N   UNL     1       6.786   3.176   4.270  0.00  0.00    +0.000 N 
ATOM     17  H   UNL     1       7.562   3.475   4.855  0.00  0.00    +0.000 HD
ATOM     18  H   UNL     1       5.930   2.945   4.768  0.00  0.00    +0.000 HD
ENDROOT
TORSDOF 0
ENDMDL
