MODEL 1
REMARK VINA RESULT:      -7.0      0.000      0.000
REMARK  Name = Methotrexate.pdbqt.pdb
REMARK  9 active torsions:
REMARK  status: ('A' for Active; 'I' for Inactive)
REMARK    1  A    between atoms: C_1  and  N_22
REMARK    2  A    between atoms: C_2  and  C_9
REMARK    3  A    between atoms: CA_11  and  C_13
REMARK    4  A    between atoms: CA_11  and  CB_16
REMARK    5  A    between atoms: C_13  and  O_14
REMARK    6  A    between atoms: CG_17  and  CD_19
REMARK    7  A    between atoms: CD_19  and  OE1_20
REMARK    8  A    between atoms: N_22  and  C_24
REMARK    9  A    between atoms: C_24  and  C_31
REMARK                            x       y       z     vdW  Elec       q    Type
REMARK                         _______ _______ _______ _____ _____    ______ ____
ROOT
ATOM      1  C   UNL     1       5.412   0.233 -20.583  0.00  0.00    +0.000 A 
ATOM      2  C   UNL     1       2.684   0.737 -20.036  0.00  0.00    +0.000 A 
ATOM      3  C   UNL     1       4.955   0.435 -19.273  0.00  0.00    +0.000 A 
ATOM      4  C   UNL     1       4.462   0.298 -21.612  0.00  0.00    +0.000 A 
ATOM      5  C   UNL     1       3.610   0.682 -18.998  0.00  0.00    +0.000 A 
ATOM      6  C   UNL     1       3.114   0.545 -21.347  0.00  0.00    +0.000 A 
ENDROOT
BRANCH   2   9
ATOM      7  O   UNL     1       0.649   0.298 -18.984  0.00  0.00    +0.000 OA
ATOM      8  N   UNL     1       0.680   2.032 -20.521  0.00  0.00    +0.000 N 
ATOM      9  C   ACE A   0       1.242   0.998 -19.795  0.00  0.00    +0.000 C 
ATOM     10  H   UNL     1       1.255   2.558 -21.173  0.00  0.00    +0.000 HD
ATOM     11  CA  UNL     1      -0.634   2.463 -20.475  0.00  0.00    +0.000 C 
BRANCH  11  13
ATOM     12  OXT UNL     1      -1.386   4.676 -20.966  0.00  0.00    +0.000 OA
ATOM     13  C   UNL     1      -0.969   3.601 -21.367  0.00  0.00    +0.000 C 
BRANCH  13  14
ATOM     14  O   UNL     1      -0.777   3.353 -22.671  0.00  0.00    +0.000 OA
ATOM     15  H   UNL     1      -1.346   3.998 -23.140  0.00  0.00    +0.000 HD
ENDBRANCH  13  14
ENDBRANCH  11  13
BRANCH  11  16
ATOM     16  CB  UNL     1      -1.603   1.856 -19.634  0.00  0.00    +0.000 C 
ATOM     17  CG  UNL     1      -2.640   1.194 -18.719  0.00  0.00    +0.000 C 
BRANCH  17  19
ATOM     18  OE2 UNL     1      -4.496  -0.151 -18.259  0.00  0.00    +0.000 OA
ATOM     19  CD  UNL     1      -3.594   0.565 -17.857  0.00  0.00    +0.000 C 
BRANCH  19  20
ATOM     20  OE1 UNL     1      -3.425   0.846 -16.553  0.00  0.00    +0.000 OA
ATOM     21  HE1 UNL     1      -4.311   0.688 -16.170  0.00  0.00    +0.000 HD
ENDBRANCH  19  20
ENDBRANCH  17  19
ENDBRANCH  11  16
ENDBRANCH   2   9
BRANCH   1  22
ATOM     22  N   UNL     1       6.783   0.004 -20.847  0.00  0.00    +0.000 N 
ATOM     23  C   UNL     1       7.213  -1.040 -21.761  0.00  0.00    +0.000 C 
BRANCH  22  24
ATOM     24  C   UNL     1       7.796   0.480 -19.928  0.00  0.00    +0.000 C 
BRANCH  24  31
ATOM     25  N   UNL     1       9.469   0.037 -18.389  0.00  0.00    +0.000 NA
ATOM     26  N   UNL     1       9.997   2.924 -17.850  0.00  0.00    +0.000 NA
ATOM     27  N   UNL     1      11.610   2.319 -16.306  0.00  0.00    +0.000 NA
ATOM     28  N   UNL     1      12.190   0.058 -15.902  0.00  0.00    +0.000 NA
ATOM     29  N   UNL     1      11.253  -1.754 -16.947  0.00  0.00    +0.000 N 
ATOM     30  N   UNL     1      13.202   1.792 -14.774  0.00  0.00    +0.000 N 
ATOM     31  C   UNL     1       8.790   0.948 -19.029  0.00  0.00    +0.000 C 
ATOM     32  C   UNL     1       9.155   2.282 -18.673  0.00  0.00    +0.000 C 
ATOM     33  C   UNL     1      10.447   0.524 -17.499  0.00  0.00    +0.000 C 
ATOM     34  C   UNL     1      10.673   1.993 -17.232  0.00  0.00    +0.000 C 
ATOM     35  C   UNL     1      11.329  -0.398 -16.758  0.00  0.00    +0.000 C 
ATOM     36  C   UNL     1      12.286   1.402 -15.693  0.00  0.00    +0.000 C 
ATOM     37  H   UNL     1      11.643  -2.302 -16.190  0.00  0.00    +0.000 HD
ATOM     38  H   UNL     1      10.380  -2.101 -17.330  0.00  0.00    +0.000 HD
ATOM     39  H   UNL     1      13.957   1.128 -14.662  0.00  0.00    +0.000 HD
ATOM     40  H   UNL     1      13.497   2.751 -14.899  0.00  0.00    +0.000 HD
ENDBRANCH  24  31
ENDBRANCH  22  24
ENDBRANCH   1  22
TORSDOF 9
ENDMDL
MODEL 2
REMARK VINA RESULT:      -7.0      5.134     11.551
REMARK  Name = Methotrexate.pdbqt.pdb
REMARK  9 active torsions:
REMARK  status: ('A' for Active; 'I' for Inactive)
REMARK    1  A    between atoms: C_1  and  N_22
REMARK    2  A    between atoms: C_2  and  C_9
REMARK    3  A    between atoms: CA_11  and  C_13
REMARK    4  A    between atoms: CA_11  and  CB_16
REMARK    5  A    between atoms: C_13  and  O_14
REMARK    6  A    between atoms: CG_17  and  CD_19
REMARK    7  A    between atoms: CD_19  and  OE1_20
REMARK    8  A    between atoms: N_22  and  C_24
REMARK    9  A    between atoms: C_24  and  C_31
REMARK                            x       y       z     vdW  Elec       q    Type
REMARK                         _______ _______ _______ _____ _____    ______ ____
ROOT
ATOM      1  C   UNL     1       4.370   0.513 -18.715  0.00  0.00    +0.000 A 
ATOM      2  C   UNL     1       7.169   0.899 -18.842  0.00  0.00    +0.000 A 
ATOM      3  C   UNL     1       5.215  -0.453 -19.279  0.00  0.00    +0.000 A 
ATOM      4  C   UNL     1       4.969   1.682 -18.223  0.00  0.00    +0.000 A 
ATOM      5  C   UNL     1       6.597  -0.268 -19.342  0.00  0.00    +0.000 A 
ATOM      6  C   UNL     1       6.349   1.876 -18.282  0.00  0.00    +0.000 A 
ENDROOT
BRANCH   2   9
ATOM      7  O   UNL     1       9.163   1.315 -19.979  0.00  0.00    +0.000 OA
ATOM      8  N   UNL     1       9.287   1.156 -17.671  0.00  0.00    +0.000 N 
ATOM      9  C   ACE A   0       8.633   1.143 -18.888  0.00  0.00    +0.000 C 
ATOM     10  H   UNL     1       8.759   1.002 -16.816  0.00  0.00    +0.000 HD
ATOM     11  CA  UNL     1      10.639   1.358 -17.454  0.00  0.00    +0.000 C 
BRANCH  11  13
ATOM     12  OXT UNL     1      11.627   2.253 -15.472  0.00  0.00    +0.000 OA
ATOM     13  C   UNL     1      11.075   1.320 -16.037  0.00  0.00    +0.000 C 
BRANCH  13  14
ATOM     14  O   UNL     1      10.816   0.162 -15.411  0.00  0.00    +0.000 OA
ATOM     15  H   UNL     1       9.959  -0.140 -15.779  0.00  0.00    +0.000 HD
ENDBRANCH  13  14
ENDBRANCH  11  13
BRANCH  11  16
ATOM     16  CB  UNL     1      11.553   1.583 -18.517  0.00  0.00    +0.000 C 
ATOM     17  CG  UNL     1      12.549   1.832 -19.655  0.00  0.00    +0.000 C 
BRANCH  17  19
ATOM     18  OE2 UNL     1      14.566   1.503 -20.791  0.00  0.00    +0.000 OA
ATOM     19  CD  UNL     1      13.491   2.073 -20.706  0.00  0.00    +0.000 C 
BRANCH  19  20
ATOM     20  OE1 UNL     1      13.097   3.004 -21.594  0.00  0.00    +0.000 OA
ATOM     21  HE1 UNL     1      12.733   3.715 -21.029  0.00  0.00    +0.000 HD
ENDBRANCH  19  20
ENDBRANCH  17  19
ENDBRANCH  11  16
ENDBRANCH   2   9
BRANCH   1  22
ATOM     22  N   UNL     1       2.969   0.320 -18.676  0.00  0.00    +0.000 N 
ATOM     23  C   UNL     1       2.393  -0.964 -18.319  0.00  0.00    +0.000 C 
BRANCH  22  24
ATOM     24  C   UNL     1       2.085   1.220 -19.387  0.00  0.00    +0.000 C 
BRANCH  24  31
ATOM     25  N   UNL     1       1.684   2.632 -21.178  0.00  0.00    +0.000 NA
ATOM     26  N   UNL     1      -1.041   3.382 -20.219  0.00  0.00    +0.000 NA
ATOM     27  N   UNL     1      -1.273   4.788 -22.042  0.00  0.00    +0.000 NA
ATOM     28  N   UNL     1       0.392   4.973 -23.717  0.00  0.00    +0.000 NA
ATOM     29  N   UNL     1       2.378   3.828 -23.739  0.00  0.00    +0.000 N 
ATOM     30  N   UNL     1      -1.561   6.189 -23.806  0.00  0.00    +0.000 N 
ATOM     31  C   UNL     1       1.218   2.104 -20.081  0.00  0.00    +0.000 C 
ATOM     32  C   UNL     1      -0.098   2.551 -19.750  0.00  0.00    +0.000 C 
ATOM     33  C   UNL     1       0.807   3.509 -21.848  0.00  0.00    +0.000 C 
ATOM     34  C   UNL     1      -0.558   3.886 -21.323  0.00  0.00    +0.000 C 
ATOM     35  C   UNL     1       1.184   4.126 -23.135  0.00  0.00    +0.000 C 
ATOM     36  C   UNL     1      -0.802   5.287 -23.138  0.00  0.00    +0.000 C 
ATOM     37  H   UNL     1       2.685   4.517 -24.416  0.00  0.00    +0.000 HD
ATOM     38  H   UNL     1       3.103   3.462 -23.132  0.00  0.00    +0.000 HD
ATOM     39  H   UNL     1      -1.371   6.207 -24.800  0.00  0.00    +0.000 HD
ATOM     40  H   UNL     1      -2.541   6.129 -23.564  0.00  0.00    +0.000 HD
ENDBRANCH  24  31
ENDBRANCH  22  24
ENDBRANCH   1  22
TORSDOF 9
ENDMDL
MODEL 3
REMARK VINA RESULT:      -6.8     20.181     23.007
REMARK  Name = Methotrexate.pdbqt.pdb
REMARK  9 active torsions:
REMARK  status: ('A' for Active; 'I' for Inactive)
REMARK    1  A    between atoms: C_1  and  N_22
REMARK    2  A    between atoms: C_2  and  C_9
REMARK    3  A    between atoms: CA_11  and  C_13
REMARK    4  A    between atoms: CA_11  and  CB_16
REMARK    5  A    between atoms: C_13  and  O_14
REMARK    6  A    between atoms: CG_17  and  CD_19
REMARK    7  A    between atoms: CD_19  and  OE1_20
REMARK    8  A    between atoms: N_22  and  C_24
REMARK    9  A    between atoms: C_24  and  C_31
REMARK                            x       y       z     vdW  Elec       q    Type
REMARK                         _______ _______ _______ _____ _____    ______ ____
ROOT
ATOM      1  C   UNL     1     -12.549  11.017  -5.414  0.00  0.00    +0.000 A 
ATOM      2  C   UNL     1     -12.713   8.779  -7.135  0.00  0.00    +0.000 A 
ATOM      3  C   UNL     1     -11.938   9.798  -5.088  0.00  0.00    +0.000 A 
ATOM      4  C   UNL     1     -13.252  11.079  -6.626  0.00  0.00    +0.000 A 
ATOM      5  C   UNL     1     -12.014   8.692  -5.934  0.00  0.00    +0.000 A 
ATOM      6  C   UNL     1     -13.334   9.978  -7.479  0.00  0.00    +0.000 A 
ENDROOT
BRANCH   2   9
ATOM      7  O   UNL     1     -13.760   7.609  -8.860  0.00  0.00    +0.000 OA
ATOM      8  N   UNL     1     -11.844   6.662  -7.965  0.00  0.00    +0.000 N 
ATOM      9  C   ACE A   0     -12.825   7.630  -8.069  0.00  0.00    +0.000 C 
ATOM     10  H   UNL     1     -11.106   6.768  -7.274  0.00  0.00    +0.000 HD
ATOM     11  CA  UNL     1     -11.733   5.505  -8.715  0.00  0.00    +0.000 C 
BRANCH  11  13
ATOM     12  OXT UNL     1     -10.171   3.744  -9.121  0.00  0.00    +0.000 OA
ATOM     13  C   UNL     1     -10.574   4.637  -8.391  0.00  0.00    +0.000 C 
BRANCH  13  14
ATOM     14  O   UNL     1      -9.992   4.912  -7.214  0.00  0.00    +0.000 OA
ATOM     15  H   UNL     1      -9.449   4.123  -7.008  0.00  0.00    +0.000 HD
ENDBRANCH  13  14
ENDBRANCH  11  13
BRANCH  11  16
ATOM     16  CB  UNL     1     -12.667   5.164  -9.728  0.00  0.00    +0.000 C 
ATOM     17  CG  UNL     1     -13.687   4.803 -10.815  0.00  0.00    +0.000 C 
BRANCH  17  19
ATOM     18  OE2 UNL     1     -15.251   5.309 -12.477  0.00  0.00    +0.000 OA
ATOM     19  CD  UNL     1     -14.652   4.475 -11.819  0.00  0.00    +0.000 C 
BRANCH  19  20
ATOM     20  OE1 UNL     1     -14.861   3.154 -11.968  0.00  0.00    +0.000 OA
ATOM     21  HE1 UNL     1     -14.712   2.799 -11.070  0.00  0.00    +0.000 HD
ENDBRANCH  19  20
ENDBRANCH  17  19
ENDBRANCH  11  16
ENDBRANCH   2   9
BRANCH   1  22
ATOM     22  N   UNL     1     -12.479  12.124  -4.534  0.00  0.00    +0.000 N 
ATOM     23  C   UNL     1     -13.647  12.584  -3.805  0.00  0.00    +0.000 C 
BRANCH  22  24
ATOM     24  C   UNL     1     -11.400  13.083  -4.648  0.00  0.00    +0.000 C 
BRANCH  24  31
ATOM     25  N   UNL     1      -9.162  13.619  -4.387  0.00  0.00    +0.000 NA
ATOM     26  N   UNL     1      -9.532  16.427  -5.325  0.00  0.00    +0.000 NA
ATOM     27  N   UNL     1      -7.280  16.821  -4.968  0.00  0.00    +0.000 NA
ATOM     28  N   UNL     1      -5.800  15.123  -4.234  0.00  0.00    +0.000 NA
ATOM     29  N   UNL     1      -6.392  12.954  -3.792  0.00  0.00    +0.000 N 
ATOM     30  N   UNL     1      -5.080  17.273  -4.635  0.00  0.00    +0.000 N 
ATOM     31  C   UNL     1     -10.344  14.024  -4.760  0.00  0.00    +0.000 C 
ATOM     32  C   UNL     1     -10.367  15.387  -5.189  0.00  0.00    +0.000 C 
ATOM     33  C   UNL     1      -8.130  14.572  -4.503  0.00  0.00    +0.000 C 
ATOM     34  C   UNL     1      -8.356  15.994  -4.959  0.00  0.00    +0.000 C 
ATOM     35  C   UNL     1      -6.734  14.225  -4.175  0.00  0.00    +0.000 C 
ATOM     36  C   UNL     1      -6.112  16.396  -4.612  0.00  0.00    +0.000 C 
ATOM     37  H   UNL     1      -5.515  12.892  -3.288  0.00  0.00    +0.000 HD
ATOM     38  H   UNL     1      -7.146  12.384  -3.423  0.00  0.00    +0.000 HD
ATOM     39  H   UNL     1      -4.183  16.826  -4.775  0.00  0.00    +0.000 HD
ATOM     40  H   UNL     1      -5.255  18.066  -5.237  0.00  0.00    +0.000 HD
ENDBRANCH  24  31
ENDBRANCH  22  24
ENDBRANCH   1  22
TORSDOF 9
ENDMDL
MODEL 4
REMARK VINA RESULT:      -6.6      8.393     11.385
REMARK  Name = Methotrexate.pdbqt.pdb
REMARK  9 active torsions:
REMARK  status: ('A' for Active; 'I' for Inactive)
REMARK    1  A    between atoms: C_1  and  N_22
REMARK    2  A    between atoms: C_2  and  C_9
REMARK    3  A    between atoms: CA_11  and  C_13
REMARK    4  A    between atoms: CA_11  and  CB_16
REMARK    5  A    between atoms: C_13  and  O_14
REMARK    6  A    between atoms: CG_17  and  CD_19
REMARK    7  A    between atoms: CD_19  and  OE1_20
REMARK    8  A    between atoms: N_22  and  C_24
REMARK    9  A    between atoms: C_24  and  C_31
REMARK                            x       y       z     vdW  Elec       q    Type
REMARK                         _______ _______ _______ _____ _____    ______ ____
ROOT
ATOM      1  C   UNL     1      -3.764  -1.636 -19.244  0.00  0.00    +0.000 A 
ATOM      2  C   UNL     1      -6.525  -2.039 -19.705  0.00  0.00    +0.000 A 
ATOM      3  C   UNL     1      -4.518  -2.507 -18.445  0.00  0.00    +0.000 A 
ATOM      4  C   UNL     1      -4.437  -0.967 -20.276  0.00  0.00    +0.000 A 
ATOM      5  C   UNL     1      -5.880  -2.711 -18.670  0.00  0.00    +0.000 A 
ATOM      6  C   UNL     1      -5.798  -1.164 -20.509  0.00  0.00    +0.000 A 
ENDROOT
BRANCH   2   9
ATOM      7  O   UNL     1      -8.301  -2.829 -20.994  0.00  0.00    +0.000 OA
ATOM      8  N   UNL     1      -8.844  -1.678 -19.058  0.00  0.00    +0.000 N 
ATOM      9  C   ACE A   0      -7.972  -2.221 -19.983  0.00  0.00    +0.000 C 
ATOM     10  H   UNL     1      -8.474  -1.189 -18.247  0.00  0.00    +0.000 HD
ATOM     11  CA  UNL     1     -10.226  -1.713 -19.096  0.00  0.00    +0.000 C 
BRANCH  11  13
ATOM     12  OXT UNL     1     -11.671  -0.093 -18.099  0.00  0.00    +0.000 OA
ATOM     13  C   UNL     1     -10.918  -1.046 -17.966  0.00  0.00    +0.000 C 
BRANCH  13  14
ATOM     14  O   UNL     1     -10.648  -1.577 -16.764  0.00  0.00    +0.000 OA
ATOM     15  H   UNL     1     -11.522  -1.703 -16.339  0.00  0.00    +0.000 HD
ENDBRANCH  13  14
ENDBRANCH  11  13
BRANCH  11  16
ATOM     16  CB  UNL     1     -10.941  -2.341 -20.150  0.00  0.00    +0.000 C 
ATOM     17  CG  UNL     1     -11.711  -3.008 -21.295  0.00  0.00    +0.000 C 
BRANCH  17  19
ATOM     18  OE2 UNL     1     -11.997  -4.547 -23.032  0.00  0.00    +0.000 OA
ATOM     19  CD  UNL     1     -12.430  -3.615 -22.375  0.00  0.00    +0.000 C 
BRANCH  19  20
ATOM     20  OE1 UNL     1     -13.628  -3.055 -22.621  0.00  0.00    +0.000 OA
ATOM     21  HE1 UNL     1     -13.399  -2.147 -22.904  0.00  0.00    +0.000 HD
ENDBRANCH  19  20
ENDBRANCH  17  19
ENDBRANCH  11  16
ENDBRANCH   2   9
BRANCH   1  22
ATOM     22  N   UNL     1      -2.388  -1.424 -18.990  0.00  0.00    +0.000 N 
ATOM     23  C   UNL     1      -1.869  -0.101 -18.696  0.00  0.00    +0.000 C 
BRANCH  22  24
ATOM     24  C   UNL     1      -1.405  -2.395 -19.425  0.00  0.00    +0.000 C 
BRANCH  24  31
ATOM     25  N   UNL     1      -0.776  -4.103 -20.856  0.00  0.00    +0.000 NA
ATOM     26  N   UNL     1       1.868  -4.495 -19.528  0.00  0.00    +0.000 NA
ATOM     27  N   UNL     1       2.332  -6.215 -21.005  0.00  0.00    +0.000 NA
ATOM     28  N   UNL     1       0.847  -6.818 -22.750  0.00  0.00    +0.000 NA
ATOM     29  N   UNL     1      -1.169  -5.815 -23.176  0.00  0.00    +0.000 N 
ATOM     30  N   UNL     1       2.845  -7.914 -22.422  0.00  0.00    +0.000 N 
ATOM     31  C   UNL     1      -0.441  -3.346 -19.849  0.00  0.00    +0.000 C 
ATOM     32  C   UNL     1       0.853  -3.644 -19.320  0.00  0.00    +0.000 C 
ATOM     33  C   UNL     1       0.195  -5.044 -21.256  0.00  0.00    +0.000 C 
ATOM     34  C   UNL     1       1.515  -5.232 -20.548  0.00  0.00    +0.000 C 
ATOM     35  C   UNL     1      -0.030  -5.920 -22.422  0.00  0.00    +0.000 C 
ATOM     36  C   UNL     1       1.990  -6.945 -22.017  0.00  0.00    +0.000 C 
ATOM     37  H   UNL     1      -1.382  -6.639 -23.726  0.00  0.00    +0.000 HD
ATOM     38  H   UNL     1      -1.964  -5.379 -22.722  0.00  0.00    +0.000 HD
ATOM     39  H   UNL     1       2.754  -8.137 -23.404  0.00  0.00    +0.000 HD
ATOM     40  H   UNL     1       3.793  -7.753 -22.110  0.00  0.00    +0.000 HD
ENDBRANCH  24  31
ENDBRANCH  22  24
ENDBRANCH   1  22
TORSDOF 9
ENDMDL
MODEL 5
REMARK VINA RESULT:      -6.4     13.087     14.712
REMARK  Name = Methotrexate.pdbqt.pdb
REMARK  9 active torsions:
REMARK  status: ('A' for Active; 'I' for Inactive)
REMARK    1  A    between atoms: C_1  and  N_22
REMARK    2  A    between atoms: C_2  and  C_9
REMARK    3  A    between atoms: CA_11  and  C_13
REMARK    4  A    between atoms: CA_11  and  CB_16
REMARK    5  A    between atoms: C_13  and  O_14
REMARK    6  A    between atoms: CG_17  and  CD_19
REMARK    7  A    between atoms: CD_19  and  OE1_20
REMARK    8  A    between atoms: N_22  and  C_24
REMARK    9  A    between atoms: C_24  and  C_31
REMARK                            x       y       z     vdW  Elec       q    Type
REMARK                         _______ _______ _______ _____ _____    ______ ____
ROOT
ATOM      1  C   UNL     1      14.278  11.514 -17.548  0.00  0.00    +0.000 A 
ATOM      2  C   UNL     1      13.481  11.139 -20.235  0.00  0.00    +0.000 A 
ATOM      3  C   UNL     1      14.960  12.133 -18.605  0.00  0.00    +0.000 A 
ATOM      4  C   UNL     1      13.189  10.695 -17.878  0.00  0.00    +0.000 A 
ATOM      5  C   UNL     1      14.569  11.953 -19.933  0.00  0.00    +0.000 A 
ATOM      6  C   UNL     1      12.790  10.509 -19.203  0.00  0.00    +0.000 A 
ENDROOT
BRANCH   2   9
ATOM      7  O   UNL     1      13.772  10.317 -22.399  0.00  0.00    +0.000 OA
ATOM      8  N   UNL     1      11.777  11.408 -21.953  0.00  0.00    +0.000 N 
ATOM      9  C   ACE A   0      13.027  10.914 -21.631  0.00  0.00    +0.000 C 
ATOM     10  H   UNL     1      11.232  11.893 -21.245  0.00  0.00    +0.000 HD
ATOM     11  CA  UNL     1      11.140  11.328 -23.179  0.00  0.00    +0.000 C 
BRANCH  11  13
ATOM     12  OXT UNL     1       9.033  11.817 -24.193  0.00  0.00    +0.000 OA
ATOM     13  C   UNL     1       9.794  11.948 -23.246  0.00  0.00    +0.000 C 
BRANCH  13  14
ATOM     14  O   UNL     1       9.470  12.679 -22.168  0.00  0.00    +0.000 OA
ATOM     15  H   UNL     1       8.498  12.794 -22.221  0.00  0.00    +0.000 HD
ENDBRANCH  13  14
ENDBRANCH  11  13
BRANCH  11  16
ATOM     16  CB  UNL     1      11.735  10.698 -24.303  0.00  0.00    +0.000 C 
ATOM     17  CG  UNL     1      12.366  10.009 -25.518  0.00  0.00    +0.000 C 
BRANCH  17  19
ATOM     18  OE2 UNL     1      12.449   8.373 -27.187  0.00  0.00    +0.000 OA
ATOM     19  CD  UNL     1      12.943   9.352 -26.652  0.00  0.00    +0.000 C 
BRANCH  19  20
ATOM     20  OE1 UNL     1      14.098   9.897 -27.074  0.00  0.00    +0.000 OA
ATOM     21  HE1 UNL     1      14.775   9.429 -26.545  0.00  0.00    +0.000 HD
ENDBRANCH  19  20
ENDBRANCH  17  19
ENDBRANCH  11  16
ENDBRANCH   2   9
BRANCH   1  22
ATOM     22  N   UNL     1      14.700  11.690 -16.209  0.00  0.00    +0.000 N 
ATOM     23  C   UNL     1      16.109  11.752 -15.862  0.00  0.00    +0.000 C 
BRANCH  22  24
ATOM     24  C   UNL     1      13.804  11.389 -15.112  0.00  0.00    +0.000 C 
BRANCH  24  31
ATOM     25  N   UNL     1      13.379  11.310 -12.837  0.00  0.00    +0.000 NA
ATOM     26  N   UNL     1      10.645  10.169 -13.197  0.00  0.00    +0.000 NA
ATOM     27  N   UNL     1      10.390  10.111 -10.898  0.00  0.00    +0.000 NA
ATOM     28  N   UNL     1      12.050  10.931  -9.420  0.00  0.00    +0.000 NA
ATOM     29  N   UNL     1      14.052  11.846 -10.057  0.00  0.00    +0.000 N 
ATOM     30  N   UNL     1      10.079  10.023  -8.650  0.00  0.00    +0.000 N 
ATOM     31  C   UNL     1      12.922  11.095 -14.039  0.00  0.00    +0.000 C 
ATOM     32  C   UNL     1      11.601  10.553 -14.055  0.00  0.00    +0.000 C 
ATOM     33  C   UNL     1      12.488  11.006 -11.787  0.00  0.00    +0.000 C 
ATOM     34  C   UNL     1      11.119  10.408 -12.003  0.00  0.00    +0.000 C 
ATOM     35  C   UNL     1      12.855  11.263 -10.381  0.00  0.00    +0.000 C 
ATOM     36  C   UNL     1      10.852  10.349  -9.713  0.00  0.00    +0.000 C 
ATOM     37  H   UNL     1      14.348  11.686  -9.102  0.00  0.00    +0.000 HD
ATOM     38  H   UNL     1      14.784  11.775 -10.756  0.00  0.00    +0.000 HD
ATOM     39  H   UNL     1      10.267  10.592  -7.834  0.00  0.00    +0.000 HD
ATOM     40  H   UNL     1       9.100   9.939  -8.890  0.00  0.00    +0.000 HD
ENDBRANCH  24  31
ENDBRANCH  22  24
ENDBRANCH   1  22
TORSDOF 9
ENDMDL
MODEL 6
REMARK VINA RESULT:      -6.4      5.150     11.897
REMARK  Name = Methotrexate.pdbqt.pdb
REMARK  9 active torsions:
REMARK  status: ('A' for Active; 'I' for Inactive)
REMARK    1  A    between atoms: C_1  and  N_22
REMARK    2  A    between atoms: C_2  and  C_9
REMARK    3  A    between atoms: CA_11  and  C_13
REMARK    4  A    between atoms: CA_11  and  CB_16
REMARK    5  A    between atoms: C_13  and  O_14
REMARK    6  A    between atoms: CG_17  and  CD_19
REMARK    7  A    between atoms: CD_19  and  OE1_20
REMARK    8  A    between atoms: N_22  and  C_24
REMARK    9  A    between atoms: C_24  and  C_31
REMARK                            x       y       z     vdW  Elec       q    Type
REMARK                         _______ _______ _______ _____ _____    ______ ____
ROOT
ATOM      1  C   UNL     1       4.560   0.281 -18.604  0.00  0.00    +0.000 A 
ATOM      2  C   UNL     1       7.347   0.652 -18.913  0.00  0.00    +0.000 A 
ATOM      3  C   UNL     1       5.366  -0.699 -19.200  0.00  0.00    +0.000 A 
ATOM      4  C   UNL     1       5.192   1.457 -18.174  0.00  0.00    +0.000 A 
ATOM      5  C   UNL     1       6.742  -0.522 -19.352  0.00  0.00    +0.000 A 
ATOM      6  C   UNL     1       6.566   1.644 -18.322  0.00  0.00    +0.000 A 
ENDROOT
BRANCH   2   9
ATOM      7  O   UNL     1       9.232   1.282 -20.133  0.00  0.00    +0.000 OA
ATOM      8  N   UNL     1       9.575   0.644 -17.932  0.00  0.00    +0.000 N 
ATOM      9  C   ACE A   0       8.805   0.890 -19.054  0.00  0.00    +0.000 C 
ATOM     10  H   UNL     1       9.128   0.318 -17.079  0.00  0.00    +0.000 HD
ATOM     11  CA  UNL     1      10.946   0.786 -17.816  0.00  0.00    +0.000 C 
BRANCH  11  13
ATOM     12  OXT UNL     1      11.060  -0.412 -15.752  0.00  0.00    +0.000 OA
ATOM     13  C   UNL     1      11.517   0.450 -16.488  0.00  0.00    +0.000 C 
BRANCH  13  14
ATOM     14  O   UNL     1      12.592   1.178 -16.150  0.00  0.00    +0.000 OA
ATOM     15  H   UNL     1      13.193   1.117 -16.921  0.00  0.00    +0.000 HD
ENDBRANCH  13  14
ENDBRANCH  11  13
BRANCH  11  16
ATOM     16  CB  UNL     1      11.759   1.221 -18.895  0.00  0.00    +0.000 C 
ATOM     17  CG  UNL     1      12.646   1.696 -20.052  0.00  0.00    +0.000 C 
BRANCH  17  19
ATOM     18  OE2 UNL     1      14.495   1.562 -21.476  0.00  0.00    +0.000 OA
ATOM     19  CD  UNL     1      13.486   2.147 -21.120  0.00  0.00    +0.000 C 
BRANCH  19  20
ATOM     20  OE1 UNL     1      13.078   3.294 -21.693  0.00  0.00    +0.000 OA
ATOM     21  HE1 UNL     1      13.117   3.095 -22.649  0.00  0.00    +0.000 HD
ENDBRANCH  19  20
ENDBRANCH  17  19
ENDBRANCH  11  16
ENDBRANCH   2   9
BRANCH   1  22
ATOM     22  N   UNL     1       3.163   0.093 -18.475  0.00  0.00    +0.000 N 
ATOM     23  C   UNL     1       2.616  -1.072 -17.803  0.00  0.00    +0.000 C 
BRANCH  22  24
ATOM     24  C   UNL     1       2.246   0.793 -19.350  0.00  0.00    +0.000 C 
BRANCH  24  31
ATOM     25  N   UNL     1       0.089   1.449 -19.876  0.00  0.00    +0.000 NA
ATOM     26  N   UNL     1       0.919   2.831 -22.386  0.00  0.00    +0.000 NA
ATOM     27  N   UNL     1      -1.293   3.372 -22.796  0.00  0.00    +0.000 NA
ATOM     28  N   UNL     1      -3.032   2.815 -21.286  0.00  0.00    +0.000 NA
ATOM     29  N   UNL     1      -2.753   1.703 -19.302  0.00  0.00    +0.000 N 
ATOM     30  N   UNL     1      -3.446   3.929 -23.258  0.00  0.00    +0.000 N 
ATOM     31  C   UNL     1       1.348   1.478 -20.210  0.00  0.00    +0.000 C 
ATOM     32  C   UNL     1       1.595   2.178 -21.431  0.00  0.00    +0.000 C 
ATOM     33  C   UNL     1      -0.786   2.131 -20.747  0.00  0.00    +0.000 C 
ATOM     34  C   UNL     1      -0.335   2.801 -22.023  0.00  0.00    +0.000 C 
ATOM     35  C   UNL     1      -2.228   2.231 -20.453  0.00  0.00    +0.000 C 
ATOM     36  C   UNL     1      -2.536   3.349 -22.439  0.00  0.00    +0.000 C 
ATOM     37  H   UNL     1      -3.751   1.531 -19.340  0.00  0.00    +0.000 HD
ATOM     38  H   UNL     1      -2.205   0.975 -18.856  0.00  0.00    +0.000 HD
ATOM     39  H   UNL     1      -4.267   4.259 -22.768  0.00  0.00    +0.000 HD
ATOM     40  H   UNL     1      -3.030   4.602 -23.888  0.00  0.00    +0.000 HD
ENDBRANCH  24  31
ENDBRANCH  22  24
ENDBRANCH   1  22
TORSDOF 9
ENDMDL
MODEL 7
REMARK VINA RESULT:      -6.4      2.947      4.176
REMARK  Name = Methotrexate.pdbqt.pdb
REMARK  9 active torsions:
REMARK  status: ('A' for Active; 'I' for Inactive)
REMARK    1  A    between atoms: C_1  and  N_22
REMARK    2  A    between atoms: C_2  and  C_9
REMARK    3  A    between atoms: CA_11  and  C_13
REMARK    4  A    between atoms: CA_11  and  CB_16
REMARK    5  A    between atoms: C_13  and  O_14
REMARK    6  A    between atoms: CG_17  and  CD_19
REMARK    7  A    between atoms: CD_19  and  OE1_20
REMARK    8  A    between atoms: N_22  and  C_24
REMARK    9  A    between atoms: C_24  and  C_31
REMARK                            x       y       z     vdW  Elec       q    Type
REMARK                         _______ _______ _______ _____ _____    ______ ____
ROOT
ATOM      1  C   UNL     1       5.365  -0.291 -19.952  0.00  0.00    +0.000 A 
ATOM      2  C   UNL     1       2.616  -0.687 -19.422  0.00  0.00    +0.000 A 
ATOM      3  C   UNL     1       4.861  -1.556 -19.620  0.00  0.00    +0.000 A 
ATOM      4  C   UNL     1       4.452   0.772 -20.003  0.00  0.00    +0.000 A 
ATOM      5  C   UNL     1       3.505  -1.757 -19.360  0.00  0.00    +0.000 A 
ATOM      6  C   UNL     1       3.094   0.581 -19.745  0.00  0.00    +0.000 A 
ENDROOT
BRANCH   2   9
ATOM      7  O   UNL     1       0.746  -1.962 -18.858  0.00  0.00    +0.000 OA
ATOM      8  N   UNL     1       0.393   0.292 -19.259  0.00  0.00    +0.000 N 
ATOM      9  C   ACE A   0       1.165  -0.850 -19.153  0.00  0.00    +0.000 C 
ATOM     10  H   UNL     1       0.833   1.173 -19.511  0.00  0.00    +0.000 HD
ATOM     11  CA  UNL     1      -0.972   0.396 -19.061  0.00  0.00    +0.000 C 
BRANCH  11  13
ATOM     12  OXT UNL     1      -0.879   2.774 -19.264  0.00  0.00    +0.000 OA
ATOM     13  C   UNL     1      -1.547   1.752 -19.242  0.00  0.00    +0.000 C 
BRANCH  13  14
ATOM     14  O   UNL     1      -2.881   1.770 -19.382  0.00  0.00    +0.000 OA
ATOM     15  H   UNL     1      -3.092   2.673 -19.696  0.00  0.00    +0.000 HD
ENDBRANCH  13  14
ENDBRANCH  11  13
BRANCH  11  16
ATOM     16  CB  UNL     1      -1.776  -0.721 -18.710  0.00  0.00    +0.000 C 
ATOM     17  CG  UNL     1      -2.636  -1.935 -18.341  0.00  0.00    +0.000 C 
BRANCH  17  19
ATOM     18  OE2 UNL     1      -2.960  -4.173 -17.749  0.00  0.00    +0.000 OA
ATOM     19  CD  UNL     1      -3.430  -3.078 -18.009  0.00  0.00    +0.000 C 
BRANCH  19  20
ATOM     20  OE1 UNL     1      -4.756  -2.849 -18.027  0.00  0.00    +0.000 OA
ATOM     21  HE1 UNL     1      -4.954  -2.598 -17.103  0.00  0.00    +0.000 HD
ENDBRANCH  19  20
ENDBRANCH  17  19
ENDBRANCH  11  16
ENDBRANCH   2   9
BRANCH   1  22
ATOM     22  N   UNL     1       6.747  -0.100 -20.192  0.00  0.00    +0.000 N 
ATOM     23  C   UNL     1       7.231   1.036 -20.956  0.00  0.00    +0.000 C 
BRANCH  22  24
ATOM     24  C   UNL     1       7.671  -1.208 -20.075  0.00  0.00    +0.000 C 
BRANCH  24  31
ATOM     25  N   UNL     1       9.624  -2.103 -19.210  0.00  0.00    +0.000 NA
ATOM     26  N   UNL     1       9.289  -4.701 -20.640  0.00  0.00    +0.000 NA
ATOM     27  N   UNL     1      11.286  -5.436 -19.731  0.00  0.00    +0.000 NA
ATOM     28  N   UNL     1      12.541  -4.124 -18.209  0.00  0.00    +0.000 NA
ATOM     29  N   UNL     1      11.960  -2.032 -17.476  0.00  0.00    +0.000 N 
ATOM     30  N   UNL     1      13.241  -6.214 -18.876  0.00  0.00    +0.000 N 
ATOM     31  C   UNL     1       8.576  -2.296 -19.961  0.00  0.00    +0.000 C 
ATOM     32  C   UNL     1       8.548  -3.585 -20.576  0.00  0.00    +0.000 C 
ATOM     33  C   UNL     1      10.511  -3.196 -19.115  0.00  0.00    +0.000 C 
ATOM     34  C   UNL     1      10.324  -4.489 -19.871  0.00  0.00    +0.000 C 
ATOM     35  C   UNL     1      11.704  -3.134 -18.249  0.00  0.00    +0.000 C 
ATOM     36  C   UNL     1      12.310  -5.233 -18.968  0.00  0.00    +0.000 C 
ATOM     37  H   UNL     1      12.926  -1.943 -17.183  0.00  0.00    +0.000 HD
ATOM     38  H   UNL     1      11.516  -1.169 -17.771  0.00  0.00    +0.000 HD
ATOM     39  H   UNL     1      13.744  -6.201 -17.998  0.00  0.00    +0.000 HD
ATOM     40  H   UNL     1      12.880  -7.120 -19.144  0.00  0.00    +0.000 HD
ENDBRANCH  24  31
ENDBRANCH  22  24
ENDBRANCH   1  22
TORSDOF 9
ENDMDL
MODEL 8
REMARK VINA RESULT:      -6.2     19.429     22.010
REMARK  Name = Methotrexate.pdbqt.pdb
REMARK  9 active torsions:
REMARK  status: ('A' for Active; 'I' for Inactive)
REMARK    1  A    between atoms: C_1  and  N_22
REMARK    2  A    between atoms: C_2  and  C_9
REMARK    3  A    between atoms: CA_11  and  C_13
REMARK    4  A    between atoms: CA_11  and  CB_16
REMARK    5  A    between atoms: C_13  and  O_14
REMARK    6  A    between atoms: CG_17  and  CD_19
REMARK    7  A    between atoms: CD_19  and  OE1_20
REMARK    8  A    between atoms: N_22  and  C_24
REMARK    9  A    between atoms: C_24  and  C_31
REMARK                            x       y       z     vdW  Elec       q    Type
REMARK                         _______ _______ _______ _____ _____    ______ ____
ROOT
ATOM      1  C   UNL     1     -11.411 -13.363 -15.046  0.00  0.00    +0.000 A 
ATOM      2  C   UNL     1     -10.551 -13.357 -17.740  0.00  0.00    +0.000 A 
ATOM      3  C   UNL     1     -10.694 -14.440 -15.586  0.00  0.00    +0.000 A 
ATOM      4  C   UNL     1     -11.690 -12.285 -15.898  0.00  0.00    +0.000 A 
ATOM      5  C   UNL     1     -10.266 -14.441 -16.914  0.00  0.00    +0.000 A 
ATOM      6  C   UNL     1     -11.266 -12.277 -17.228  0.00  0.00    +0.000 A 
ENDROOT
BRANCH   2   9
ATOM      7  O   UNL     1     -10.977 -13.351 -20.033  0.00  0.00    +0.000 OA
ATOM      8  N   UNL     1      -8.757 -13.226 -19.380  0.00  0.00    +0.000 N 
ATOM      9  C   ACE A   0     -10.119 -13.312 -19.159  0.00  0.00    +0.000 C 
ATOM     10  H   UNL     1      -8.121 -13.199 -18.588  0.00  0.00    +0.000 HD
ATOM     11  CA  UNL     1      -8.114 -13.173 -20.604  0.00  0.00    +0.000 C 
BRANCH  11  13
ATOM     12  OXT UNL     1      -5.919 -13.961 -20.087  0.00  0.00    +0.000 OA
ATOM     13  C   UNL     1      -6.634 -13.084 -20.549  0.00  0.00    +0.000 C 
BRANCH  13  14
ATOM     14  O   UNL     1      -6.131 -11.947 -21.052  0.00  0.00    +0.000 OA
ATOM     15  H   UNL     1      -6.878 -11.313 -21.043  0.00  0.00    +0.000 HD
ENDBRANCH  13  14
ENDBRANCH  11  13
BRANCH  11  16
ATOM     16  CB  UNL     1      -8.820 -13.207 -21.835  0.00  0.00    +0.000 C 
ATOM     17  CG  UNL     1      -9.572 -13.250 -23.170  0.00  0.00    +0.000 C 
BRANCH  17  19
ATOM     18  OE2 UNL     1      -9.710 -13.545 -25.485  0.00  0.00    +0.000 OA
ATOM     19  CD  UNL     1     -10.260 -13.300 -24.425  0.00  0.00    +0.000 C 
BRANCH  19  20
ATOM     20  OE1 UNL     1     -11.576 -13.033 -24.340  0.00  0.00    +0.000 OA
ATOM     21  HE1 UNL     1     -11.978 -13.679 -24.954  0.00  0.00    +0.000 HD
ENDBRANCH  19  20
ENDBRANCH  17  19
ENDBRANCH  11  16
ENDBRANCH   2   9
BRANCH   1  22
ATOM     22  N   UNL     1     -11.855 -13.386 -13.702  0.00  0.00    +0.000 N 
ATOM     23  C   UNL     1     -12.938 -14.257 -13.280  0.00  0.00    +0.000 C 
BRANCH  22  24
ATOM     24  C   UNL     1     -11.568 -12.278 -12.816  0.00  0.00    +0.000 C 
BRANCH  24  31
ATOM     25  N   UNL     1     -11.794 -11.260 -10.748  0.00  0.00    +0.000 NA
ATOM     26  N   UNL     1     -10.207  -8.862 -11.545  0.00  0.00    +0.000 NA
ATOM     27  N   UNL     1     -10.560  -7.956  -9.446  0.00  0.00    +0.000 NA
ATOM     28  N   UNL     1     -11.737  -9.117  -7.749  0.00  0.00    +0.000 NA
ATOM     29  N   UNL     1     -12.649 -11.208  -7.967  0.00  0.00    +0.000 N 
ATOM     30  N   UNL     1     -10.874  -7.010  -7.405  0.00  0.00    +0.000 N 
ATOM     31  C   UNL     1     -11.284 -11.192 -11.946  0.00  0.00    +0.000 C 
ATOM     32  C   UNL     1     -10.547  -9.992 -12.182  0.00  0.00    +0.000 C 
ATOM     33  C   UNL     1     -11.503 -10.169  -9.903  0.00  0.00    +0.000 C 
ATOM     34  C   UNL     1     -10.715  -8.959 -10.346  0.00  0.00    +0.000 C 
ATOM     35  C   UNL     1     -11.964 -10.148  -8.502  0.00  0.00    +0.000 C 
ATOM     36  C   UNL     1     -11.057  -8.048  -8.255  0.00  0.00    +0.000 C 
ATOM     37  H   UNL     1     -13.191 -10.979  -7.142  0.00  0.00    +0.000 HD
ATOM     38  H   UNL     1     -13.109 -11.821  -8.632  0.00  0.00    +0.000 HD
ATOM     39  H   UNL     1     -10.883  -7.288  -6.432  0.00  0.00    +0.000 HD
ATOM     40  H   UNL     1     -10.095  -6.422  -7.670  0.00  0.00    +0.000 HD
ENDBRANCH  24  31
ENDBRANCH  22  24
ENDBRANCH   1  22
TORSDOF 9
ENDMDL
MODEL 9
REMARK VINA RESULT:      -6.1     10.494     15.746
REMARK  Name = Methotrexate.pdbqt.pdb
REMARK  9 active torsions:
REMARK  status: ('A' for Active; 'I' for Inactive)
REMARK    1  A    between atoms: C_1  and  N_22
REMARK    2  A    between atoms: C_2  and  C_9
REMARK    3  A    between atoms: CA_11  and  C_13
REMARK    4  A    between atoms: CA_11  and  CB_16
REMARK    5  A    between atoms: C_13  and  O_14
REMARK    6  A    between atoms: CG_17  and  CD_19
REMARK    7  A    between atoms: CD_19  and  OE1_20
REMARK    8  A    between atoms: N_22  and  C_24
REMARK    9  A    between atoms: C_24  and  C_31
REMARK                            x       y       z     vdW  Elec       q    Type
REMARK                         _______ _______ _______ _____ _____    ______ ____
ROOT
ATOM      1  C   UNL     1     -10.238  -3.610 -20.692  0.00  0.00    +0.000 A 
ATOM      2  C   UNL     1     -12.049  -3.183 -22.822  0.00  0.00    +0.000 A 
ATOM      3  C   UNL     1     -11.084  -2.492 -20.719  0.00  0.00    +0.000 A 
ATOM      4  C   UNL     1     -10.322  -4.504 -21.769  0.00  0.00    +0.000 A 
ATOM      5  C   UNL     1     -11.981  -2.278 -21.766  0.00  0.00    +0.000 A 
ATOM      6  C   UNL     1     -11.215  -4.299 -22.821  0.00  0.00    +0.000 A 
ENDROOT
BRANCH   2   9
ATOM      7  O   UNL     1     -13.129  -3.921 -24.754  0.00  0.00    +0.000 OA
ATOM      8  N   UNL     1     -13.628  -1.777 -24.029  0.00  0.00    +0.000 N 
ATOM      9  C   ACE A   0     -12.985  -2.999 -23.960  0.00  0.00    +0.000 C 
ATOM     10  H   UNL     1     -13.442  -1.071 -23.322  0.00  0.00    +0.000 HD
ATOM     11  CA  UNL     1     -14.536  -1.367 -24.989  0.00  0.00    +0.000 C 
BRANCH  11  13
ATOM     12  OXT UNL     1     -15.981   0.465 -25.499  0.00  0.00    +0.000 OA
ATOM     13  C   UNL     1     -15.075   0.005 -24.820  0.00  0.00    +0.000 C 
BRANCH  13  14
ATOM     14  O   UNL     1     -14.481   0.714 -23.849  0.00  0.00    +0.000 OA
ATOM     15  H   UNL     1     -15.125   1.414 -23.615  0.00  0.00    +0.000 HD
ENDBRANCH  13  14
ENDBRANCH  11  13
BRANCH  11  16
ATOM     16  CB  UNL     1     -14.927  -2.201 -26.070  0.00  0.00    +0.000 C 
ATOM     17  CG  UNL     1     -15.360  -3.106 -27.230  0.00  0.00    +0.000 C 
BRANCH  17  19
ATOM     18  OE2 UNL     1     -15.752  -3.625 -29.475  0.00  0.00    +0.000 OA
ATOM     19  CD  UNL     1     -15.778  -3.957 -28.302  0.00  0.00    +0.000 C 
BRANCH  19  20
ATOM     20  OE1 UNL     1     -16.225  -5.162 -27.904  0.00  0.00    +0.000 OA
ATOM     21  HE1 UNL     1     -17.026  -5.297 -28.449  0.00  0.00    +0.000 HD
ENDBRANCH  19  20
ENDBRANCH  17  19
ENDBRANCH  11  16
ENDBRANCH   2   9
BRANCH   1  22
ATOM     22  N   UNL     1      -9.320  -3.802 -19.633  0.00  0.00    +0.000 N 
ATOM     23  C   UNL     1      -9.730  -4.404 -18.377  0.00  0.00    +0.000 C 
BRANCH  22  24
ATOM     24  C   UNL     1      -8.089  -3.041 -19.583  0.00  0.00    +0.000 C 
BRANCH  24  31
ATOM     25  N   UNL     1      -5.892  -2.837 -18.881  0.00  0.00    +0.000 NA
ATOM     26  N   UNL     1      -5.561  -0.126 -20.084  0.00  0.00    +0.000 NA
ATOM     27  N   UNL     1      -3.394  -0.054 -19.275  0.00  0.00    +0.000 NA
ATOM     28  N   UNL     1      -2.418  -1.872 -18.111  0.00  0.00    +0.000 NA
ATOM     29  N   UNL     1      -3.461  -3.859 -17.649  0.00  0.00    +0.000 N 
ATOM     30  N   UNL     1      -1.262   0.080 -18.504  0.00  0.00    +0.000 N 
ATOM     31  C   UNL     1      -6.882  -2.295 -19.532  0.00  0.00    +0.000 C 
ATOM     32  C   UNL     1      -6.577  -1.001 -20.056  0.00  0.00    +0.000 C 
ATOM     33  C   UNL     1      -4.705  -2.077 -18.840  0.00  0.00    +0.000 C 
ATOM     34  C   UNL     1      -4.578  -0.697 -19.440  0.00  0.00    +0.000 C 
ATOM     35  C   UNL     1      -3.488  -2.600 -18.190  0.00  0.00    +0.000 C 
ATOM     36  C   UNL     1      -2.416  -0.616 -18.642  0.00  0.00    +0.000 C 
ATOM     37  H   UNL     1      -2.729  -4.002 -16.963  0.00  0.00    +0.000 HD
ATOM     38  H   UNL     1      -4.362  -4.260 -17.412  0.00  0.00    +0.000 HD
ATOM     39  H   UNL     1      -0.449  -0.515 -18.412  0.00  0.00    +0.000 HD
ATOM     40  H   UNL     1      -1.169   0.820 -19.188  0.00  0.00    +0.000 HD
ENDBRANCH  24  31
ENDBRANCH  22  24
ENDBRANCH   1  22
TORSDOF 9
ENDMDL
