MODEL 1
REMARK VINA RESULT:      -5.7      0.000      0.000
REMARK  Name = 
REMARK  21 active torsions:
REMARK  status: ('A' for Active; 'I' for Inactive)
REMARK    1  A    between atoms: O_3  and  C_27
REMARK    2  A    between atoms: O_3  and  C_28
REMARK    3  A    between atoms: N_6  and  CA_9
REMARK    4  A    between atoms: N_7  and  CA_15
REMARK    5  A    between atoms: N_8  and  CA_12
REMARK    6  A    between atoms: CA_9  and  CB_10
REMARK    7  A    between atoms: CA_9  and  C_16
REMARK    8  A    between atoms: CB_10  and  CG_11
REMARK    9  A    between atoms: CG_11  and  CD1_20
REMARK   10  A    between atoms: CG_11  and  CD2_21
REMARK   11  A    between atoms: CA_12  and  CB_13
REMARK   12  A    between atoms: CA_12  and  C_18
REMARK   13  A    between atoms: CB_13  and  CG_14
REMARK   14  A    between atoms: CG_14  and  CD1_22
REMARK   15  A    between atoms: CG_14  and  CD2_23
REMARK   16  A    between atoms: CA_15  and  CB_17
REMARK   17  A    between atoms: CA_15  and  C_26
REMARK   18  A    between atoms: CB_17  and  CG_19
REMARK   19  A    between atoms: CG_19  and  CD1_24
REMARK   20  A    between atoms: CG_19  and  CD2_25
REMARK   21  A    between atoms: C_28  and  C_29
REMARK                            x       y       z     vdW  Elec       q    Type
REMARK                         _______ _______ _______ _____ _____    ______ ____
ROOT
ATOM      1  O   UNL     1       2.594   2.617 -18.517  0.00  0.00    +0.000 OA
ATOM      2  N   UNL     1       1.985   0.824 -19.789  0.00  0.00    +0.000 N 
ATOM      3  C   UNL     1       2.851   1.495 -18.943  0.00  0.00    +0.000 C 
ATOM      4  H   UNL     1       2.009  -0.188 -19.684  0.00  0.00    +0.000 HD
ENDROOT
BRANCH   2   5
ATOM      5  CA  UNL     1       0.671   1.398 -20.080  0.00  0.00    +0.000 C 
BRANCH   5   8
ATOM      6  O   UNL     1       0.184  -0.957 -20.324  0.00  0.00    +0.000 OA
ATOM      7  N   UNL     1      -1.623   0.340 -20.264  0.00  0.00    +0.000 N 
ATOM      8  C   UNL     1      -0.271   0.187 -20.222  0.00  0.00    +0.000 C 
ATOM      9  H   UNL     1      -2.089  -0.559 -20.330  0.00  0.00    +0.000 HD
BRANCH   7  10
ATOM     10  CA  UNL     1      -2.440   1.471 -19.825  0.00  0.00    +0.000 C 
BRANCH  10  12
ATOM     11  O   UNL     1      -3.741  -0.190 -18.606  0.00  0.00    +0.000 OA
ATOM     12  C   UNL     1      -3.523   0.993 -18.857  0.00  0.00    +0.000 C 
ENDBRANCH  10  12
BRANCH  10  13
ATOM     13  CB  UNL     1      -2.987   2.286 -21.007  0.00  0.00    +0.000 C 
BRANCH  13  14
ATOM     14  CG  UNL     1      -3.395   1.511 -22.279  0.00  0.00    +0.000 C 
ATOM     15  CD1 UNL     1      -4.869   1.669 -22.646  0.00  0.00    +0.000 C 
ATOM     16  CD2 UNL     1      -2.524   1.969 -23.455  0.00  0.00    +0.000 C 
ENDBRANCH  13  14
ENDBRANCH  10  13
ENDBRANCH   7  10
ENDBRANCH   5   8
BRANCH   5  17
ATOM     17  CB  UNL     1       0.724   2.188 -21.396  0.00  0.00    +0.000 C 
BRANCH  17  18
ATOM     18  CG  UNL     1       0.718   3.720 -21.225  0.00  0.00    +0.000 C 
ATOM     19  CD1 UNL     1       0.096   4.436 -22.424  0.00  0.00    +0.000 C 
ATOM     20  CD2 UNL     1      -0.053   4.094 -19.955  0.00  0.00    +0.000 C 
ENDBRANCH  17  18
ENDBRANCH   5  17
ENDBRANCH   2   5
BRANCH   3  21
ATOM     21  CA  UNL     1       4.105   0.687 -18.527  0.00  0.00    +0.000 C 
BRANCH  21  23
ATOM     22  O   UNL     1       6.582   1.072 -19.825  0.00  0.00    +0.000 OA
ATOM     23  N   UNL     1       5.169   1.605 -18.099  0.00  0.00    +0.000 N 
ATOM     24  C   ACE A   0       6.348   1.680 -18.792  0.00  0.00    +0.000 C 
ATOM     25  H   UNL     1       5.210   1.848 -17.120  0.00  0.00    +0.000 HD
BRANCH  24  26
ATOM     26  O   UNL     1       7.286   2.419 -18.154  0.00  0.00    +0.000 OA
BRANCH  26  27
ATOM     27  C   UNL     1       8.566   2.479 -18.794  0.00  0.00    +0.000 C 
BRANCH  27  28
ATOM     28  C   UNL     1       9.605   1.827 -17.914  0.00  0.00    +0.000 A 
ATOM     29  C   UNL     1      10.493   2.609 -17.164  0.00  0.00    +0.000 A 
ATOM     30  C   UNL     1       9.738   0.431 -17.877  0.00  0.00    +0.000 A 
ATOM     31  C   UNL     1      11.476   2.008 -16.374  0.00  0.00    +0.000 A 
ATOM     32  C   UNL     1      10.720  -0.169 -17.088  0.00  0.00    +0.000 A 
ATOM     33  C   UNL     1      11.588   0.620 -16.335  0.00  0.00    +0.000 A 
ENDBRANCH  27  28
ENDBRANCH  26  27
ENDBRANCH  24  26
ENDBRANCH  21  23
BRANCH  21  34
ATOM     34  CB  UNL     1       3.786  -0.306 -17.395  0.00  0.00    +0.000 C 
BRANCH  34  35
ATOM     35  CG  UNL     1       3.918  -1.802 -17.750  0.00  0.00    +0.000 C 
ATOM     36  CD1 UNL     1       2.618  -2.389 -18.301  0.00  0.00    +0.000 C 
ATOM     37  CD2 UNL     1       5.040  -1.986 -18.778  0.00  0.00    +0.000 C 
ENDBRANCH  34  35
ENDBRANCH  21  34
ENDBRANCH   3  21
TORSDOF 15
ENDMDL
MODEL 2
REMARK VINA RESULT:      -5.5      5.356      9.375
REMARK  Name = 
REMARK  21 active torsions:
REMARK  status: ('A' for Active; 'I' for Inactive)
REMARK    1  A    between atoms: O_3  and  C_27
REMARK    2  A    between atoms: O_3  and  C_28
REMARK    3  A    between atoms: N_6  and  CA_9
REMARK    4  A    between atoms: N_7  and  CA_15
REMARK    5  A    between atoms: N_8  and  CA_12
REMARK    6  A    between atoms: CA_9  and  CB_10
REMARK    7  A    between atoms: CA_9  and  C_16
REMARK    8  A    between atoms: CB_10  and  CG_11
REMARK    9  A    between atoms: CG_11  and  CD1_20
REMARK   10  A    between atoms: CG_11  and  CD2_21
REMARK   11  A    between atoms: CA_12  and  CB_13
REMARK   12  A    between atoms: CA_12  and  C_18
REMARK   13  A    between atoms: CB_13  and  CG_14
REMARK   14  A    between atoms: CG_14  and  CD1_22
REMARK   15  A    between atoms: CG_14  and  CD2_23
REMARK   16  A    between atoms: CA_15  and  CB_17
REMARK   17  A    between atoms: CA_15  and  C_26
REMARK   18  A    between atoms: CB_17  and  CG_19
REMARK   19  A    between atoms: CG_19  and  CD1_24
REMARK   20  A    between atoms: CG_19  and  CD2_25
REMARK   21  A    between atoms: C_28  and  C_29
REMARK                            x       y       z     vdW  Elec       q    Type
REMARK                         _______ _______ _______ _____ _____    ______ ____
ROOT
ATOM      1  O   UNL     1      -6.586  -0.565 -20.220  0.00  0.00    +0.000 OA
ATOM      2  N   UNL     1      -5.874  -2.732 -20.232  0.00  0.00    +0.000 N 
ATOM      3  C   UNL     1      -5.744  -1.396 -19.893  0.00  0.00    +0.000 C 
ATOM      4  H   UNL     1      -5.465  -3.370 -19.553  0.00  0.00    +0.000 HD
ENDROOT
BRANCH   2   5
ATOM      5  CA  UNL     1      -7.102  -3.197 -20.877  0.00  0.00    +0.000 C 
BRANCH   5   8
ATOM      6  O   UNL     1      -7.187  -4.625 -18.929  0.00  0.00    +0.000 OA
ATOM      7  N   UNL     1      -9.182  -4.154 -19.795  0.00  0.00    +0.000 N 
ATOM      8  C   UNL     1      -7.826  -4.030 -19.803  0.00  0.00    +0.000 C 
ATOM      9  H   UNL     1      -9.492  -4.710 -19.004  0.00  0.00    +0.000 HD
BRANCH   7  10
ATOM     10  CA  UNL     1     -10.192  -3.318 -20.444  0.00  0.00    +0.000 C 
BRANCH  10  12
ATOM     11  O   UNL     1     -10.023  -1.918 -18.458  0.00  0.00    +0.000 OA
ATOM     12  C   UNL     1     -10.515  -2.108 -19.567  0.00  0.00    +0.000 C 
ENDBRANCH  10  12
BRANCH  10  13
ATOM     13  CB  UNL     1     -11.431  -4.124 -20.865  0.00  0.00    +0.000 C 
BRANCH  13  14
ATOM     14  CG  UNL     1     -11.717  -4.254 -22.377  0.00  0.00    +0.000 C 
ATOM     15  CD1 UNL     1     -12.920  -3.438 -22.845  0.00  0.00    +0.000 C 
ATOM     16  CD2 UNL     1     -10.474  -3.829 -23.167  0.00  0.00    +0.000 C 
ENDBRANCH  13  14
ENDBRANCH  10  13
ENDBRANCH   7  10
ENDBRANCH   5   8
BRANCH   5  17
ATOM     17  CB  UNL     1      -6.757  -4.076 -22.088  0.00  0.00    +0.000 C 
BRANCH  17  18
ATOM     18  CG  UNL     1      -6.555  -3.302 -23.406  0.00  0.00    +0.000 C 
ATOM     19  CD1 UNL     1      -6.988  -4.113 -24.628  0.00  0.00    +0.000 C 
ATOM     20  CD2 UNL     1      -7.346  -1.991 -23.361  0.00  0.00    +0.000 C 
ENDBRANCH  17  18
ENDBRANCH   5  17
ENDBRANCH   2   5
BRANCH   3  21
ATOM     21  CA  UNL     1      -4.513  -1.068 -19.013  0.00  0.00    +0.000 C 
BRANCH  21  23
ATOM     22  O   UNL     1      -3.119  -2.972 -17.462  0.00  0.00    +0.000 OA
ATOM     23  N   UNL     1      -3.360  -1.864 -19.456  0.00  0.00    +0.000 N 
ATOM     24  C   ACE A   0      -2.741  -2.734 -18.598  0.00  0.00    +0.000 C 
ATOM     25  H   UNL     1      -2.789  -1.486 -20.199  0.00  0.00    +0.000 HD
BRANCH  24  26
ATOM     26  O   UNL     1      -1.585  -3.232 -19.100  0.00  0.00    +0.000 OA
BRANCH  26  27
ATOM     27  C   UNL     1      -0.851  -2.347 -19.956  0.00  0.00    +0.000 C 
BRANCH  27  28
ATOM     28  C   UNL     1       0.477  -2.013 -19.321  0.00  0.00    +0.000 A 
ATOM     29  C   UNL     1       0.722  -0.726 -18.824  0.00  0.00    +0.000 A 
ATOM     30  C   UNL     1       1.507  -2.964 -19.271  0.00  0.00    +0.000 A 
ATOM     31  C   UNL     1       1.962  -0.405 -18.265  0.00  0.00    +0.000 A 
ATOM     32  C   UNL     1       2.745  -2.642 -18.713  0.00  0.00    +0.000 A 
ATOM     33  C   UNL     1       2.972  -1.363 -18.209  0.00  0.00    +0.000 A 
ENDBRANCH  27  28
ENDBRANCH  26  27
ENDBRANCH  24  26
ENDBRANCH  21  23
BRANCH  21  34
ATOM     34  CB  UNL     1      -4.164   0.430 -19.067  0.00  0.00    +0.000 C 
BRANCH  34  35
ATOM     35  CG  UNL     1      -3.124   0.844 -20.128  0.00  0.00    +0.000 C 
ATOM     36  CD1 UNL     1      -3.728   1.716 -21.230  0.00  0.00    +0.000 C 
ATOM     37  CD2 UNL     1      -1.975   1.599 -19.451  0.00  0.00    +0.000 C 
ENDBRANCH  34  35
ENDBRANCH  21  34
ENDBRANCH   3  21
TORSDOF 15
ENDMDL
MODEL 3
REMARK VINA RESULT:      -5.5     20.817     24.656
REMARK  Name = 
REMARK  21 active torsions:
REMARK  status: ('A' for Active; 'I' for Inactive)
REMARK    1  A    between atoms: O_3  and  C_27
REMARK    2  A    between atoms: O_3  and  C_28
REMARK    3  A    between atoms: N_6  and  CA_9
REMARK    4  A    between atoms: N_7  and  CA_15
REMARK    5  A    between atoms: N_8  and  CA_12
REMARK    6  A    between atoms: CA_9  and  CB_10
REMARK    7  A    between atoms: CA_9  and  C_16
REMARK    8  A    between atoms: CB_10  and  CG_11
REMARK    9  A    between atoms: CG_11  and  CD1_20
REMARK   10  A    between atoms: CG_11  and  CD2_21
REMARK   11  A    between atoms: CA_12  and  CB_13
REMARK   12  A    between atoms: CA_12  and  C_18
REMARK   13  A    between atoms: CB_13  and  CG_14
REMARK   14  A    between atoms: CG_14  and  CD1_22
REMARK   15  A    between atoms: CG_14  and  CD2_23
REMARK   16  A    between atoms: CA_15  and  CB_17
REMARK   17  A    between atoms: CA_15  and  C_26
REMARK   18  A    between atoms: CB_17  and  CG_19
REMARK   19  A    between atoms: CG_19  and  CD1_24
REMARK   20  A    between atoms: CG_19  and  CD2_25
REMARK   21  A    between atoms: C_28  and  C_29
REMARK                            x       y       z     vdW  Elec       q    Type
REMARK                         _______ _______ _______ _____ _____    ______ ____
ROOT
ATOM      1  O   UNL     1      -7.021  -1.360   1.536  0.00  0.00    +0.000 OA
ATOM      2  N   UNL     1      -6.124   0.163   0.095  0.00  0.00    +0.000 N 
ATOM      3  C   UNL     1      -7.096  -0.745   0.477  0.00  0.00    +0.000 C 
ATOM      4  H   UNL     1      -6.479   0.933  -0.467  0.00  0.00    +0.000 HD
ENDROOT
BRANCH   2   5
ATOM      5  CA  UNL     1      -5.049   0.505   1.027  0.00  0.00    +0.000 C 
BRANCH   5   8
ATOM      6  O   UNL     1      -5.908   2.759   1.177  0.00  0.00    +0.000 OA
ATOM      7  N   UNL     1      -5.619   1.767   3.148  0.00  0.00    +0.000 N 
ATOM      8  C   UNL     1      -5.559   1.744   1.788  0.00  0.00    +0.000 C 
ATOM      9  H   UNL     1      -6.005   2.645   3.480  0.00  0.00    +0.000 HD
BRANCH   7  10
ATOM     10  CA  UNL     1      -5.621   0.651   4.093  0.00  0.00    +0.000 C 
BRANCH  10  12
ATOM     11  O   UNL     1      -8.041   0.803   4.326  0.00  0.00    +0.000 OA
ATOM     12  C   UNL     1      -6.948   0.606   4.850  0.00  0.00    +0.000 C 
ENDBRANCH  10  12
BRANCH  10  13
ATOM     13  CB  UNL     1      -4.388   0.664   5.010  0.00  0.00    +0.000 C 
BRANCH  13  14
ATOM     14  CG  UNL     1      -3.237  -0.309   4.669  0.00  0.00    +0.000 C 
ATOM     15  CD1 UNL     1      -3.673  -1.496   3.812  0.00  0.00    +0.000 C 
ATOM     16  CD2 UNL     1      -2.121   0.457   3.950  0.00  0.00    +0.000 C 
ENDBRANCH  13  14
ENDBRANCH  10  13
ENDBRANCH   7  10
ENDBRANCH   5   8
BRANCH   5  17
ATOM     17  CB  UNL     1      -3.770   0.847   0.249  0.00  0.00    +0.000 C 
BRANCH  17  18
ATOM     18  CG  UNL     1      -2.590  -0.113   0.499  0.00  0.00    +0.000 C 
ATOM     19  CD1 UNL     1      -2.907  -1.546   0.071  0.00  0.00    +0.000 C 
ATOM     20  CD2 UNL     1      -1.354   0.381  -0.260  0.00  0.00    +0.000 C 
ENDBRANCH  17  18
ENDBRANCH   5  17
ENDBRANCH   2   5
BRANCH   3  21
ATOM     21  CA  UNL     1      -8.300  -0.850  -0.492  0.00  0.00    +0.000 C 
BRANCH  21  23
ATOM     22  O   UNL     1      -7.971  -2.444  -2.798  0.00  0.00    +0.000 OA
ATOM     23  N   UNL     1      -8.704  -2.255  -0.633  0.00  0.00    +0.000 N 
ATOM     24  C   ACE A   0      -8.525  -2.917  -1.818  0.00  0.00    +0.000 C 
ATOM     25  H   UNL     1      -9.454  -2.587  -0.044  0.00  0.00    +0.000 HD
BRANCH  24  26
ATOM     26  O   UNL     1      -9.128  -4.130  -1.838  0.00  0.00    +0.000 OA
BRANCH  26  27
ATOM     27  C   UNL     1     -10.496  -4.132  -2.266  0.00  0.00    +0.000 C 
BRANCH  27  28
ATOM     28  C   UNL     1     -11.403  -4.267  -1.068  0.00  0.00    +0.000 A 
ATOM     29  C   UNL     1     -10.984  -4.984   0.062  0.00  0.00    +0.000 A 
ATOM     30  C   UNL     1     -12.699  -3.731  -1.085  0.00  0.00    +0.000 A 
ATOM     31  C   UNL     1     -11.834  -5.137   1.160  0.00  0.00    +0.000 A 
ATOM     32  C   UNL     1     -13.547  -3.885   0.012  0.00  0.00    +0.000 A 
ATOM     33  C   UNL     1     -13.114  -4.588   1.135  0.00  0.00    +0.000 A 
ENDBRANCH  27  28
ENDBRANCH  26  27
ENDBRANCH  24  26
ENDBRANCH  21  23
BRANCH  21  34
ATOM     34  CB  UNL     1      -9.493  -0.011  -0.000  0.00  0.00    +0.000 C 
BRANCH  34  35
ATOM     35  CG  UNL     1     -10.875  -0.693  -0.076  0.00  0.00    +0.000 C 
ATOM     36  CD1 UNL     1     -11.498  -0.907   1.304  0.00  0.00    +0.000 C 
ATOM     37  CD2 UNL     1     -11.817   0.155  -0.937  0.00  0.00    +0.000 C 
ENDBRANCH  34  35
ENDBRANCH  21  34
ENDBRANCH   3  21
TORSDOF 15
ENDMDL
MODEL 4
REMARK VINA RESULT:      -5.4      6.222      9.760
REMARK  Name = 
REMARK  21 active torsions:
REMARK  status: ('A' for Active; 'I' for Inactive)
REMARK    1  A    between atoms: O_3  and  C_27
REMARK    2  A    between atoms: O_3  and  C_28
REMARK    3  A    between atoms: N_6  and  CA_9
REMARK    4  A    between atoms: N_7  and  CA_15
REMARK    5  A    between atoms: N_8  and  CA_12
REMARK    6  A    between atoms: CA_9  and  CB_10
REMARK    7  A    between atoms: CA_9  and  C_16
REMARK    8  A    between atoms: CB_10  and  CG_11
REMARK    9  A    between atoms: CG_11  and  CD1_20
REMARK   10  A    between atoms: CG_11  and  CD2_21
REMARK   11  A    between atoms: CA_12  and  CB_13
REMARK   12  A    between atoms: CA_12  and  C_18
REMARK   13  A    between atoms: CB_13  and  CG_14
REMARK   14  A    between atoms: CG_14  and  CD1_22
REMARK   15  A    between atoms: CG_14  and  CD2_23
REMARK   16  A    between atoms: CA_15  and  CB_17
REMARK   17  A    between atoms: CA_15  and  C_26
REMARK   18  A    between atoms: CB_17  and  CG_19
REMARK   19  A    between atoms: CG_19  and  CD1_24
REMARK   20  A    between atoms: CG_19  and  CD2_25
REMARK   21  A    between atoms: C_28  and  C_29
REMARK                            x       y       z     vdW  Elec       q    Type
REMARK                         _______ _______ _______ _____ _____    ______ ____
ROOT
ATOM      1  O   UNL     1      -6.631  -0.693 -20.080  0.00  0.00    +0.000 OA
ATOM      2  N   UNL     1      -6.153  -2.911 -19.848  0.00  0.00    +0.000 N 
ATOM      3  C   UNL     1      -5.890  -1.568 -19.641  0.00  0.00    +0.000 C 
ATOM      4  H   UNL     1      -5.832  -3.514 -19.094  0.00  0.00    +0.000 HD
ENDROOT
BRANCH   2   5
ATOM      5  CA  UNL     1      -7.407  -3.312 -20.487  0.00  0.00    +0.000 C 
BRANCH   5   8
ATOM      6  O   UNL     1      -7.408  -5.069 -18.828  0.00  0.00    +0.000 OA
ATOM      7  N   UNL     1      -9.430  -4.269 -19.300  0.00  0.00    +0.000 N 
ATOM      8  C   UNL     1      -8.080  -4.265 -19.482  0.00  0.00    +0.000 C 
ATOM      9  H   UNL     1      -9.699  -4.934 -18.583  0.00  0.00    +0.000 HD
BRANCH   7  10
ATOM     10  CA  UNL     1     -10.412  -3.239 -19.641  0.00  0.00    +0.000 C 
BRANCH  10  12
ATOM     11  O   UNL     1     -10.987  -4.619 -21.564  0.00  0.00    +0.000 OA
ATOM     12  C   UNL     1     -11.008  -3.517 -21.020  0.00  0.00    +0.000 C 
ENDBRANCH  10  12
BRANCH  10  13
ATOM     13  CB  UNL     1      -9.841  -1.820 -19.491  0.00  0.00    +0.000 C 
BRANCH  13  14
ATOM     14  CG  UNL     1     -10.156  -1.059 -18.184  0.00  0.00    +0.000 C 
ATOM     15  CD1 UNL     1     -11.327  -0.087 -18.310  0.00  0.00    +0.000 C 
ATOM     16  CD2 UNL     1     -10.448  -2.068 -17.067  0.00  0.00    +0.000 C 
ENDBRANCH  13  14
ENDBRANCH  10  13
ENDBRANCH   7  10
ENDBRANCH   5   8
BRANCH   5  17
ATOM     17  CB  UNL     1      -7.114  -4.047 -21.803  0.00  0.00    +0.000 C 
BRANCH  17  18
ATOM     18  CG  UNL     1      -7.687  -3.365 -23.061  0.00  0.00    +0.000 C 
ATOM     19  CD1 UNL     1      -8.199  -1.953 -22.774  0.00  0.00    +0.000 C 
ATOM     20  CD2 UNL     1      -6.611  -3.302 -24.149  0.00  0.00    +0.000 C 
ENDBRANCH  17  18
ENDBRANCH   5  17
ENDBRANCH   2   5
BRANCH   3  21
ATOM     21  CA  UNL     1      -4.653  -1.280 -18.755  0.00  0.00    +0.000 C 
BRANCH  21  23
ATOM     22  O   UNL     1      -3.367  -3.153 -17.080  0.00  0.00    +0.000 OA
ATOM     23  N   UNL     1      -3.548  -2.166 -19.143  0.00  0.00    +0.000 N 
ATOM     24  C   ACE A   0      -2.977  -3.011 -18.229  0.00  0.00    +0.000 C 
ATOM     25  H   UNL     1      -2.957  -1.870 -19.907  0.00  0.00    +0.000 HD
BRANCH  24  26
ATOM     26  O   UNL     1      -1.852  -3.605 -18.694  0.00  0.00    +0.000 OA
BRANCH  26  27
ATOM     27  C   UNL     1      -1.151  -2.886 -19.716  0.00  0.00    +0.000 C 
BRANCH  27  28
ATOM     28  C   UNL     1       0.195  -3.525 -19.954  0.00  0.00    +0.000 A 
ATOM     29  C   UNL     1       1.351  -2.736 -20.032  0.00  0.00    +0.000 A 
ATOM     30  C   UNL     1       0.306  -4.908 -20.160  0.00  0.00    +0.000 A 
ATOM     31  C   UNL     1       2.594  -3.322 -20.284  0.00  0.00    +0.000 A 
ATOM     32  C   UNL     1       1.548  -5.492 -20.412  0.00  0.00    +0.000 A 
ATOM     33  C   UNL     1       2.692  -4.699 -20.473  0.00  0.00    +0.000 A 
ENDBRANCH  27  28
ENDBRANCH  26  27
ENDBRANCH  24  26
ENDBRANCH  21  23
BRANCH  21  34
ATOM     34  CB  UNL     1      -4.209   0.189 -18.868  0.00  0.00    +0.000 C 
BRANCH  34  35
ATOM     35  CG  UNL     1      -3.106   0.484 -19.907  0.00  0.00    +0.000 C 
ATOM     36  CD1 UNL     1      -3.587   1.412 -21.023  0.00  0.00    +0.000 C 
ATOM     37  CD2 UNL     1      -1.897   1.111 -19.205  0.00  0.00    +0.000 C 
ENDBRANCH  34  35
ENDBRANCH  21  34
ENDBRANCH   3  21
TORSDOF 15
ENDMDL
MODEL 5
REMARK VINA RESULT:      -5.4     16.670     20.302
REMARK  Name = 
REMARK  21 active torsions:
REMARK  status: ('A' for Active; 'I' for Inactive)
REMARK    1  A    between atoms: O_3  and  C_27
REMARK    2  A    between atoms: O_3  and  C_28
REMARK    3  A    between atoms: N_6  and  CA_9
REMARK    4  A    between atoms: N_7  and  CA_15
REMARK    5  A    between atoms: N_8  and  CA_12
REMARK    6  A    between atoms: CA_9  and  CB_10
REMARK    7  A    between atoms: CA_9  and  C_16
REMARK    8  A    between atoms: CB_10  and  CG_11
REMARK    9  A    between atoms: CG_11  and  CD1_20
REMARK   10  A    between atoms: CG_11  and  CD2_21
REMARK   11  A    between atoms: CA_12  and  CB_13
REMARK   12  A    between atoms: CA_12  and  C_18
REMARK   13  A    between atoms: CB_13  and  CG_14
REMARK   14  A    between atoms: CG_14  and  CD1_22
REMARK   15  A    between atoms: CG_14  and  CD2_23
REMARK   16  A    between atoms: CA_15  and  CB_17
REMARK   17  A    between atoms: CA_15  and  C_26
REMARK   18  A    between atoms: CB_17  and  CG_19
REMARK   19  A    between atoms: CG_19  and  CD1_24
REMARK   20  A    between atoms: CG_19  and  CD2_25
REMARK   21  A    between atoms: C_28  and  C_29
REMARK                            x       y       z     vdW  Elec       q    Type
REMARK                         _______ _______ _______ _____ _____    ______ ____
ROOT
ATOM      1  O   UNL     1      10.410 -17.237 -14.441  0.00  0.00    +0.000 OA
ATOM      2  N   UNL     1       9.642 -15.458 -15.644  0.00  0.00    +0.000 N 
ATOM      3  C   UNL     1       9.461 -16.568 -14.837  0.00  0.00    +0.000 C 
ATOM      4  H   UNL     1       8.944 -14.731 -15.508  0.00  0.00    +0.000 HD
ENDROOT
BRANCH   2   5
ATOM      5  CA  UNL     1      10.998 -14.986 -15.929  0.00  0.00    +0.000 C 
BRANCH   5   8
ATOM      6  O   UNL     1       9.945 -12.905 -15.296  0.00  0.00    +0.000 OA
ATOM      7  N   UNL     1      12.168 -12.815 -15.350  0.00  0.00    +0.000 N 
ATOM      8  C   UNL     1      11.004 -13.507 -15.498  0.00  0.00    +0.000 C 
ATOM      9  H   UNL     1      11.990 -11.868 -15.033  0.00  0.00    +0.000 HD
BRANCH   7  10
ATOM     10  CA  UNL     1      13.528 -13.322 -15.171  0.00  0.00    +0.000 C 
BRANCH  10  12
ATOM     11  O   UNL     1      13.452 -12.255 -12.982  0.00  0.00    +0.000 OA
ATOM     12  C   UNL     1      14.015 -13.031 -13.751  0.00  0.00    +0.000 C 
ENDBRANCH  10  12
BRANCH  10  13
ATOM     13  CB  UNL     1      14.484 -12.820 -16.265  0.00  0.00    +0.000 C 
BRANCH  13  14
ATOM     14  CG  UNL     1      13.852 -12.257 -17.558  0.00  0.00    +0.000 C 
ATOM     15  CD1 UNL     1      13.998 -10.743 -17.700  0.00  0.00    +0.000 C 
ATOM     16  CD2 UNL     1      14.483 -12.946 -18.773  0.00  0.00    +0.000 C 
ENDBRANCH  13  14
ENDBRANCH  10  13
ENDBRANCH   7  10
ENDBRANCH   5   8
BRANCH   5  17
ATOM     17  CB  UNL     1      11.288 -15.104 -17.432  0.00  0.00    +0.000 C 
BRANCH  17  18
ATOM     18  CG  UNL     1      12.193 -16.290 -17.820  0.00  0.00    +0.000 C 
ATOM     19  CD1 UNL     1      13.278 -16.559 -16.777  0.00  0.00    +0.000 C 
ATOM     20  CD2 UNL     1      11.341 -17.550 -18.003  0.00  0.00    +0.000 C 
ENDBRANCH  17  18
ENDBRANCH   5  17
ENDBRANCH   2   5
BRANCH   3  21
ATOM     21  CA  UNL     1       7.993 -16.830 -14.419  0.00  0.00    +0.000 C 
BRANCH  21  23
ATOM     22  O   UNL     1       7.391 -18.477 -12.206  0.00  0.00    +0.000 OA
ATOM     23  N   UNL     1       7.780 -16.375 -13.038  0.00  0.00    +0.000 N 
ATOM     24  C   ACE A   0       7.457 -17.268 -12.051  0.00  0.00    +0.000 C 
ATOM     25  H   UNL     1       7.466 -15.425 -12.902  0.00  0.00    +0.000 HD
BRANCH  24  26
ATOM     26  O   UNL     1       7.102 -16.663 -10.892  0.00  0.00    +0.000 OA
BRANCH  26  27
ATOM     27  C   UNL     1       5.867 -17.106 -10.317  0.00  0.00    +0.000 C 
BRANCH  27  28
ATOM     28  C   UNL     1       4.712 -16.427 -11.012  0.00  0.00    +0.000 A 
ATOM     29  C   UNL     1       3.559 -17.152 -11.347  0.00  0.00    +0.000 A 
ATOM     30  C   UNL     1       4.794 -15.078 -11.387  0.00  0.00    +0.000 A 
ATOM     31  C   UNL     1       2.502 -16.534 -12.019  0.00  0.00    +0.000 A 
ATOM     32  C   UNL     1       3.737 -14.461 -12.059  0.00  0.00    +0.000 A 
ATOM     33  C   UNL     1       2.591 -15.189 -12.374  0.00  0.00    +0.000 A 
ENDBRANCH  27  28
ENDBRANCH  26  27
ENDBRANCH  24  26
ENDBRANCH  21  23
BRANCH  21  34
ATOM     34  CB  UNL     1       7.003 -16.120 -15.360  0.00  0.00    +0.000 C 
BRANCH  34  35
ATOM     35  CG  UNL     1       5.533 -16.087 -14.894  0.00  0.00    +0.000 C 
ATOM     36  CD1 UNL     1       4.654 -15.216 -15.793  0.00  0.00    +0.000 C 
ATOM     37  CD2 UNL     1       4.975 -17.514 -14.860  0.00  0.00    +0.000 C 
ENDBRANCH  34  35
ENDBRANCH  21  34
ENDBRANCH   3  21
TORSDOF 15
ENDMDL
MODEL 6
REMARK VINA RESULT:      -5.3     19.181     21.526
REMARK  Name = 
REMARK  21 active torsions:
REMARK  status: ('A' for Active; 'I' for Inactive)
REMARK    1  A    between atoms: O_3  and  C_27
REMARK    2  A    between atoms: O_3  and  C_28
REMARK    3  A    between atoms: N_6  and  CA_9
REMARK    4  A    between atoms: N_7  and  CA_15
REMARK    5  A    between atoms: N_8  and  CA_12
REMARK    6  A    between atoms: CA_9  and  CB_10
REMARK    7  A    between atoms: CA_9  and  C_16
REMARK    8  A    between atoms: CB_10  and  CG_11
REMARK    9  A    between atoms: CG_11  and  CD1_20
REMARK   10  A    between atoms: CG_11  and  CD2_21
REMARK   11  A    between atoms: CA_12  and  CB_13
REMARK   12  A    between atoms: CA_12  and  C_18
REMARK   13  A    between atoms: CB_13  and  CG_14
REMARK   14  A    between atoms: CG_14  and  CD1_22
REMARK   15  A    between atoms: CG_14  and  CD2_23
REMARK   16  A    between atoms: CA_15  and  CB_17
REMARK   17  A    between atoms: CA_15  and  C_26
REMARK   18  A    between atoms: CB_17  and  CG_19
REMARK   19  A    between atoms: CG_19  and  CD1_24
REMARK   20  A    between atoms: CG_19  and  CD2_25
REMARK   21  A    between atoms: C_28  and  C_29
REMARK                            x       y       z     vdW  Elec       q    Type
REMARK                         _______ _______ _______ _____ _____    ______ ____
ROOT
ATOM      1  O   UNL     1       4.798   3.772   1.935  0.00  0.00    +0.000 OA
ATOM      2  N   UNL     1       4.060   2.056   0.626  0.00  0.00    +0.000 N 
ATOM      3  C   UNL     1       5.005   2.992   1.011  0.00  0.00    +0.000 C 
ATOM      4  H   UNL     1       4.459   1.197   0.255  0.00  0.00    +0.000 HD
ENDROOT
BRANCH   2   5
ATOM      5  CA  UNL     1       2.839   1.895   1.417  0.00  0.00    +0.000 C 
BRANCH   5   8
ATOM      6  O   UNL     1       3.592  -0.306   2.074  0.00  0.00    +0.000 OA
ATOM      7  N   UNL     1       2.990   0.992   3.779  0.00  0.00    +0.000 N 
ATOM      8  C   UNL     1       3.171   0.795   2.444  0.00  0.00    +0.000 C 
ATOM      9  H   UNL     1       3.287   0.180   4.310  0.00  0.00    +0.000 HD
BRANCH   7  10
ATOM     10  CA  UNL     1       2.859   2.247   4.519  0.00  0.00    +0.000 C 
BRANCH  10  12
ATOM     11  O   UNL     1       4.078   2.118   6.624  0.00  0.00    +0.000 OA
ATOM     12  C   UNL     1       4.064   2.443   5.440  0.00  0.00    +0.000 C 
ENDBRANCH  10  12
BRANCH  10  13
ATOM     13  CB  UNL     1       1.507   2.357   5.241  0.00  0.00    +0.000 C 
BRANCH  13  14
ATOM     14  CG  UNL     1       0.454   3.313   4.640  0.00  0.00    +0.000 C 
ATOM     15  CD1 UNL     1       1.034   4.311   3.640  0.00  0.00    +0.000 C 
ATOM     16  CD2 UNL     1      -0.649   2.493   3.961  0.00  0.00    +0.000 C 
ENDBRANCH  13  14
ENDBRANCH  10  13
ENDBRANCH   7  10
ENDBRANCH   5   8
BRANCH   5  17
ATOM     17  CB  UNL     1       1.684   1.446   0.511  0.00  0.00    +0.000 C 
BRANCH  17  18
ATOM     18  CG  UNL     1       0.469   2.395   0.502  0.00  0.00    +0.000 C 
ATOM     19  CD1 UNL     1       0.796   3.751  -0.125  0.00  0.00    +0.000 C 
ATOM     20  CD2 UNL     1      -0.687   1.746  -0.267  0.00  0.00    +0.000 C 
ENDBRANCH  17  18
ENDBRANCH   5  17
ENDBRANCH   2   5
BRANCH   3  21
ATOM     21  CA  UNL     1       6.346   2.910   0.242  0.00  0.00    +0.000 C 
BRANCH  21  23
ATOM     22  O   UNL     1       6.125   4.157  -2.281  0.00  0.00    +0.000 OA
ATOM     23  N   UNL     1       6.810   4.263  -0.095  0.00  0.00    +0.000 N 
ATOM     24  C   ACE A   0       6.679   4.749  -1.369  0.00  0.00    +0.000 C 
ATOM     25  H   UNL     1       7.562   4.650   0.457  0.00  0.00    +0.000 HD
BRANCH  24  26
ATOM     26  O   UNL     1       7.332   5.921  -1.552  0.00  0.00    +0.000 OA
BRANCH  26  27
ATOM     27  C   UNL     1       8.736   5.812  -1.816  0.00  0.00    +0.000 C 
BRANCH  27  28
ATOM     28  C   UNL     1       9.510   6.568  -0.763  0.00  0.00    +0.000 A 
ATOM     29  C   UNL     1      10.909   6.639  -0.824  0.00  0.00    +0.000 A 
ATOM     30  C   UNL     1       8.850   7.161   0.324  0.00  0.00    +0.000 A 
ATOM     31  C   UNL     1      11.629   7.310   0.166  0.00  0.00    +0.000 A 
ATOM     32  C   UNL     1       9.571   7.831   1.313  0.00  0.00    +0.000 A 
ATOM     33  C   UNL     1      10.961   7.907   1.233  0.00  0.00    +0.000 A 
ENDBRANCH  27  28
ENDBRANCH  26  27
ENDBRANCH  24  26
ENDBRANCH  21  23
BRANCH  21  34
ATOM     34  CB  UNL     1       7.423   2.180   1.064  0.00  0.00    +0.000 C 
BRANCH  34  35
ATOM     35  CG  UNL     1       8.839   2.792   1.018  0.00  0.00    +0.000 C 
ATOM     36  CD1 UNL     1       9.244   3.430   2.348  0.00  0.00    +0.000 C 
ATOM     37  CD2 UNL     1       9.853   1.706   0.642  0.00  0.00    +0.000 C 
ENDBRANCH  34  35
ENDBRANCH  21  34
ENDBRANCH   3  21
TORSDOF 15
ENDMDL
MODEL 7
REMARK VINA RESULT:      -5.3      7.745     11.458
REMARK  Name = 
REMARK  21 active torsions:
REMARK  status: ('A' for Active; 'I' for Inactive)
REMARK    1  A    between atoms: O_3  and  C_27
REMARK    2  A    between atoms: O_3  and  C_28
REMARK    3  A    between atoms: N_6  and  CA_9
REMARK    4  A    between atoms: N_7  and  CA_15
REMARK    5  A    between atoms: N_8  and  CA_12
REMARK    6  A    between atoms: CA_9  and  CB_10
REMARK    7  A    between atoms: CA_9  and  C_16
REMARK    8  A    between atoms: CB_10  and  CG_11
REMARK    9  A    between atoms: CG_11  and  CD1_20
REMARK   10  A    between atoms: CG_11  and  CD2_21
REMARK   11  A    between atoms: CA_12  and  CB_13
REMARK   12  A    between atoms: CA_12  and  C_18
REMARK   13  A    between atoms: CB_13  and  CG_14
REMARK   14  A    between atoms: CG_14  and  CD1_22
REMARK   15  A    between atoms: CG_14  and  CD2_23
REMARK   16  A    between atoms: CA_15  and  CB_17
REMARK   17  A    between atoms: CA_15  and  C_26
REMARK   18  A    between atoms: CB_17  and  CG_19
REMARK   19  A    between atoms: CG_19  and  CD1_24
REMARK   20  A    between atoms: CG_19  and  CD2_25
REMARK   21  A    between atoms: C_28  and  C_29
REMARK                            x       y       z     vdW  Elec       q    Type
REMARK                         _______ _______ _______ _____ _____    ______ ____
ROOT
ATOM      1  O   UNL     1      -7.769  -3.569 -21.741  0.00  0.00    +0.000 OA
ATOM      2  N   UNL     1      -8.752  -1.584 -21.195  0.00  0.00    +0.000 N 
ATOM      3  C   UNL     1      -8.250  -2.836 -20.882  0.00  0.00    +0.000 C 
ATOM      4  H   UNL     1      -8.655  -0.903 -20.445  0.00  0.00    +0.000 HD
ENDROOT
BRANCH   2   5
ATOM      5  CA  UNL     1      -8.590  -1.059 -22.551  0.00  0.00    +0.000 C 
BRANCH   5   8
ATOM      6  O   UNL     1      -8.429   1.192 -21.687  0.00  0.00    +0.000 OA
ATOM      7  N   UNL     1      -6.715   0.591 -22.971  0.00  0.00    +0.000 N 
ATOM      8  C   UNL     1      -7.903   0.308 -22.370  0.00  0.00    +0.000 C 
ATOM      9  H   UNL     1      -6.393   1.520 -22.722  0.00  0.00    +0.000 HD
BRANCH   7  10
ATOM     10  CA  UNL     1      -5.713  -0.325 -23.518  0.00  0.00    +0.000 C 
BRANCH  10  12
ATOM     11  O   UNL     1      -6.725  -0.423 -25.732  0.00  0.00    +0.000 OA
ATOM     12  C   UNL     1      -6.262  -1.020 -24.764  0.00  0.00    +0.000 C 
ENDBRANCH  10  12
BRANCH  10  13
ATOM     13  CB  UNL     1      -5.173  -1.296 -22.457  0.00  0.00    +0.000 C 
BRANCH  13  14
ATOM     14  CG  UNL     1      -3.769  -1.012 -21.880  0.00  0.00    +0.000 C 
ATOM     15  CD1 UNL     1      -2.868  -2.244 -21.828  0.00  0.00    +0.000 C 
ATOM     16  CD2 UNL     1      -3.090   0.081 -22.713  0.00  0.00    +0.000 C 
ENDBRANCH  13  14
ENDBRANCH  10  13
ENDBRANCH   7  10
ENDBRANCH   5   8
BRANCH   5  17
ATOM     17  CB  UNL     1      -9.964  -0.881 -23.212  0.00  0.00    +0.000 C 
BRANCH  17  18
ATOM     18  CG  UNL     1     -11.162  -1.047 -22.257  0.00  0.00    +0.000 C 
ATOM     19  CD1 UNL     1     -11.817   0.290 -21.908  0.00  0.00    +0.000 C 
ATOM     20  CD2 UNL     1     -12.205  -1.971 -22.893  0.00  0.00    +0.000 C 
ENDBRANCH  17  18
ENDBRANCH   5  17
ENDBRANCH   2   5
BRANCH   3  21
ATOM     21  CA  UNL     1      -8.274  -3.184 -19.373  0.00  0.00    +0.000 C 
BRANCH  21  23
ATOM     22  O   UNL     1      -5.504  -3.640 -19.075  0.00  0.00    +0.000 OA
ATOM     23  N   UNL     1      -7.331  -2.320 -18.650  0.00  0.00    +0.000 N 
ATOM     24  C   ACE A   0      -6.010  -2.665 -18.542  0.00  0.00    +0.000 C 
ATOM     25  H   UNL     1      -7.702  -1.736 -17.914  0.00  0.00    +0.000 HD
BRANCH  24  26
ATOM     26  O   UNL     1      -5.329  -1.871 -17.681  0.00  0.00    +0.000 OA
BRANCH  26  27
ATOM     27  C   UNL     1      -3.911  -2.072 -17.646  0.00  0.00    +0.000 C 
BRANCH  27  28
ATOM     28  C   UNL     1      -3.214  -0.881 -18.259  0.00  0.00    +0.000 A 
ATOM     29  C   UNL     1      -1.840  -0.923 -18.529  0.00  0.00    +0.000 A 
ATOM     30  C   UNL     1      -3.916   0.307 -18.514  0.00  0.00    +0.000 A 
ATOM     31  C   UNL     1      -1.187   0.188 -19.066  0.00  0.00    +0.000 A 
ATOM     32  C   UNL     1      -3.263   1.417 -19.050  0.00  0.00    +0.000 A 
ATOM     33  C   UNL     1      -1.898   1.357 -19.327  0.00  0.00    +0.000 A 
ENDBRANCH  27  28
ENDBRANCH  26  27
ENDBRANCH  24  26
ENDBRANCH  21  23
BRANCH  21  34
ATOM     34  CB  UNL     1      -9.685  -3.026 -18.781  0.00  0.00    +0.000 C 
BRANCH  34  35
ATOM     35  CG  UNL     1      -9.870  -1.875 -17.771  0.00  0.00    +0.000 C 
ATOM     36  CD1 UNL     1     -10.684  -0.716 -18.347  0.00  0.00    +0.000 C 
ATOM     37  CD2 UNL     1     -10.559  -2.407 -16.510  0.00  0.00    +0.000 C 
ENDBRANCH  34  35
ENDBRANCH  21  34
ENDBRANCH   3  21
TORSDOF 15
ENDMDL
MODEL 8
REMARK VINA RESULT:      -5.2      4.545      8.691
REMARK  Name = 
REMARK  21 active torsions:
REMARK  status: ('A' for Active; 'I' for Inactive)
REMARK    1  A    between atoms: O_3  and  C_27
REMARK    2  A    between atoms: O_3  and  C_28
REMARK    3  A    between atoms: N_6  and  CA_9
REMARK    4  A    between atoms: N_7  and  CA_15
REMARK    5  A    between atoms: N_8  and  CA_12
REMARK    6  A    between atoms: CA_9  and  CB_10
REMARK    7  A    between atoms: CA_9  and  C_16
REMARK    8  A    between atoms: CB_10  and  CG_11
REMARK    9  A    between atoms: CG_11  and  CD1_20
REMARK   10  A    between atoms: CG_11  and  CD2_21
REMARK   11  A    between atoms: CA_12  and  CB_13
REMARK   12  A    between atoms: CA_12  and  C_18
REMARK   13  A    between atoms: CB_13  and  CG_14
REMARK   14  A    between atoms: CG_14  and  CD1_22
REMARK   15  A    between atoms: CG_14  and  CD2_23
REMARK   16  A    between atoms: CA_15  and  CB_17
REMARK   17  A    between atoms: CA_15  and  C_26
REMARK   18  A    between atoms: CB_17  and  CG_19
REMARK   19  A    between atoms: CG_19  and  CD1_24
REMARK   20  A    between atoms: CG_19  and  CD2_25
REMARK   21  A    between atoms: C_28  and  C_29
REMARK                            x       y       z     vdW  Elec       q    Type
REMARK                         _______ _______ _______ _____ _____    ______ ____
ROOT
ATOM      1  O   UNL     1       9.500  -0.851 -21.740  0.00  0.00    +0.000 OA
ATOM      2  N   UNL     1       9.308  -2.164 -19.884  0.00  0.00    +0.000 N 
ATOM      3  C   UNL     1       9.399  -0.937 -20.520  0.00  0.00    +0.000 C 
ATOM      4  H   UNL     1       8.755  -2.144 -19.031  0.00  0.00    +0.000 HD
ENDROOT
BRANCH   2   5
ATOM      5  CA  UNL     1       9.195  -3.385 -20.683  0.00  0.00    +0.000 C 
BRANCH   5   8
ATOM      6  O   UNL     1       9.078  -5.061 -18.946  0.00  0.00    +0.000 OA
ATOM      7  N   UNL     1       7.114  -4.581 -19.876  0.00  0.00    +0.000 N 
ATOM      8  C   UNL     1       8.458  -4.388 -19.776  0.00  0.00    +0.000 C 
ATOM      9  H   UNL     1       6.791  -5.252 -19.186  0.00  0.00    +0.000 HD
BRANCH   7  10
ATOM     10  CA  UNL     1       6.098  -3.718 -20.478  0.00  0.00    +0.000 C 
BRANCH  10  12
ATOM     11  O   UNL     1       6.427  -1.777 -19.044  0.00  0.00    +0.000 OA
ATOM     12  C   UNL     1       5.670  -2.638 -19.485  0.00  0.00    +0.000 C 
ENDBRANCH  10  12
BRANCH  10  13
ATOM     13  CB  UNL     1       4.923  -4.522 -21.059  0.00  0.00    +0.000 C 
BRANCH  13  14
ATOM     14  CG  UNL     1       3.508  -3.919 -20.917  0.00  0.00    +0.000 C 
ATOM     15  CD1 UNL     1       2.996  -3.256 -22.194  0.00  0.00    +0.000 C 
ATOM     16  CD2 UNL     1       2.530  -5.016 -20.483  0.00  0.00    +0.000 C 
ENDBRANCH  13  14
ENDBRANCH  10  13
ENDBRANCH   7  10
ENDBRANCH   5   8
BRANCH   5  17
ATOM     17  CB  UNL     1      10.594  -3.912 -21.034  0.00  0.00    +0.000 C 
BRANCH  17  18
ATOM     18  CG  UNL     1      10.682  -4.647 -22.386  0.00  0.00    +0.000 C 
ATOM     19  CD1 UNL     1      10.615  -6.166 -22.227  0.00  0.00    +0.000 C 
ATOM     20  CD2 UNL     1       9.544  -4.183 -23.301  0.00  0.00    +0.000 C 
ENDBRANCH  17  18
ENDBRANCH   5  17
ENDBRANCH   2   5
BRANCH   3  21
ATOM     21  CA  UNL     1       9.278   0.289 -19.581  0.00  0.00    +0.000 C 
BRANCH  21  23
ATOM     22  O   UNL     1       8.203   2.667 -20.657  0.00  0.00    +0.000 OA
ATOM     23  N   UNL     1       7.875   0.715 -19.498  0.00  0.00    +0.000 N 
ATOM     24  C   ACE A   0       7.476   1.912 -20.030  0.00  0.00    +0.000 C 
ATOM     25  H   UNL     1       7.323   0.361 -18.729  0.00  0.00    +0.000 HD
BRANCH  24  26
ATOM     26  O   UNL     1       6.205   2.239 -19.693  0.00  0.00    +0.000 OA
BRANCH  26  27
ATOM     27  C   UNL     1       5.759   1.753 -18.421  0.00  0.00    +0.000 C 
BRANCH  27  28
ATOM     28  C   UNL     1       4.525   0.905 -18.607  0.00  0.00    +0.000 A 
ATOM     29  C   UNL     1       3.921   0.279 -17.507  0.00  0.00    +0.000 A 
ATOM     30  C   UNL     1       3.996   0.679 -19.886  0.00  0.00    +0.000 A 
ATOM     31  C   UNL     1       2.798  -0.533 -17.681  0.00  0.00    +0.000 A 
ATOM     32  C   UNL     1       2.874  -0.133 -20.059  0.00  0.00    +0.000 A 
ATOM     33  C   UNL     1       2.275  -0.738 -18.955  0.00  0.00    +0.000 A 
ENDBRANCH  27  28
ENDBRANCH  26  27
ENDBRANCH  24  26
ENDBRANCH  21  23
BRANCH  21  34
ATOM     34  CB  UNL     1       9.812  -0.026 -18.172  0.00  0.00    +0.000 C 
BRANCH  34  35
ATOM     35  CG  UNL     1       9.837   1.155 -17.180  0.00  0.00    +0.000 C 
ATOM     36  CD1 UNL     1      10.408   0.761 -15.817  0.00  0.00    +0.000 C 
ATOM     37  CD2 UNL     1      10.666   2.301 -17.771  0.00  0.00    +0.000 C 
ENDBRANCH  34  35
ENDBRANCH  21  34
ENDBRANCH   3  21
TORSDOF 15
ENDMDL
MODEL 9
REMARK VINA RESULT:      -5.2      7.589     12.145
REMARK  Name = 
REMARK  21 active torsions:
REMARK  status: ('A' for Active; 'I' for Inactive)
REMARK    1  A    between atoms: O_3  and  C_27
REMARK    2  A    between atoms: O_3  and  C_28
REMARK    3  A    between atoms: N_6  and  CA_9
REMARK    4  A    between atoms: N_7  and  CA_15
REMARK    5  A    between atoms: N_8  and  CA_12
REMARK    6  A    between atoms: CA_9  and  CB_10
REMARK    7  A    between atoms: CA_9  and  C_16
REMARK    8  A    between atoms: CB_10  and  CG_11
REMARK    9  A    between atoms: CG_11  and  CD1_20
REMARK   10  A    between atoms: CG_11  and  CD2_21
REMARK   11  A    between atoms: CA_12  and  CB_13
REMARK   12  A    between atoms: CA_12  and  C_18
REMARK   13  A    between atoms: CB_13  and  CG_14
REMARK   14  A    between atoms: CG_14  and  CD1_22
REMARK   15  A    between atoms: CG_14  and  CD2_23
REMARK   16  A    between atoms: CA_15  and  CB_17
REMARK   17  A    between atoms: CA_15  and  C_26
REMARK   18  A    between atoms: CB_17  and  CG_19
REMARK   19  A    between atoms: CG_19  and  CD1_24
REMARK   20  A    between atoms: CG_19  and  CD2_25
REMARK   21  A    between atoms: C_28  and  C_29
REMARK                            x       y       z     vdW  Elec       q    Type
REMARK                         _______ _______ _______ _____ _____    ______ ____
ROOT
ATOM      1  O   UNL     1      -8.044  -1.550 -21.279  0.00  0.00    +0.000 OA
ATOM      2  N   UNL     1      -8.180  -3.757 -21.841  0.00  0.00    +0.000 N 
ATOM      3  C   UNL     1      -8.012  -2.727 -20.931  0.00  0.00    +0.000 C 
ATOM      4  H   UNL     1      -8.623  -4.584 -21.448  0.00  0.00    +0.000 HD
ENDROOT
BRANCH   2   5
ATOM      5  CA  UNL     1      -8.537  -3.446 -23.226  0.00  0.00    +0.000 C 
BRANCH   5   8
ATOM      6  O   UNL     1     -10.026  -5.349 -23.216  0.00  0.00    +0.000 OA
ATOM      7  N   UNL     1     -10.964  -3.469 -23.949  0.00  0.00    +0.000 N 
ATOM      8  C   UNL     1      -9.890  -4.145 -23.456  0.00  0.00    +0.000 C 
ATOM      9  H   UNL     1     -11.778  -4.073 -24.008  0.00  0.00    +0.000 HD
BRANCH   7  10
ATOM     10  CA  UNL     1     -11.213  -2.028 -23.986  0.00  0.00    +0.000 C 
BRANCH  10  12
ATOM     11  O   UNL     1     -12.066  -0.455 -22.332  0.00  0.00    +0.000 OA
ATOM     12  C   UNL     1     -11.472  -1.503 -22.574  0.00  0.00    +0.000 C 
ENDBRANCH  10  12
BRANCH  10  13
ATOM     13  CB  UNL     1     -12.310  -1.653 -24.994  0.00  0.00    +0.000 C 
BRANCH  13  14
ATOM     14  CG  UNL     1     -13.653  -2.411 -24.899  0.00  0.00    +0.000 C 
ATOM     15  CD1 UNL     1     -14.839  -1.514 -24.553  0.00  0.00    +0.000 C 
ATOM     16  CD2 UNL     1     -13.926  -3.128 -26.226  0.00  0.00    +0.000 C 
ENDBRANCH  13  14
ENDBRANCH  10  13
ENDBRANCH   7  10
ENDBRANCH   5   8
BRANCH   5  17
ATOM     17  CB  UNL     1      -7.476  -4.013 -24.180  0.00  0.00    +0.000 C 
BRANCH  17  18
ATOM     18  CG  UNL     1      -6.548  -5.072 -23.552  0.00  0.00    +0.000 C 
ATOM     19  CD1 UNL     1      -6.644  -6.423 -24.261  0.00  0.00    +0.000 C 
ATOM     20  CD2 UNL     1      -5.098  -4.579 -23.596  0.00  0.00    +0.000 C 
ENDBRANCH  17  18
ENDBRANCH   5  17
ENDBRANCH   2   5
BRANCH   3  21
ATOM     21  CA  UNL     1      -7.869  -3.182 -19.458  0.00  0.00    +0.000 C 
BRANCH  21  23
ATOM     22  O   UNL     1      -5.123  -3.670 -19.023  0.00  0.00    +0.000 OA
ATOM     23  N   UNL     1      -6.937  -2.293 -18.752  0.00  0.00    +0.000 N 
ATOM     24  C   ACE A   0      -5.628  -2.655 -18.571  0.00  0.00    +0.000 C 
ATOM     25  H   UNL     1      -7.324  -1.658 -18.068  0.00  0.00    +0.000 HD
BRANCH  24  26
ATOM     26  O   UNL     1      -4.964  -1.822 -17.734  0.00  0.00    +0.000 OA
BRANCH  26  27
ATOM     27  C   UNL     1      -3.542  -1.993 -17.691  0.00  0.00    +0.000 C 
BRANCH  27  28
ATOM     28  C   UNL     1      -2.868  -0.793 -18.309  0.00  0.00    +0.000 A 
ATOM     29  C   UNL     1      -3.623   0.317 -18.713  0.00  0.00    +0.000 A 
ATOM     30  C   UNL     1      -1.485  -0.790 -18.544  0.00  0.00    +0.000 A 
ATOM     31  C   UNL     1      -3.005   1.415 -19.314  0.00  0.00    +0.000 A 
ATOM     32  C   UNL     1      -0.868   0.308 -19.145  0.00  0.00    +0.000 A 
ATOM     33  C   UNL     1      -1.628   1.411 -19.529  0.00  0.00    +0.000 A 
ENDBRANCH  27  28
ENDBRANCH  26  27
ENDBRANCH  24  26
ENDBRANCH  21  23
BRANCH  21  34
ATOM     34  CB  UNL     1      -9.228  -3.192 -18.736  0.00  0.00    +0.000 C 
BRANCH  34  35
ATOM     35  CG  UNL     1      -9.590  -1.909 -17.960  0.00  0.00    +0.000 C 
ATOM     36  CD1 UNL     1     -10.397  -0.922 -18.804  0.00  0.00    +0.000 C 
ATOM     37  CD2 UNL     1     -10.387  -2.279 -16.704  0.00  0.00    +0.000 C 
ENDBRANCH  34  35
ENDBRANCH  21  34
ENDBRANCH   3  21
TORSDOF 15
ENDMDL
