MODEL 1
REMARK VINA RESULT:      -5.5      0.000      0.000
REMARK  Name = Monobenzone.pdbqt.pdb
REMARK  4 active torsions:
REMARK  status: ('A' for Active; 'I' for Inactive)
REMARK    1  A    between atoms: C_1  and  O_7
REMARK    2  A    between atoms: C_6  and  O_15
REMARK    3  A    between atoms: O_7  and  C_8
REMARK    4  A    between atoms: C_8  and  C_9
REMARK                            x       y       z     vdW  Elec       q    Type
REMARK                         _______ _______ _______ _____ _____    ______ ____
ROOT
ATOM      1  C   UNL     1       6.592   4.750   0.116  0.00  0.00    +0.000 A 
ATOM      2  C   UNL     1       6.110   4.423  -1.153  0.00  0.00    +0.000 A 
ATOM      3  C   UNL     1       7.733   5.545   0.239  0.00  0.00    +0.000 A 
ATOM      4  C   UNL     1       6.762   4.888  -2.293  0.00  0.00    +0.000 A 
ATOM      5  C   UNL     1       8.389   6.011  -0.897  0.00  0.00    +0.000 A 
ATOM      6  C   UNL     1       7.898   5.679  -2.155  0.00  0.00    +0.000 A 
ENDROOT
BRANCH   6   7
ATOM      7  O   UNL     1       8.557   6.148  -3.253  0.00  0.00    +0.000 OA
ATOM      8  H   UNL     1       8.449   5.502  -3.973  0.00  0.00    +0.000 HD
ENDBRANCH   6   7
BRANCH   1   9
ATOM      9  O   UNL     1       6.018   4.341   1.294  0.00  0.00    +0.000 OA
BRANCH   9  10
ATOM     10  C   UNL     1       4.910   3.618   1.155  0.00  0.00    +0.000 C 
BRANCH  10  11
ATOM     11  C   UNL     1       3.727   2.832   1.016  0.00  0.00    +0.000 A 
ATOM     12  C   UNL     1       3.794   1.448   1.157  0.00  0.00    +0.000 A 
ATOM     13  C   UNL     1       2.640   0.681   1.016  0.00  0.00    +0.000 A 
ATOM     14  C   UNL     1       1.423   1.298   0.735  0.00  0.00    +0.000 A 
ATOM     15  C   UNL     1       1.359   2.683   0.595  0.00  0.00    +0.000 A 
ATOM     16  C   UNL     1       2.512   3.451   0.735  0.00  0.00    +0.000 A 
ENDBRANCH  10  11
ENDBRANCH   9  10
ENDBRANCH   1   9
TORSDOF 4
ENDMDL
MODEL 2
REMARK VINA RESULT:      -5.2      5.543      8.217
REMARK  Name = Monobenzone.pdbqt.pdb
REMARK  4 active torsions:
REMARK  status: ('A' for Active; 'I' for Inactive)
REMARK    1  A    between atoms: C_1  and  O_7
REMARK    2  A    between atoms: C_6  and  O_15
REMARK    3  A    between atoms: O_7  and  C_8
REMARK    4  A    between atoms: C_8  and  C_9
REMARK                            x       y       z     vdW  Elec       q    Type
REMARK                         _______ _______ _______ _____ _____    ______ ____
ROOT
ATOM      1  C   UNL     1      -0.390   1.609   0.615  0.00  0.00    +0.000 A 
ATOM      2  C   UNL     1       0.300   2.653  -0.006  0.00  0.00    +0.000 A 
ATOM      3  C   UNL     1      -0.486   1.576   2.007  0.00  0.00    +0.000 A 
ATOM      4  C   UNL     1       0.889   3.657   0.758  0.00  0.00    +0.000 A 
ATOM      5  C   UNL     1       0.101   2.578   2.776  0.00  0.00    +0.000 A 
ATOM      6  C   UNL     1       0.784   3.611   2.144  0.00  0.00    +0.000 A 
ENDROOT
BRANCH   6   7
ATOM      7  O   UNL     1       1.351   4.582   2.917  0.00  0.00    +0.000 OA
ATOM      8  H   UNL     1       2.303   4.614   2.718  0.00  0.00    +0.000 HD
ENDBRANCH   6   7
BRANCH   1   9
ATOM      9  O   UNL     1      -1.001   0.577  -0.052  0.00  0.00    +0.000 OA
BRANCH   9  10
ATOM     10  C   UNL     1      -2.308   0.464   0.172  0.00  0.00    +0.000 C 
BRANCH  10  11
ATOM     11  C   UNL     1      -3.712   0.351   0.398  0.00  0.00    +0.000 A 
ATOM     12  C   UNL     1      -4.510   1.493   0.385  0.00  0.00    +0.000 A 
ATOM     13  C   UNL     1      -5.880   1.383   0.611  0.00  0.00    +0.000 A 
ATOM     14  C   UNL     1      -6.449   0.134   0.850  0.00  0.00    +0.000 A 
ATOM     15  C   UNL     1      -5.649  -1.006   0.862  0.00  0.00    +0.000 A 
ATOM     16  C   UNL     1      -4.279  -0.899   0.636  0.00  0.00    +0.000 A 
ENDBRANCH  10  11
ENDBRANCH   9  10
ENDBRANCH   1   9
TORSDOF 4
ENDMDL
MODEL 3
REMARK VINA RESULT:      -5.1     21.421     22.630
REMARK  Name = Monobenzone.pdbqt.pdb
REMARK  4 active torsions:
REMARK  status: ('A' for Active; 'I' for Inactive)
REMARK    1  A    between atoms: C_1  and  O_7
REMARK    2  A    between atoms: C_6  and  O_15
REMARK    3  A    between atoms: O_7  and  C_8
REMARK    4  A    between atoms: C_8  and  C_9
REMARK                            x       y       z     vdW  Elec       q    Type
REMARK                         _______ _______ _______ _____ _____    ______ ____
ROOT
ATOM      1  C   UNL     1      -5.022  -1.548 -18.536  0.00  0.00    +0.000 A 
ATOM      2  C   UNL     1      -5.067  -0.442 -19.389  0.00  0.00    +0.000 A 
ATOM      3  C   UNL     1      -4.026  -1.630 -17.562  0.00  0.00    +0.000 A 
ATOM      4  C   UNL     1      -4.124   0.575 -19.269  0.00  0.00    +0.000 A 
ATOM      5  C   UNL     1      -3.080  -0.616 -17.438  0.00  0.00    +0.000 A 
ATOM      6  C   UNL     1      -3.137   0.479 -18.293  0.00  0.00    +0.000 A 
ENDROOT
BRANCH   6   7
ATOM      7  O   UNL     1      -2.200   1.461 -18.153  0.00  0.00    +0.000 OA
ATOM      8  H   UNL     1      -2.647   2.269 -17.849  0.00  0.00    +0.000 HD
ENDBRANCH   6   7
BRANCH   1   9
ATOM      9  O   UNL     1      -5.907  -2.597 -18.577  0.00  0.00    +0.000 OA
BRANCH   9  10
ATOM     10  C   UNL     1      -7.186  -2.246 -18.677  0.00  0.00    +0.000 C 
BRANCH  10  11
ATOM     11  C   UNL     1      -8.554  -1.860 -18.796  0.00  0.00    +0.000 A 
ATOM     12  C   UNL     1      -9.442  -2.126 -17.756  0.00  0.00    +0.000 A 
ATOM     13  C   UNL     1     -10.780  -1.754 -17.875  0.00  0.00    +0.000 A 
ATOM     14  C   UNL     1     -11.225  -1.117 -19.031  0.00  0.00    +0.000 A 
ATOM     15  C   UNL     1     -10.335  -0.851 -20.069  0.00  0.00    +0.000 A 
ATOM     16  C   UNL     1      -8.998  -1.223 -19.952  0.00  0.00    +0.000 A 
ENDBRANCH  10  11
ENDBRANCH   9  10
ENDBRANCH   1   9
TORSDOF 4
ENDMDL
MODEL 4
REMARK VINA RESULT:      -5.1      1.180      2.052
REMARK  Name = Monobenzone.pdbqt.pdb
REMARK  4 active torsions:
REMARK  status: ('A' for Active; 'I' for Inactive)
REMARK    1  A    between atoms: C_1  and  O_7
REMARK    2  A    between atoms: C_6  and  O_15
REMARK    3  A    between atoms: O_7  and  C_8
REMARK    4  A    between atoms: C_8  and  C_9
REMARK                            x       y       z     vdW  Elec       q    Type
REMARK                         _______ _______ _______ _____ _____    ______ ____
ROOT
ATOM      1  C   UNL     1       5.839   3.763   0.924  0.00  0.00    +0.000 A 
ATOM      2  C   UNL     1       6.943   4.449   1.437  0.00  0.00    +0.000 A 
ATOM      3  C   UNL     1       5.436   3.988  -0.393  0.00  0.00    +0.000 A 
ATOM      4  C   UNL     1       7.640   5.352   0.639  0.00  0.00    +0.000 A 
ATOM      5  C   UNL     1       6.129   4.891  -1.195  0.00  0.00    +0.000 A 
ATOM      6  C   UNL     1       7.227   5.566  -0.672  0.00  0.00    +0.000 A 
ENDROOT
BRANCH   6   7
ATOM      7  O   UNL     1       7.891   6.445  -1.476  0.00  0.00    +0.000 OA
ATOM      8  H   UNL     1       8.834   6.428  -1.235  0.00  0.00    +0.000 HD
ENDBRANCH   6   7
BRANCH   1   9
ATOM      9  O   UNL     1       5.091   2.855   1.632  0.00  0.00    +0.000 OA
BRANCH   9  10
ATOM     10  C   UNL     1       3.824   2.747   1.239  0.00  0.00    +0.000 C 
BRANCH  10  11
ATOM     11  C   UNL     1       2.471   2.623   0.805  0.00  0.00    +0.000 A 
ATOM     12  C   UNL     1       1.851   1.376   0.819  0.00  0.00    +0.000 A 
ATOM     13  C   UNL     1       0.531   1.253   0.390  0.00  0.00    +0.000 A 
ATOM     14  C   UNL     1      -0.165   2.376  -0.052  0.00  0.00    +0.000 A 
ATOM     15  C   UNL     1       0.458   3.623  -0.065  0.00  0.00    +0.000 A 
ATOM     16  C   UNL     1       1.777   3.747   0.364  0.00  0.00    +0.000 A 
ENDBRANCH  10  11
ENDBRANCH   9  10
ENDBRANCH   1   9
TORSDOF 4
ENDMDL
MODEL 5
REMARK VINA RESULT:      -4.9     17.440     18.659
REMARK  Name = Monobenzone.pdbqt.pdb
REMARK  4 active torsions:
REMARK  status: ('A' for Active; 'I' for Inactive)
REMARK    1  A    between atoms: C_1  and  O_7
REMARK    2  A    between atoms: C_6  and  O_15
REMARK    3  A    between atoms: O_7  and  C_8
REMARK    4  A    between atoms: C_8  and  C_9
REMARK                            x       y       z     vdW  Elec       q    Type
REMARK                         _______ _______ _______ _____ _____    ______ ____
ROOT
ATOM      1  C   UNL     1       9.395   0.413 -18.460  0.00  0.00    +0.000 A 
ATOM      2  C   UNL     1      10.173  -0.742 -18.574  0.00  0.00    +0.000 A 
ATOM      3  C   UNL     1       9.483   1.195 -17.307  0.00  0.00    +0.000 A 
ATOM      4  C   UNL     1      11.034  -1.112 -17.544  0.00  0.00    +0.000 A 
ATOM      5  C   UNL     1      10.342   0.828 -16.274  0.00  0.00    +0.000 A 
ATOM      6  C   UNL     1      11.111  -0.324 -16.401  0.00  0.00    +0.000 A 
ENDROOT
BRANCH   6   7
ATOM      7  O   UNL     1      11.946  -0.663 -15.377  0.00  0.00    +0.000 OA
ATOM      8  H   UNL     1      12.849  -0.390 -15.616  0.00  0.00    +0.000 HD
ENDBRANCH   6   7
BRANCH   1   9
ATOM      9  O   UNL     1       8.520   0.859 -19.419  0.00  0.00    +0.000 OA
BRANCH   9  10
ATOM     10  C   UNL     1       7.233   0.722 -19.109  0.00  0.00    +0.000 C 
BRANCH  10  11
ATOM     11  C   UNL     1       5.857   0.581 -18.762  0.00  0.00    +0.000 A 
ATOM     12  C   UNL     1       5.179   1.643 -18.169  0.00  0.00    +0.000 A 
ATOM     13  C   UNL     1       3.836   1.503 -17.825  0.00  0.00    +0.000 A 
ATOM     14  C   UNL     1       3.175   0.303 -18.075  0.00  0.00    +0.000 A 
ATOM     15  C   UNL     1       3.855  -0.758 -18.669  0.00  0.00    +0.000 A 
ATOM     16  C   UNL     1       5.197  -0.620 -19.013  0.00  0.00    +0.000 A 
ENDBRANCH  10  11
ENDBRANCH   9  10
ENDBRANCH   1   9
TORSDOF 4
ENDMDL
MODEL 6
REMARK VINA RESULT:      -4.9      2.093      6.283
REMARK  Name = Monobenzone.pdbqt.pdb
REMARK  4 active torsions:
REMARK  status: ('A' for Active; 'I' for Inactive)
REMARK    1  A    between atoms: C_1  and  O_7
REMARK    2  A    between atoms: C_6  and  O_15
REMARK    3  A    between atoms: O_7  and  C_8
REMARK    4  A    between atoms: C_8  and  C_9
REMARK                            x       y       z     vdW  Elec       q    Type
REMARK                         _______ _______ _______ _____ _____    ______ ____
ROOT
ATOM      1  C   UNL     1       3.572   2.253   1.100  0.00  0.00    +0.000 A 
ATOM      2  C   UNL     1       2.840   3.420   0.864  0.00  0.00    +0.000 A 
ATOM      3  C   UNL     1       2.941   1.011   1.009  0.00  0.00    +0.000 A 
ATOM      4  C   UNL     1       1.489   3.347   0.539  0.00  0.00    +0.000 A 
ATOM      5  C   UNL     1       1.589   0.933   0.685  0.00  0.00    +0.000 A 
ATOM      6  C   UNL     1       0.873   2.102   0.452  0.00  0.00    +0.000 A 
ENDROOT
BRANCH   6   7
ATOM      7  O   UNL     1      -0.450   2.001   0.135  0.00  0.00    +0.000 OA
ATOM      8  H   UNL     1      -0.900   2.808   0.441  0.00  0.00    +0.000 HD
ENDBRANCH   6   7
BRANCH   1   9
ATOM      9  O   UNL     1       4.905   2.224   1.425  0.00  0.00    +0.000 OA
BRANCH   9  10
ATOM     10  C   UNL     1       5.691   2.938   0.624  0.00  0.00    +0.000 C 
BRANCH  10  11
ATOM     11  C   UNL     1       6.522   3.714  -0.237  0.00  0.00    +0.000 A 
ATOM     12  C   UNL     1       7.866   3.901   0.080  0.00  0.00    +0.000 A 
ATOM     13  C   UNL     1       8.676   4.664  -0.759  0.00  0.00    +0.000 A 
ATOM     14  C   UNL     1       8.142   5.237  -1.910  0.00  0.00    +0.000 A 
ATOM     15  C   UNL     1       6.798   5.048  -2.225  0.00  0.00    +0.000 A 
ATOM     16  C   UNL     1       5.987   4.286  -1.389  0.00  0.00    +0.000 A 
ENDBRANCH  10  11
ENDBRANCH   9  10
ENDBRANCH   1   9
TORSDOF 4
ENDMDL
MODEL 7
REMARK VINA RESULT:      -4.8     23.011     25.795
REMARK  Name = Monobenzone.pdbqt.pdb
REMARK  4 active torsions:
REMARK  status: ('A' for Active; 'I' for Inactive)
REMARK    1  A    between atoms: C_1  and  O_7
REMARK    2  A    between atoms: C_6  and  O_15
REMARK    3  A    between atoms: O_7  and  C_8
REMARK    4  A    between atoms: C_8  and  C_9
REMARK                            x       y       z     vdW  Elec       q    Type
REMARK                         _______ _______ _______ _____ _____    ______ ____
ROOT
ATOM      1  C   UNL     1     -10.902 -10.103 -11.814  0.00  0.00    +0.000 A 
ATOM      2  C   UNL     1     -11.348 -10.406 -10.525  0.00  0.00    +0.000 A 
ATOM      3  C   UNL     1     -10.207  -8.914 -12.043  0.00  0.00    +0.000 A 
ATOM      4  C   UNL     1     -11.102  -9.529  -9.473  0.00  0.00    +0.000 A 
ATOM      5  C   UNL     1      -9.959  -8.033 -10.995  0.00  0.00    +0.000 A 
ATOM      6  C   UNL     1     -10.408  -8.348  -9.717  0.00  0.00    +0.000 A 
ENDROOT
BRANCH   6   7
ATOM      7  O   UNL     1     -10.153  -7.469  -8.704  0.00  0.00    +0.000 OA
ATOM      8  H   UNL     1     -10.642  -6.647  -8.883  0.00  0.00    +0.000 HD
ENDBRANCH   6   7
BRANCH   1   9
ATOM      9  O   UNL     1     -11.096 -10.904 -12.912  0.00  0.00    +0.000 OA
BRANCH   9  10
ATOM     10  C   UNL     1     -12.239 -10.697 -13.560  0.00  0.00    +0.000 C 
BRANCH  10  11
ATOM     11  C   UNL     1     -13.473 -10.473 -14.240  0.00  0.00    +0.000 A 
ATOM     12  C   UNL     1     -14.673 -10.534 -13.537  0.00  0.00    +0.000 A 
ATOM     13  C   UNL     1     -15.879 -10.320 -14.203  0.00  0.00    +0.000 A 
ATOM     14  C   UNL     1     -15.880 -10.046 -15.569  0.00  0.00    +0.000 A 
ATOM     15  C   UNL     1     -14.677  -9.984 -16.270  0.00  0.00    +0.000 A 
ATOM     16  C   UNL     1     -13.472 -10.198 -15.606  0.00  0.00    +0.000 A 
ENDBRANCH  10  11
ENDBRANCH   9  10
ENDBRANCH   1   9
TORSDOF 4
ENDMDL
MODEL 8
REMARK VINA RESULT:      -4.8     18.810     20.546
REMARK  Name = Monobenzone.pdbqt.pdb
REMARK  4 active torsions:
REMARK  status: ('A' for Active; 'I' for Inactive)
REMARK    1  A    between atoms: C_1  and  O_7
REMARK    2  A    between atoms: C_6  and  O_15
REMARK    3  A    between atoms: O_7  and  C_8
REMARK    4  A    between atoms: C_8  and  C_9
REMARK                            x       y       z     vdW  Elec       q    Type
REMARK                         _______ _______ _______ _____ _____    ______ ____
ROOT
ATOM      1  C   UNL     1      -1.979  -0.382 -18.804  0.00  0.00    +0.000 A 
ATOM      2  C   UNL     1      -2.786   0.479 -18.056  0.00  0.00    +0.000 A 
ATOM      3  C   UNL     1      -2.229  -1.755 -18.785  0.00  0.00    +0.000 A 
ATOM      4  C   UNL     1      -3.836  -0.027 -17.296  0.00  0.00    +0.000 A 
ATOM      5  C   UNL     1      -3.277  -2.267 -18.025  0.00  0.00    +0.000 A 
ATOM      6  C   UNL     1      -4.074  -1.398 -17.286  0.00  0.00    +0.000 A 
ENDROOT
BRANCH   6   7
ATOM      7  O   UNL     1      -5.096  -1.922 -16.550  0.00  0.00    +0.000 OA
ATOM      8  H   UNL     1      -5.514  -1.200 -16.050  0.00  0.00    +0.000 HD
ENDBRANCH   6   7
BRANCH   1   9
ATOM      9  O   UNL     1      -0.923   0.023 -19.583  0.00  0.00    +0.000 OA
BRANCH   9  10
ATOM     10  C   UNL     1       0.266  -0.425 -19.189  0.00  0.00    +0.000 C 
BRANCH  10  11
ATOM     11  C   UNL     1       1.536  -0.921 -18.768  0.00  0.00    +0.000 A 
ATOM     12  C   UNL     1       1.921  -2.215 -19.109  0.00  0.00    +0.000 A 
ATOM     13  C   UNL     1       3.159  -2.702 -18.693  0.00  0.00    +0.000 A 
ATOM     14  C   UNL     1       4.007  -1.894 -17.940  0.00  0.00    +0.000 A 
ATOM     15  C   UNL     1       3.619  -0.599 -17.601  0.00  0.00    +0.000 A 
ATOM     16  C   UNL     1       2.382  -0.112 -18.015  0.00  0.00    +0.000 A 
ENDBRANCH  10  11
ENDBRANCH   9  10
ENDBRANCH   1   9
TORSDOF 4
ENDMDL
MODEL 9
REMARK VINA RESULT:      -4.7     13.719     15.418
REMARK  Name = Monobenzone.pdbqt.pdb
REMARK  4 active torsions:
REMARK  status: ('A' for Active; 'I' for Inactive)
REMARK    1  A    between atoms: C_1  and  O_7
REMARK    2  A    between atoms: C_6  and  O_15
REMARK    3  A    between atoms: O_7  and  C_8
REMARK    4  A    between atoms: C_8  and  C_9
REMARK                            x       y       z     vdW  Elec       q    Type
REMARK                         _______ _______ _______ _____ _____    ______ ____
ROOT
ATOM      1  C   UNL     1      10.757  -6.830  -6.679  0.00  0.00    +0.000 A 
ATOM      2  C   UNL     1      10.277  -6.983  -5.376  0.00  0.00    +0.000 A 
ATOM      3  C   UNL     1      10.525  -5.637  -7.366  0.00  0.00    +0.000 A 
ATOM      4  C   UNL     1       9.571  -5.952  -4.763  0.00  0.00    +0.000 A 
ATOM      5  C   UNL     1       9.818  -4.603  -6.758  0.00  0.00    +0.000 A 
ATOM      6  C   UNL     1       9.347  -4.768  -5.460  0.00  0.00    +0.000 A 
ENDROOT
BRANCH   6   7
ATOM      7  O   UNL     1       8.658  -3.742  -4.884  0.00  0.00    +0.000 OA
ATOM      8  H   UNL     1       8.097  -3.330  -5.564  0.00  0.00    +0.000 HD
ENDBRANCH   6   7
BRANCH   1   9
ATOM      9  O   UNL     1      11.463  -7.787  -7.365  0.00  0.00    +0.000 OA
BRANCH   9  10
ATOM     10  C   UNL     1      12.449  -7.318  -8.125  0.00  0.00    +0.000 C 
BRANCH  10  11
ATOM     11  C   UNL     1      13.499  -6.800  -8.939  0.00  0.00    +0.000 A 
ATOM     12  C   UNL     1      13.230  -5.789  -9.858  0.00  0.00    +0.000 A 
ATOM     13  C   UNL     1      14.255  -5.287 -10.657  0.00  0.00    +0.000 A 
ATOM     14  C   UNL     1      15.546  -5.796 -10.535  0.00  0.00    +0.000 A 
ATOM     15  C   UNL     1      15.813  -6.807  -9.614  0.00  0.00    +0.000 A 
ATOM     16  C   UNL     1      14.789  -7.310  -8.815  0.00  0.00    +0.000 A 
ENDBRANCH  10  11
ENDBRANCH   9  10
ENDBRANCH   1   9
TORSDOF 4
ENDMDL
