MODEL 1
REMARK VINA RESULT:      -6.8      0.000      0.000
REMARK  Name = OTSSP167.pdbqt.pdb
REMARK  7 active torsions:
REMARK  status: ('A' for Active; 'I' for Inactive)
REMARK    1  A    between atoms: C_5  and  N_19
REMARK    2  A    between atoms: C_7  and  C_31
REMARK    3  A    between atoms: C_11  and  C_13
REMARK    4  A    between atoms: C_18  and  O_34
REMARK    5  A    between atoms: N_19  and  C_21
REMARK    6  A    between atoms: C_24  and  C_27
REMARK    7  A    between atoms: C_27  and  N_28
REMARK                            x       y       z     vdW  Elec       q    Type
REMARK                         _______ _______ _______ _____ _____    ______ ____
ROOT
ATOM      1  N   UNL     1       9.030   1.657 -20.310  0.00  0.00    +0.000 NA
ATOM      2  N   UNL     1       6.062   1.942 -22.421  0.00  0.00    +0.000 NA
ATOM      3  C   UNL     1       8.699   2.927 -22.361  0.00  0.00    +0.000 A 
ATOM      4  C   UNL     1       8.245   2.042 -21.347  0.00  0.00    +0.000 A 
ATOM      5  C   UNL     1       7.796   3.293 -23.380  0.00  0.00    +0.000 A 
ATOM      6  C   UNL     1       6.911   1.593 -21.441  0.00  0.00    +0.000 A 
ATOM      7  C   UNL     1       6.516   2.784 -23.367  0.00  0.00    +0.000 A 
ATOM      8  C   UNL     1       6.455   0.740 -20.452  0.00  0.00    +0.000 A 
ATOM      9  C   UNL     1       8.561   0.813 -19.359  0.00  0.00    +0.000 A 
ATOM     10  C   UNL     1       7.265   0.335 -19.402  0.00  0.00    +0.000 A 
ENDROOT
BRANCH   9  13
ATOM     11 CL   UNL     1      10.616   1.854 -14.735  0.00  0.00    +0.000 Cl
ATOM     12 CL   UNL     1      12.232  -2.424 -17.698  0.00  0.00    +0.000 Cl
ATOM     13  C   UNL     1       9.509   0.433 -18.308  0.00  0.00    +0.000 A 
ATOM     14  C   UNL     1      10.344  -0.683 -18.437  0.00  0.00    +0.000 A 
ATOM     15  C   UNL     1       9.620   1.190 -17.135  0.00  0.00    +0.000 A 
ATOM     16  C   UNL     1      10.529   0.854 -16.134  0.00  0.00    +0.000 A 
ATOM     17  C   UNL     1      11.253  -1.032 -17.438  0.00  0.00    +0.000 A 
ATOM     18  C   UNL     1      11.351  -0.262 -16.279  0.00  0.00    +0.000 A 
BRANCH  18  19
ATOM     19  O   UNL     1      12.248  -0.607 -15.303  0.00  0.00    +0.000 OA
ATOM     20  H   UNL     1      12.951  -1.148 -15.710  0.00  0.00    +0.000 HD
ENDBRANCH  18  19
ENDBRANCH   9  13
BRANCH   5  21
ATOM     21  C   UNL     1       8.136   4.230 -24.448  0.00  0.00    +0.000 C 
ATOM     22  O   UNL     1       8.950   4.019 -25.332  0.00  0.00    +0.000 OA
ATOM     23  C   UNL     1       7.556   5.607 -24.568  0.00  0.00    +0.000 C 
ENDBRANCH   5  21
BRANCH   3  24
ATOM     24  N   UNL     1      10.054   3.379 -22.451  0.00  0.00    +0.000 N 
ATOM     25  H   UNL     1      10.217   4.313 -22.065  0.00  0.00    +0.000 HD
BRANCH  24  26
ATOM     26  C   UNL     1      11.188   2.620 -22.534  0.00  0.00    +0.000 A 
ATOM     27  C   UNL     1      11.076   1.316 -23.137  0.00  0.00    +0.000 A 
ATOM     28  C   UNL     1      11.766   0.018 -22.644  0.00  0.00    +0.000 A 
ATOM     29  C   UNL     1      12.625  -0.072 -21.487  0.00  0.00    +0.000 A 
ATOM     30  C   UNL     1      12.719   1.226 -20.868  0.00  0.00    +0.000 A 
ATOM     31  C   UNL     1      12.026   2.519 -21.364  0.00  0.00    +0.000 A 
BRANCH  29  32
ATOM     32  C   UNL     1      13.367  -1.211 -21.106  0.00  0.00    +0.000 C 
BRANCH  32  33
ATOM     33  N   UNL     1      14.146  -2.372 -20.710  0.00  0.00    +0.000 NA
ATOM     34  C   UNL     1      15.332  -2.406 -21.549  0.00  0.00    +0.000 C 
ATOM     35  C   UNL     1      13.361  -3.551 -21.033  0.00  0.00    +0.000 C 
ENDBRANCH  32  33
ENDBRANCH  29  32
ENDBRANCH  24  26
ENDBRANCH   3  24
TORSDOF 7
ENDMDL
MODEL 2
REMARK VINA RESULT:      -6.4     19.987     22.285
REMARK  Name = OTSSP167.pdbqt.pdb
REMARK  7 active torsions:
REMARK  status: ('A' for Active; 'I' for Inactive)
REMARK    1  A    between atoms: C_5  and  N_19
REMARK    2  A    between atoms: C_7  and  C_31
REMARK    3  A    between atoms: C_11  and  C_13
REMARK    4  A    between atoms: C_18  and  O_34
REMARK    5  A    between atoms: N_19  and  C_21
REMARK    6  A    between atoms: C_24  and  C_27
REMARK    7  A    between atoms: C_27  and  N_28
REMARK                            x       y       z     vdW  Elec       q    Type
REMARK                         _______ _______ _______ _____ _____    ______ ____
ROOT
ATOM      1  N   UNL     1       7.096   4.316   0.517  0.00  0.00    +0.000 NA
ATOM      2  N   UNL     1       8.369   5.992  -2.470  0.00  0.00    +0.000 NA
ATOM      3  C   UNL     1       9.127   5.624   0.216  0.00  0.00    +0.000 A 
ATOM      4  C   UNL     1       7.928   5.040  -0.272  0.00  0.00    +0.000 A 
ATOM      5  C   UNL     1       9.910   6.386  -0.676  0.00  0.00    +0.000 A 
ATOM      6  C   UNL     1       7.611   5.271  -1.628  0.00  0.00    +0.000 A 
ATOM      7  C   UNL     1       9.498   6.536  -1.981  0.00  0.00    +0.000 A 
ATOM      8  C   UNL     1       6.440   4.716  -2.111  0.00  0.00    +0.000 A 
ATOM      9  C   UNL     1       5.958   3.776   0.015  0.00  0.00    +0.000 A 
ATOM     10  C   UNL     1       5.599   3.962  -1.306  0.00  0.00    +0.000 A 
ENDROOT
BRANCH   9  13
ATOM     11 CL   UNL     1       1.462   1.443   1.031  0.00  0.00    +0.000 Cl
ATOM     12 CL   UNL     1       5.584   1.409   4.595  0.00  0.00    +0.000 Cl
ATOM     13  C   UNL     1       5.156   2.980   0.947  0.00  0.00    +0.000 A 
ATOM     14  C   UNL     1       5.651   2.588   2.197  0.00  0.00    +0.000 A 
ATOM     15  C   UNL     1       3.849   2.595   0.622  0.00  0.00    +0.000 A 
ATOM     16  C   UNL     1       3.065   1.854   1.503  0.00  0.00    +0.000 A 
ATOM     17  C   UNL     1       4.877   1.840   3.085  0.00  0.00    +0.000 A 
ATOM     18  C   UNL     1       3.577   1.470   2.742  0.00  0.00    +0.000 A 
BRANCH  18  19
ATOM     19  O   UNL     1       2.820   0.740   3.620  0.00  0.00    +0.000 OA
ATOM     20  H   UNL     1       1.891   0.771   3.324  0.00  0.00    +0.000 HD
ENDBRANCH  18  19
ENDBRANCH   9  13
BRANCH   5  21
ATOM     21  C   UNL     1      11.137   7.071  -0.275  0.00  0.00    +0.000 C 
ATOM     22  O   UNL     1      11.401   7.426   0.862  0.00  0.00    +0.000 OA
ATOM     23  C   UNL     1      12.220   7.474  -1.229  0.00  0.00    +0.000 C 
ENDBRANCH   5  21
BRANCH   3  24
ATOM     24  N   UNL     1       9.627   5.390   1.537  0.00  0.00    +0.000 N 
ATOM     25  H   UNL     1       9.146   5.916   2.273  0.00  0.00    +0.000 HD
BRANCH  24  26
ATOM     26  C   UNL     1      10.287   4.285   2.001  0.00  0.00    +0.000 A 
ATOM     27  C   UNL     1      10.945   3.446   1.033  0.00  0.00    +0.000 A 
ATOM     28  C   UNL     1      10.968   1.896   1.032  0.00  0.00    +0.000 A 
ATOM     29  C   UNL     1      10.316   1.060   2.011  0.00  0.00    +0.000 A 
ATOM     30  C   UNL     1       9.634   1.897   2.967  0.00  0.00    +0.000 A 
ATOM     31  C   UNL     1       9.613   3.445   2.962  0.00  0.00    +0.000 A 
BRANCH  29  32
ATOM     32  C   UNL     1      10.441  -0.344   2.103  0.00  0.00    +0.000 C 
BRANCH  32  33
ATOM     33  N   UNL     1      10.577  -1.786   2.215  0.00  0.00    +0.000 NA
ATOM     34  C   UNL     1       9.829  -2.202   3.390  0.00  0.00    +0.000 C 
ATOM     35  C   UNL     1      11.978  -2.070   2.479  0.00  0.00    +0.000 C 
ENDBRANCH  32  33
ENDBRANCH  29  32
ENDBRANCH  24  26
ENDBRANCH   3  24
TORSDOF 7
ENDMDL
MODEL 3
REMARK VINA RESULT:      -6.1     25.524     27.905
REMARK  Name = OTSSP167.pdbqt.pdb
REMARK  7 active torsions:
REMARK  status: ('A' for Active; 'I' for Inactive)
REMARK    1  A    between atoms: C_5  and  N_19
REMARK    2  A    between atoms: C_7  and  C_31
REMARK    3  A    between atoms: C_11  and  C_13
REMARK    4  A    between atoms: C_18  and  O_34
REMARK    5  A    between atoms: N_19  and  C_21
REMARK    6  A    between atoms: C_24  and  C_27
REMARK    7  A    between atoms: C_27  and  N_28
REMARK                            x       y       z     vdW  Elec       q    Type
REMARK                         _______ _______ _______ _____ _____    ______ ____
ROOT
ATOM      1  N   UNL     1     -11.760 -11.814 -14.357  0.00  0.00    +0.000 NA
ATOM      2  N   UNL     1     -10.435 -14.013 -16.956  0.00  0.00    +0.000 NA
ATOM      3  C   UNL     1     -12.510 -12.135 -16.651  0.00  0.00    +0.000 A 
ATOM      4  C   UNL     1     -11.631 -12.409 -15.569  0.00  0.00    +0.000 A 
ATOM      5  C   UNL     1     -12.312 -12.828 -17.863  0.00  0.00    +0.000 A 
ATOM      6  C   UNL     1     -10.618 -13.364 -15.795  0.00  0.00    +0.000 A 
ATOM      7  C   UNL     1     -11.283 -13.737 -17.964  0.00  0.00    +0.000 A 
ATOM      8  C   UNL     1      -9.764 -13.647 -14.744  0.00  0.00    +0.000 A 
ATOM      9  C   UNL     1     -10.904 -12.103 -13.347  0.00  0.00    +0.000 A 
ATOM     10  C   UNL     1      -9.888 -13.025 -13.511  0.00  0.00    +0.000 A 
ENDROOT
BRANCH   9  13
ATOM     11 CL   UNL     1     -12.885 -12.073  -8.576  0.00  0.00    +0.000 Cl
ATOM     12 CL   UNL     1     -10.266  -7.756 -10.624  0.00  0.00    +0.000 Cl
ATOM     13  C   UNL     1     -11.112 -11.372 -12.094  0.00  0.00    +0.000 A 
ATOM     14  C   UNL     1     -10.657 -10.060 -11.922  0.00  0.00    +0.000 A 
ATOM     15  C   UNL     1     -11.794 -11.964 -11.023  0.00  0.00    +0.000 A 
ATOM     16  C   UNL     1     -12.018 -11.278  -9.832  0.00  0.00    +0.000 A 
ATOM     17  C   UNL     1     -10.870  -9.365 -10.731  0.00  0.00    +0.000 A 
ATOM     18  C   UNL     1     -11.554  -9.972  -9.678  0.00  0.00    +0.000 A 
BRANCH  18  19
ATOM     19  O   UNL     1     -11.764  -9.284  -8.512  0.00  0.00    +0.000 OA
ATOM     20  H   UNL     1     -11.072  -9.542  -7.875  0.00  0.00    +0.000 HD
ENDBRANCH  18  19
ENDBRANCH   9  13
BRANCH   5  21
ATOM     21  C   UNL     1     -13.180 -12.663 -19.027  0.00  0.00    +0.000 C 
ATOM     22  O   UNL     1     -14.345 -13.017 -19.088  0.00  0.00    +0.000 OA
ATOM     23  C   UNL     1     -12.729 -12.073 -20.329  0.00  0.00    +0.000 C 
ENDBRANCH   5  21
BRANCH   3  24
ATOM     24  N   UNL     1     -13.516 -11.117 -16.600  0.00  0.00    +0.000 N 
ATOM     25  H   UNL     1     -13.428 -10.397 -17.323  0.00  0.00    +0.000 HD
BRANCH  24  26
ATOM     26  C   UNL     1     -14.773 -11.206 -16.070  0.00  0.00    +0.000 A 
ATOM     27  C   UNL     1     -15.886 -10.929 -16.943  0.00  0.00    +0.000 A 
ATOM     28  C   UNL     1     -17.160 -10.127 -16.572  0.00  0.00    +0.000 A 
ATOM     29  C   UNL     1     -17.412  -9.526 -15.285  0.00  0.00    +0.000 A 
ATOM     30  C   UNL     1     -16.289  -9.779 -14.418  0.00  0.00    +0.000 A 
ATOM     31  C   UNL     1     -15.017 -10.580 -14.793  0.00  0.00    +0.000 A 
BRANCH  29  32
ATOM     32  C   UNL     1     -18.622  -8.913 -14.891  0.00  0.00    +0.000 C 
BRANCH  32  33
ATOM     33  N   UNL     1     -19.870  -8.278 -14.504  0.00  0.00    +0.000 NA
ATOM     34  C   UNL     1     -20.361  -7.544 -15.659  0.00  0.00    +0.000 C 
ATOM     35  C   UNL     1     -19.557  -7.297 -13.477  0.00  0.00    +0.000 C 
ENDBRANCH  32  33
ENDBRANCH  29  32
ENDBRANCH  24  26
ENDBRANCH   3  24
TORSDOF 7
ENDMDL
MODEL 4
REMARK VINA RESULT:      -6.1     16.361     20.117
REMARK  Name = OTSSP167.pdbqt.pdb
REMARK  7 active torsions:
REMARK  status: ('A' for Active; 'I' for Inactive)
REMARK    1  A    between atoms: C_5  and  N_19
REMARK    2  A    between atoms: C_7  and  C_31
REMARK    3  A    between atoms: C_11  and  C_13
REMARK    4  A    between atoms: C_18  and  O_34
REMARK    5  A    between atoms: N_19  and  C_21
REMARK    6  A    between atoms: C_24  and  C_27
REMARK    7  A    between atoms: C_27  and  N_28
REMARK                            x       y       z     vdW  Elec       q    Type
REMARK                         _______ _______ _______ _____ _____    ______ ____
ROOT
ATOM      1  N   UNL     1      -7.289  -2.330 -20.553  0.00  0.00    +0.000 NA
ATOM      2  N   UNL     1      -8.134  -4.728 -23.177  0.00  0.00    +0.000 NA
ATOM      3  C   UNL     1      -9.472  -3.099 -21.310  0.00  0.00    +0.000 A 
ATOM      4  C   UNL     1      -8.053  -3.087 -21.379  0.00  0.00    +0.000 A 
ATOM      5  C   UNL     1     -10.176  -3.945 -22.192  0.00  0.00    +0.000 A 
ATOM      6  C   UNL     1      -7.453  -3.932 -22.337  0.00  0.00    +0.000 A 
ATOM      7  C   UNL     1      -9.477  -4.722 -23.088  0.00  0.00    +0.000 A 
ATOM      8  C   UNL     1      -6.072  -3.937 -22.405  0.00  0.00    +0.000 A 
ATOM      9  C   UNL     1      -5.937  -2.347 -20.647  0.00  0.00    +0.000 A 
ATOM     10  C   UNL     1      -5.293  -3.149 -21.570  0.00  0.00    +0.000 A 
ENDROOT
BRANCH   9  13
ATOM     11 CL   UNL     1      -2.960   1.832 -20.042  0.00  0.00    +0.000 Cl
ATOM     12 CL   UNL     1      -4.506  -1.230 -15.808  0.00  0.00    +0.000 Cl
ATOM     13  C   UNL     1      -5.215  -1.460 -19.732  0.00  0.00    +0.000 A 
ATOM     14  C   UNL     1      -5.181  -1.694 -18.352  0.00  0.00    +0.000 A 
ATOM     15  C   UNL     1      -4.517  -0.345 -20.215  0.00  0.00    +0.000 A 
ATOM     16  C   UNL     1      -3.810   0.498 -19.361  0.00  0.00    +0.000 A 
ATOM     17  C   UNL     1      -4.481  -0.852 -17.487  0.00  0.00    +0.000 A 
ATOM     18  C   UNL     1      -3.790   0.251 -17.990  0.00  0.00    +0.000 A 
BRANCH  18  19
ATOM     19  O   UNL     1      -3.101   1.072 -17.136  0.00  0.00    +0.000 OA
ATOM     20  H   UNL     1      -3.224   0.741 -16.227  0.00  0.00    +0.000 HD
ENDBRANCH  18  19
ENDBRANCH   9  13
BRANCH   5  21
ATOM     21  C   UNL     1     -11.631  -4.075 -22.181  0.00  0.00    +0.000 C 
ATOM     22  O   UNL     1     -12.317  -4.181 -21.178  0.00  0.00    +0.000 OA
ATOM     23  C   UNL     1     -12.474  -4.143 -23.419  0.00  0.00    +0.000 C 
ENDBRANCH   5  21
BRANCH   3  24
ATOM     24  N   UNL     1     -10.218  -2.220 -20.462  0.00  0.00    +0.000 N 
ATOM     25  H   UNL     1     -10.420  -2.597 -19.532  0.00  0.00    +0.000 HD
BRANCH  24  26
ATOM     26  C   UNL     1     -10.290  -0.856 -20.523  0.00  0.00    +0.000 A 
ATOM     27  C   UNL     1     -10.695  -0.155 -19.331  0.00  0.00    +0.000 A 
ATOM     28  C   UNL     1     -11.651   1.064 -19.268  0.00  0.00    +0.000 A 
ATOM     29  C   UNL     1     -12.289   1.673 -20.410  0.00  0.00    +0.000 A 
ATOM     30  C   UNL     1     -11.905   0.958 -21.602  0.00  0.00    +0.000 A 
ATOM     31  C   UNL     1     -10.950  -0.260 -21.659  0.00  0.00    +0.000 A 
BRANCH  29  32
ATOM     32  C   UNL     1     -13.050   2.863 -20.385  0.00  0.00    +0.000 C 
BRANCH  32  33
ATOM     33  N   UNL     1     -13.839   4.082 -20.377  0.00  0.00    +0.000 NA
ATOM     34  C   UNL     1     -15.239   3.694 -20.438  0.00  0.00    +0.000 C 
ATOM     35  C   UNL     1     -13.541   4.800 -21.605  0.00  0.00    +0.000 C 
ENDBRANCH  32  33
ENDBRANCH  29  32
ENDBRANCH  24  26
ENDBRANCH   3  24
TORSDOF 7
ENDMDL
MODEL 5
REMARK VINA RESULT:      -5.8     25.171     28.652
REMARK  Name = OTSSP167.pdbqt.pdb
REMARK  7 active torsions:
REMARK  status: ('A' for Active; 'I' for Inactive)
REMARK    1  A    between atoms: C_5  and  N_19
REMARK    2  A    between atoms: C_7  and  C_31
REMARK    3  A    between atoms: C_11  and  C_13
REMARK    4  A    between atoms: C_18  and  O_34
REMARK    5  A    between atoms: N_19  and  C_21
REMARK    6  A    between atoms: C_24  and  C_27
REMARK    7  A    between atoms: C_27  and  N_28
REMARK                            x       y       z     vdW  Elec       q    Type
REMARK                         _______ _______ _______ _____ _____    ______ ____
ROOT
ATOM      1  N   UNL     1     -13.506   6.394 -10.079  0.00  0.00    +0.000 NA
ATOM      2  N   UNL     1     -10.227   5.982  -8.519  0.00  0.00    +0.000 NA
ATOM      3  C   UNL     1     -12.746   7.055  -7.862  0.00  0.00    +0.000 A 
ATOM      4  C   UNL     1     -12.536   6.455  -9.132  0.00  0.00    +0.000 A 
ATOM      5  C   UNL     1     -11.665   7.098  -6.957  0.00  0.00    +0.000 A 
ATOM      6  C   UNL     1     -11.247   5.942  -9.391  0.00  0.00    +0.000 A 
ATOM      7  C   UNL     1     -10.453   6.558  -7.324  0.00  0.00    +0.000 A 
ATOM      8  C   UNL     1     -11.029   5.365 -10.630  0.00  0.00    +0.000 A 
ATOM      9  C   UNL     1     -13.267   5.815 -11.281  0.00  0.00    +0.000 A 
ATOM     10  C   UNL     1     -12.028   5.289 -11.590  0.00  0.00    +0.000 A 
ENDROOT
BRANCH   9  13
ATOM     11 CL   UNL     1     -15.068   4.411 -15.916  0.00  0.00    +0.000 Cl
ATOM     12 CL   UNL     1     -18.199   6.997 -12.281  0.00  0.00    +0.000 Cl
ATOM     13  C   UNL     1     -14.398   5.769 -12.211  0.00  0.00    +0.000 A 
ATOM     14  C   UNL     1     -15.642   6.324 -11.887  0.00  0.00    +0.000 A 
ATOM     15  C   UNL     1     -14.266   5.176 -13.473  0.00  0.00    +0.000 A 
ATOM     16  C   UNL     1     -15.325   5.140 -14.377  0.00  0.00    +0.000 A 
ATOM     17  C   UNL     1     -16.712   6.288 -12.782  0.00  0.00    +0.000 A 
ATOM     18  C   UNL     1     -16.557   5.695 -14.035  0.00  0.00    +0.000 A 
BRANCH  18  19
ATOM     19  O   UNL     1     -17.610   5.666 -14.911  0.00  0.00    +0.000 OA
ATOM     20  H   UNL     1     -17.318   6.061 -15.754  0.00  0.00    +0.000 HD
ENDBRANCH  18  19
ENDBRANCH   9  13
BRANCH   5  21
ATOM     21  C   UNL     1     -11.750   7.730  -5.643  0.00  0.00    +0.000 C 
ATOM     22  O   UNL     1     -11.870   7.133  -4.586  0.00  0.00    +0.000 OA
ATOM     23  C   UNL     1     -11.749   9.213  -5.426  0.00  0.00    +0.000 C 
ENDBRANCH   5  21
BRANCH   3  24
ATOM     24  N   UNL     1     -14.026   7.523  -7.423  0.00  0.00    +0.000 N 
ATOM     25  H   UNL     1     -14.331   7.141  -6.523  0.00  0.00    +0.000 HD
BRANCH  24  26
ATOM     26  C   UNL     1     -14.654   8.690  -7.760  0.00  0.00    +0.000 A 
ATOM     27  C   UNL     1     -13.899   9.661  -8.511  0.00  0.00    +0.000 A 
ATOM     28  C   UNL     1     -13.913  11.196  -8.295  0.00  0.00    +0.000 A 
ATOM     29  C   UNL     1     -14.687  11.881  -7.288  0.00  0.00    +0.000 A 
ATOM     30  C   UNL     1     -15.423  10.910  -6.518  0.00  0.00    +0.000 A 
ATOM     31  C   UNL     1     -15.405   9.377  -6.737  0.00  0.00    +0.000 A 
BRANCH  29  32
ATOM     32  C   UNL     1     -14.815  13.282  -7.168  0.00  0.00    +0.000 C 
BRANCH  32  33
ATOM     33  N   UNL     1     -14.940  14.723  -7.027  0.00  0.00    +0.000 NA
ATOM     34  C   UNL     1     -13.604  15.286  -7.124  0.00  0.00    +0.000 C 
ATOM     35  C   UNL     1     -15.417  14.986  -5.679  0.00  0.00    +0.000 C 
ENDBRANCH  32  33
ENDBRANCH  29  32
ENDBRANCH  24  26
ENDBRANCH   3  24
TORSDOF 7
ENDMDL
MODEL 6
REMARK VINA RESULT:      -5.8      5.252      7.568
REMARK  Name = OTSSP167.pdbqt.pdb
REMARK  7 active torsions:
REMARK  status: ('A' for Active; 'I' for Inactive)
REMARK    1  A    between atoms: C_5  and  N_19
REMARK    2  A    between atoms: C_7  and  C_31
REMARK    3  A    between atoms: C_11  and  C_13
REMARK    4  A    between atoms: C_18  and  O_34
REMARK    5  A    between atoms: N_19  and  C_21
REMARK    6  A    between atoms: C_24  and  C_27
REMARK    7  A    between atoms: C_27  and  N_28
REMARK                            x       y       z     vdW  Elec       q    Type
REMARK                         _______ _______ _______ _____ _____    ______ ____
ROOT
ATOM      1  N   UNL     1       4.445  -1.449 -20.213  0.00  0.00    +0.000 NA
ATOM      2  N   UNL     1       1.848  -3.033 -18.189  0.00  0.00    +0.000 NA
ATOM      3  C   UNL     1       3.257  -3.543 -20.573  0.00  0.00    +0.000 A 
ATOM      4  C   UNL     1       3.532  -2.371 -19.820  0.00  0.00    +0.000 A 
ATOM      5  C   UNL     1       2.266  -4.427 -20.096  0.00  0.00    +0.000 A 
ATOM      6  C   UNL     1       2.784  -2.181 -18.638  0.00  0.00    +0.000 A 
ATOM      7  C   UNL     1       1.605  -4.134 -18.924  0.00  0.00    +0.000 A 
ATOM      8  C   UNL     1       3.036  -1.037 -17.902  0.00  0.00    +0.000 A 
ATOM      9  C   UNL     1       4.678  -0.341 -19.468  0.00  0.00    +0.000 A 
ATOM     10  C   UNL     1       3.982  -0.104 -18.299  0.00  0.00    +0.000 A 
ENDROOT
BRANCH   9  13
ATOM     11 CL   UNL     1       7.528   1.268 -23.466  0.00  0.00    +0.000 Cl
ATOM     12 CL   UNL     1       8.091   3.417 -18.490  0.00  0.00    +0.000 Cl
ATOM     13  C   UNL     1       5.714   0.567 -19.968  0.00  0.00    +0.000 A 
ATOM     14  C   UNL     1       6.363   1.479 -19.128  0.00  0.00    +0.000 A 
ATOM     15  C   UNL     1       6.102   0.541 -21.314  0.00  0.00    +0.000 A 
ATOM     16  C   UNL     1       7.098   1.383 -21.803  0.00  0.00    +0.000 A 
ATOM     17  C   UNL     1       7.358   2.332 -19.608  0.00  0.00    +0.000 A 
ATOM     18  C   UNL     1       7.731   2.287 -20.952  0.00  0.00    +0.000 A 
BRANCH  18  19
ATOM     19  O   UNL     1       8.711   3.124 -21.417  0.00  0.00    +0.000 OA
ATOM     20  H   UNL     1       9.577   2.726 -21.211  0.00  0.00    +0.000 HD
ENDBRANCH  18  19
ENDBRANCH   9  13
BRANCH   5  21
ATOM     21  C   UNL     1       1.867  -5.637 -20.810  0.00  0.00    +0.000 C 
ATOM     22  O   UNL     1       2.617  -6.549 -21.116  0.00  0.00    +0.000 OA
ATOM     23  C   UNL     1       0.476  -5.895 -21.305  0.00  0.00    +0.000 C 
ENDBRANCH   5  21
BRANCH   3  24
ATOM     24  N   UNL     1       4.007  -3.918 -21.734  0.00  0.00    +0.000 N 
ATOM     25  H   UNL     1       3.611  -3.591 -22.619  0.00  0.00    +0.000 HD
BRANCH  24  26
ATOM     26  C   UNL     1       5.339  -4.217 -21.811  0.00  0.00    +0.000 A 
ATOM     27  C   UNL     1       5.961  -4.797 -20.648  0.00  0.00    +0.000 A 
ATOM     28  C   UNL     1       7.368  -4.450 -20.095  0.00  0.00    +0.000 A 
ATOM     29  C   UNL     1       8.263  -3.475 -20.668  0.00  0.00    +0.000 A 
ATOM     30  C   UNL     1       7.633  -2.874 -21.817  0.00  0.00    +0.000 A 
ATOM     31  C   UNL     1       6.227  -3.223 -22.365  0.00  0.00    +0.000 A 
BRANCH  29  32
ATOM     32  C   UNL     1       9.596  -3.247 -20.259  0.00  0.00    +0.000 C 
BRANCH  32  33
ATOM     33  N   UNL     1      10.962  -3.021 -19.822  0.00  0.00    +0.000 NA
ATOM     34  C   UNL     1      11.303  -4.085 -18.892  0.00  0.00    +0.000 C 
ATOM     35  C   UNL     1      10.976  -1.777 -19.069  0.00  0.00    +0.000 C 
ENDBRANCH  32  33
ENDBRANCH  29  32
ENDBRANCH  24  26
ENDBRANCH   3  24
TORSDOF 7
ENDMDL
MODEL 7
REMARK VINA RESULT:      -5.8     12.228     14.067
REMARK  Name = OTSSP167.pdbqt.pdb
REMARK  7 active torsions:
REMARK  status: ('A' for Active; 'I' for Inactive)
REMARK    1  A    between atoms: C_5  and  N_19
REMARK    2  A    between atoms: C_7  and  C_31
REMARK    3  A    between atoms: C_11  and  C_13
REMARK    4  A    between atoms: C_18  and  O_34
REMARK    5  A    between atoms: N_19  and  C_21
REMARK    6  A    between atoms: C_24  and  C_27
REMARK    7  A    between atoms: C_27  and  N_28
REMARK                            x       y       z     vdW  Elec       q    Type
REMARK                         _______ _______ _______ _____ _____    ______ ____
ROOT
ATOM      1  N   UNL     1      10.853  11.512 -14.339  0.00  0.00    +0.000 NA
ATOM      2  N   UNL     1      11.519  10.525 -17.793  0.00  0.00    +0.000 NA
ATOM      3  C   UNL     1      10.787  12.844 -16.376  0.00  0.00    +0.000 A 
ATOM      4  C   UNL     1      11.006  11.625 -15.682  0.00  0.00    +0.000 A 
ATOM      5  C   UNL     1      10.942  12.852 -17.777  0.00  0.00    +0.000 A 
ATOM      6  C   UNL     1      11.368  10.504 -16.459  0.00  0.00    +0.000 A 
ATOM      7  C   UNL     1      11.303  11.692 -18.426  0.00  0.00    +0.000 A 
ATOM      8  C   UNL     1      11.573   9.308 -15.794  0.00  0.00    +0.000 A 
ATOM      9  C   UNL     1      11.069  10.330 -13.712  0.00  0.00    +0.000 A 
ATOM     10  C   UNL     1      11.431   9.199 -14.419  0.00  0.00    +0.000 A 
ENDROOT
BRANCH   9  13
ATOM     11 CL   UNL     1       9.189   7.992  -9.505  0.00  0.00    +0.000 Cl
ATOM     12 CL   UNL     1      11.921  12.697  -9.196  0.00  0.00    +0.000 Cl
ATOM     13  C   UNL     1      10.913  10.334 -12.255  0.00  0.00    +0.000 A 
ATOM     14  C   UNL     1      11.420  11.370 -11.462  0.00  0.00    +0.000 A 
ATOM     15  C   UNL     1      10.232   9.297 -11.603  0.00  0.00    +0.000 A 
ATOM     16  C   UNL     1      10.058   9.294 -10.221  0.00  0.00    +0.000 A 
ATOM     17  C   UNL     1      11.257  11.375 -10.076  0.00  0.00    +0.000 A 
ATOM     18  C   UNL     1      10.572  10.334  -9.448  0.00  0.00    +0.000 A 
BRANCH  18  19
ATOM     19  O   UNL     1      10.412  10.345  -8.088  0.00  0.00    +0.000 OA
ATOM     20  H   UNL     1      10.362   9.422  -7.777  0.00  0.00    +0.000 HD
ENDBRANCH  18  19
ENDBRANCH   9  13
BRANCH   5  21
ATOM     21  C   UNL     1      10.698  14.035 -18.600  0.00  0.00    +0.000 C 
ATOM     22  O   UNL     1      11.050  15.168 -18.319  0.00  0.00    +0.000 OA
ATOM     23  C   UNL     1       9.932  14.014 -19.888  0.00  0.00    +0.000 C 
ENDBRANCH   5  21
BRANCH   3  24
ATOM     24  N   UNL     1      10.518  14.083 -15.709  0.00  0.00    +0.000 N 
ATOM     25  H   UNL     1       9.525  14.271 -15.547  0.00  0.00    +0.000 HD
BRANCH  24  26
ATOM     26  C   UNL     1      11.347  14.787 -14.881  0.00  0.00    +0.000 A 
ATOM     27  C   UNL     1      12.753  14.475 -14.922  0.00  0.00    +0.000 A 
ATOM     28  C   UNL     1      13.703  14.373 -13.701  0.00  0.00    +0.000 A 
ATOM     29  C   UNL     1      13.306  14.569 -12.328  0.00  0.00    +0.000 A 
ATOM     30  C   UNL     1      11.894  14.856 -12.281  0.00  0.00    +0.000 A 
ATOM     31  C   UNL     1      10.950  14.955 -13.504  0.00  0.00    +0.000 A 
BRANCH  29  32
ATOM     32  C   UNL     1      14.183  14.615 -11.221  0.00  0.00    +0.000 C 
BRANCH  32  33
ATOM     33  N   UNL     1      15.070  14.670 -10.072  0.00  0.00    +0.000 NA
ATOM     34  C   UNL     1      14.397  15.441  -9.040  0.00  0.00    +0.000 C 
ATOM     35  C   UNL     1      16.246  15.426 -10.470  0.00  0.00    +0.000 C 
ENDBRANCH  32  33
ENDBRANCH  29  32
ENDBRANCH  24  26
ENDBRANCH   3  24
TORSDOF 7
ENDMDL
MODEL 8
REMARK VINA RESULT:      -5.8     14.164     18.558
REMARK  Name = OTSSP167.pdbqt.pdb
REMARK  7 active torsions:
REMARK  status: ('A' for Active; 'I' for Inactive)
REMARK    1  A    between atoms: C_5  and  N_19
REMARK    2  A    between atoms: C_7  and  C_31
REMARK    3  A    between atoms: C_11  and  C_13
REMARK    4  A    between atoms: C_18  and  O_34
REMARK    5  A    between atoms: N_19  and  C_21
REMARK    6  A    between atoms: C_24  and  C_27
REMARK    7  A    between atoms: C_27  and  N_28
REMARK                            x       y       z     vdW  Elec       q    Type
REMARK                         _______ _______ _______ _____ _____    ______ ____
ROOT
ATOM      1  N   UNL     1      12.573  -6.216  -6.703  0.00  0.00    +0.000 NA
ATOM      2  N   UNL     1       9.210  -5.552  -5.438  0.00  0.00    +0.000 NA
ATOM      3  C   UNL     1      11.596  -6.744  -4.537  0.00  0.00    +0.000 A 
ATOM      4  C   UNL     1      11.527  -6.183  -5.840  0.00  0.00    +0.000 A 
ATOM      5  C   UNL     1      10.444  -6.688  -3.725  0.00  0.00    +0.000 A 
ATOM      6  C   UNL     1      10.298  -5.606  -6.223  0.00  0.00    +0.000 A 
ATOM      7  C   UNL     1       9.301  -6.093  -4.210  0.00  0.00    +0.000 A 
ATOM      8  C   UNL     1      10.218  -5.067  -7.494  0.00  0.00    +0.000 A 
ATOM      9  C   UNL     1      12.469  -5.672  -7.940  0.00  0.00    +0.000 A 
ATOM     10  C   UNL     1      11.293  -5.087  -8.370  0.00  0.00    +0.000 A 
ENDROOT
BRANCH   9  13
ATOM     11 CL   UNL     1      17.516  -6.726  -8.272  0.00  0.00    +0.000 Cl
ATOM     12 CL   UNL     1      14.679  -4.895 -12.548  0.00  0.00    +0.000 Cl
ATOM     13  C   UNL     1      13.673  -5.729  -8.773  0.00  0.00    +0.000 A 
ATOM     14  C   UNL     1      13.657  -5.344 -10.119  0.00  0.00    +0.000 A 
ATOM     15  C   UNL     1      14.895  -6.161  -8.241  0.00  0.00    +0.000 A 
ATOM     16  C   UNL     1      16.053  -6.204  -9.013  0.00  0.00    +0.000 A 
ATOM     17  C   UNL     1      14.810  -5.389 -10.904  0.00  0.00    +0.000 A 
ATOM     18  C   UNL     1      16.017  -5.819 -10.353  0.00  0.00    +0.000 A 
BRANCH  18  19
ATOM     19  O   UNL     1      17.146  -5.857 -11.127  0.00  0.00    +0.000 OA
ATOM     20  H   UNL     1      17.829  -5.305 -10.701  0.00  0.00    +0.000 HD
ENDBRANCH  18  19
ENDBRANCH   9  13
BRANCH   5  21
ATOM     21  C   UNL     1      10.382  -7.272  -2.387  0.00  0.00    +0.000 C 
ATOM     22  O   UNL     1      10.240  -8.459  -2.147  0.00  0.00    +0.000 OA
ATOM     23  C   UNL     1      10.438  -6.471  -1.121  0.00  0.00    +0.000 C 
ENDBRANCH   5  21
BRANCH   3  24
ATOM     24  N   UNL     1      12.804  -7.269  -3.976  0.00  0.00    +0.000 N 
ATOM     25  H   UNL     1      13.163  -6.743  -3.174  0.00  0.00    +0.000 HD
BRANCH  24  26
ATOM     26  C   UNL     1      13.269  -8.553  -4.036  0.00  0.00    +0.000 A 
ATOM     27  C   UNL     1      12.610  -9.459  -4.942  0.00  0.00    +0.000 A 
ATOM     28  C   UNL     1      12.262 -10.944  -4.658  0.00  0.00    +0.000 A 
ATOM     29  C   UNL     1      12.544 -11.636  -3.424  0.00  0.00    +0.000 A 
ATOM     30  C   UNL     1      13.181 -10.725  -2.507  0.00  0.00    +0.000 A 
ATOM     31  C   UNL     1      13.525  -9.242  -2.795  0.00  0.00    +0.000 A 
BRANCH  29  32
ATOM     32  C   UNL     1      12.359 -13.018  -3.200  0.00  0.00    +0.000 C 
BRANCH  32  33
ATOM     33  N   UNL     1      12.184 -14.440  -2.960  0.00  0.00    +0.000 NA
ATOM     34  C   UNL     1      11.263 -14.582  -1.843  0.00  0.00    +0.000 C 
ATOM     35  C   UNL     1      13.466 -14.967  -2.524  0.00  0.00    +0.000 C 
ENDBRANCH  32  33
ENDBRANCH  29  32
ENDBRANCH  24  26
ENDBRANCH   3  24
TORSDOF 7
ENDMDL
MODEL 9
REMARK VINA RESULT:      -5.7     15.324     18.478
REMARK  Name = OTSSP167.pdbqt.pdb
REMARK  7 active torsions:
REMARK  status: ('A' for Active; 'I' for Inactive)
REMARK    1  A    between atoms: C_5  and  N_19
REMARK    2  A    between atoms: C_7  and  C_31
REMARK    3  A    between atoms: C_11  and  C_13
REMARK    4  A    between atoms: C_18  and  O_34
REMARK    5  A    between atoms: N_19  and  C_21
REMARK    6  A    between atoms: C_24  and  C_27
REMARK    7  A    between atoms: C_27  and  N_28
REMARK                            x       y       z     vdW  Elec       q    Type
REMARK                         _______ _______ _______ _____ _____    ______ ____
ROOT
ATOM      1  N   UNL     1      -8.630  -3.257 -21.584  0.00  0.00    +0.000 NA
ATOM      2  N   UNL     1      -8.671  -5.515 -24.457  0.00  0.00    +0.000 NA
ATOM      3  C   UNL     1      -6.778  -4.344 -22.733  0.00  0.00    +0.000 A 
ATOM      4  C   UNL     1      -8.163  -4.083 -22.554  0.00  0.00    +0.000 A 
ATOM      5  C   UNL     1      -6.390  -5.192 -23.790  0.00  0.00    +0.000 A 
ATOM      6  C   UNL     1      -9.052  -4.702 -23.458  0.00  0.00    +0.000 A 
ATOM      7  C   UNL     1      -7.354  -5.742 -24.606  0.00  0.00    +0.000 A 
ATOM      8  C   UNL     1     -10.402  -4.446 -23.299  0.00  0.00    +0.000 A 
ATOM      9  C   UNL     1      -9.959  -3.031 -21.445  0.00  0.00    +0.000 A 
ATOM     10  C   UNL     1     -10.878  -3.614 -22.296  0.00  0.00    +0.000 A 
ENDROOT
BRANCH   9  13
ATOM     11 CL   UNL     1     -10.429  -2.363 -16.343  0.00  0.00    +0.000 Cl
ATOM     12 CL   UNL     1     -11.912   1.496 -19.893  0.00  0.00    +0.000 Cl
ATOM     13  C   UNL     1     -10.352  -2.154 -20.339  0.00  0.00    +0.000 A 
ATOM     14  C   UNL     1     -10.886  -0.880 -20.563  0.00  0.00    +0.000 A 
ATOM     15  C   UNL     1     -10.219  -2.573 -19.009  0.00  0.00    +0.000 A 
ATOM     16  C   UNL     1     -10.605  -1.760 -17.946  0.00  0.00    +0.000 A 
ATOM     17  C   UNL     1     -11.270  -0.054 -19.506  0.00  0.00    +0.000 A 
ATOM     18  C   UNL     1     -11.132  -0.492 -18.189  0.00  0.00    +0.000 A 
BRANCH  18  19
ATOM     19  O   UNL     1     -11.514   0.321 -17.155  0.00  0.00    +0.000 OA
ATOM     20  H   UNL     1     -10.723   0.539 -16.627  0.00  0.00    +0.000 HD
ENDBRANCH  18  19
ENDBRANCH   9  13
BRANCH   5  21
ATOM     21  C   UNL     1      -4.995  -5.495 -24.099  0.00  0.00    +0.000 C 
ATOM     22  O   UNL     1      -4.078  -4.691 -24.057  0.00  0.00    +0.000 OA
ATOM     23  C   UNL     1      -4.512  -6.837 -24.561  0.00  0.00    +0.000 C 
ENDBRANCH   5  21
BRANCH   3  24
ATOM     24  N   UNL     1      -5.772  -3.869 -21.831  0.00  0.00    +0.000 N 
ATOM     25  H   UNL     1      -4.998  -4.522 -21.678  0.00  0.00    +0.000 HD
BRANCH  24  26
ATOM     26  C   UNL     1      -5.459  -2.573 -21.530  0.00  0.00    +0.000 A 
ATOM     27  C   UNL     1      -4.368  -1.966 -22.249  0.00  0.00    +0.000 A 
ATOM     28  C   UNL     1      -3.283  -1.035 -21.648  0.00  0.00    +0.000 A 
ATOM     29  C   UNL     1      -3.205  -0.646 -20.260  0.00  0.00    +0.000 A 
ATOM     30  C   UNL     1      -4.281  -1.273 -19.534  0.00  0.00    +0.000 A 
ATOM     31  C   UNL     1      -5.361  -2.203 -20.139  0.00  0.00    +0.000 A 
BRANCH  29  32
ATOM     32  C   UNL     1      -2.309   0.305 -19.726  0.00  0.00    +0.000 C 
BRANCH  32  33
ATOM     33  N   UNL     1      -1.378   1.286 -19.194  0.00  0.00    +0.000 NA
ATOM     34  C   UNL     1      -1.464   2.468 -20.035  0.00  0.00    +0.000 C 
ATOM     35  C   UNL     1      -0.039   0.744 -19.356  0.00  0.00    +0.000 C 
ENDBRANCH  32  33
ENDBRANCH  29  32
ENDBRANCH  24  26
ENDBRANCH   3  24
TORSDOF 7
ENDMDL
