MODEL 1
REMARK VINA RESULT:      -6.0      0.000      0.000
REMARK  Name = 
REMARK  0 active torsions:
REMARK  status: ('A' for Active; 'I' for Inactive)
REMARK                            x       y       z     vdW  Elec       q    Type
REMARK                         _______ _______ _______ _____ _____    ______ ____
ROOT
ATOM      1  O   UNL     1     -13.021   5.843  -8.580  0.00  0.00    +0.000 OA
ATOM      2  O   UNL     1     -14.755  10.648  -7.550  0.00  0.00    +0.000 OA
ATOM      3  N   UNL     1     -11.919   5.969  -9.379  0.00  0.00    +0.000 N 
ATOM      4  N   UNL     1     -12.934   9.236  -7.768  0.00  0.00    +0.000 N 
ATOM      5  C   UNL     1     -11.358   7.404  -9.406  0.00  0.00    +0.000 C 
ATOM      6  C   UNL     1     -10.859   7.883  -8.029  0.00  0.00    +0.000 C 
ATOM      7  C   UNL     1     -12.324   8.418 -10.031  0.00  0.00    +0.000 C 
ATOM      8  C   UNL     1     -12.028   8.285  -7.085  0.00  0.00    +0.000 C 
ATOM      9  C   UNL     1      -9.858   6.863  -7.457  0.00  0.00    +0.000 C 
ATOM     10  C   UNL     1     -13.449   8.800  -9.069  0.00  0.00    +0.000 C 
ATOM     11  C   UNL     1     -10.850   5.032  -8.857  0.00  0.00    +0.000 C 
ATOM     12  C   UNL     1     -12.845   7.941 -11.393  0.00  0.00    +0.000 C 
ATOM     13  C   UNL     1     -12.299   5.562 -10.788  0.00  0.00    +0.000 C 
ATOM     14  C   UNL     1     -10.392   5.437  -7.461  0.00  0.00    +0.000 C 
ATOM     15  C   UNL     1     -13.344   6.501 -11.376  0.00  0.00    +0.000 C 
ATOM     16  C   UNL     1     -11.490   8.849  -5.760  0.00  0.00    +0.000 C 
ATOM     17  C   UNL     1     -12.629   9.397  -4.922  0.00  0.00    +0.000 C 
ATOM     18  C   UNL     1     -13.760  10.110  -7.058  0.00  0.00    +0.000 C 
ATOM     19  C   UNL     1     -13.300  10.521  -5.678  0.00  0.00    +0.000 C 
ENDROOT
TORSDOF 0
ENDMDL
MODEL 2
REMARK VINA RESULT:      -5.9      1.545      5.380
REMARK  Name = 
REMARK  0 active torsions:
REMARK  status: ('A' for Active; 'I' for Inactive)
REMARK                            x       y       z     vdW  Elec       q    Type
REMARK                         _______ _______ _______ _____ _____    ______ ____
ROOT
ATOM      1  O   UNL     1     -14.120   7.182  -7.008  0.00  0.00    +0.000 OA
ATOM      2  O   UNL     1     -10.844   4.705 -10.213  0.00  0.00    +0.000 OA
ATOM      3  N   UNL     1     -13.609   8.430  -6.785  0.00  0.00    +0.000 N 
ATOM      4  N   UNL     1     -11.949   6.670  -9.691  0.00  0.00    +0.000 N 
ATOM      5  C   UNL     1     -12.500   8.811  -7.785  0.00  0.00    +0.000 C 
ATOM      6  C   UNL     1     -13.000   8.883  -9.242  0.00  0.00    +0.000 C 
ATOM      7  C   UNL     1     -11.252   7.928  -7.668  0.00  0.00    +0.000 C 
ATOM      8  C   UNL     1     -13.180   7.473  -9.873  0.00  0.00    +0.000 C 
ATOM      9  C   UNL     1     -14.223   9.814  -9.325  0.00  0.00    +0.000 C 
ATOM     10  C   UNL     1     -11.461   6.559  -8.313  0.00  0.00    +0.000 C 
ATOM     11  C   UNL     1     -14.740   9.430  -6.899  0.00  0.00    +0.000 C 
ATOM     12  C   UNL     1     -10.758   7.832  -6.219  0.00  0.00    +0.000 C 
ATOM     13  C   UNL     1     -13.041   8.473  -5.381  0.00  0.00    +0.000 C 
ATOM     14  C   UNL     1     -15.307   9.466  -8.314  0.00  0.00    +0.000 C 
ATOM     15  C   UNL     1     -11.869   7.513  -5.225  0.00  0.00    +0.000 C 
ATOM     16  C   UNL     1     -13.583   7.585 -11.352  0.00  0.00    +0.000 C 
ATOM     17  C   UNL     1     -13.585   6.215 -12.002  0.00  0.00    +0.000 C 
ATOM     18  C   UNL     1     -11.637   5.595 -10.526  0.00  0.00    +0.000 C 
ATOM     19  C   UNL     1     -12.190   5.636 -11.933  0.00  0.00    +0.000 C 
ENDROOT
TORSDOF 0
ENDMDL
MODEL 3
REMARK VINA RESULT:      -5.5     25.302     27.399
REMARK  Name = 
REMARK  0 active torsions:
REMARK  status: ('A' for Active; 'I' for Inactive)
REMARK                            x       y       z     vdW  Elec       q    Type
REMARK                         _______ _______ _______ _____ _____    ______ ____
ROOT
ATOM      1  O   UNL     1       9.333   0.768 -20.719  0.00  0.00    +0.000 OA
ATOM      2  O   UNL     1      10.837  -3.202 -17.699  0.00  0.00    +0.000 OA
ATOM      3  N   UNL     1       9.911   1.903 -20.221  0.00  0.00    +0.000 N 
ATOM      4  N   UNL     1      11.431  -1.255 -18.800  0.00  0.00    +0.000 N 
ATOM      5  C   UNL     1      11.046   1.608 -19.223  0.00  0.00    +0.000 C 
ATOM      6  C   UNL     1      12.230   0.853 -19.859  0.00  0.00    +0.000 C 
ATOM      7  C   UNL     1      10.562   0.909 -17.947  0.00  0.00    +0.000 C 
ATOM      8  C   UNL     1      11.924  -0.658 -20.062  0.00  0.00    +0.000 C 
ATOM      9  C   UNL     1      12.716   1.611 -21.108  0.00  0.00    +0.000 C 
ATOM     10  C   UNL     1      10.288  -0.577 -18.181  0.00  0.00    +0.000 C 
ATOM     11  C   UNL     1      10.470   2.695 -21.384  0.00  0.00    +0.000 C 
ATOM     12  C   UNL     1       9.370   1.640 -17.315  0.00  0.00    +0.000 C 
ATOM     13  C   UNL     1       8.841   2.719 -19.525  0.00  0.00    +0.000 C 
ATOM     14  C   UNL     1      11.592   1.937 -22.083  0.00  0.00    +0.000 C 
ATOM     15  C   UNL     1       8.274   1.981 -18.318  0.00  0.00    +0.000 C 
ATOM     16  C   UNL     1      13.158  -1.396 -20.606  0.00  0.00    +0.000 C 
ATOM     17  C   UNL     1      12.906  -2.891 -20.634  0.00  0.00    +0.000 C 
ATOM     18  C   UNL     1      11.528  -2.624 -18.541  0.00  0.00    +0.000 C 
ATOM     19  C   UNL     1      12.648  -3.374 -19.225  0.00  0.00    +0.000 C 
ENDROOT
TORSDOF 0
ENDMDL
MODEL 4
REMARK VINA RESULT:      -5.4     22.872     24.733
REMARK  Name = 
REMARK  0 active torsions:
REMARK  status: ('A' for Active; 'I' for Inactive)
REMARK                            x       y       z     vdW  Elec       q    Type
REMARK                         _______ _______ _______ _____ _____    ______ ____
ROOT
ATOM      1  O   UNL     1       7.734  -0.170 -20.381  0.00  0.00    +0.000 OA
ATOM      2  O   UNL     1      10.033   1.181 -15.904  0.00  0.00    +0.000 OA
ATOM      3  N   UNL     1       7.016   0.910 -20.814  0.00  0.00    +0.000 N 
ATOM      4  N   UNL     1       9.456   1.788 -18.062  0.00  0.00    +0.000 N 
ATOM      5  C   UNL     1       7.394   2.213 -20.085  0.00  0.00    +0.000 C 
ATOM      6  C   UNL     1       8.857   2.637 -20.326  0.00  0.00    +0.000 C 
ATOM      7  C   UNL     1       7.062   2.186 -18.588  0.00  0.00    +0.000 C 
ATOM      8  C   UNL     1       9.860   1.795 -19.486  0.00  0.00    +0.000 C 
ATOM      9  C   UNL     1       9.137   2.697 -21.838  0.00  0.00    +0.000 C 
ATOM     10  C   UNL     1       8.078   1.365 -17.794  0.00  0.00    +0.000 C 
ATOM     11  C   UNL     1       7.271   1.082 -22.296  0.00  0.00    +0.000 C 
ATOM     12  C   UNL     1       5.615   1.745 -18.335  0.00  0.00    +0.000 C 
ATOM     13  C   UNL     1       5.544   0.628 -20.587  0.00  0.00    +0.000 C 
ATOM     14  C   UNL     1       8.730   1.425 -22.571  0.00  0.00    +0.000 C 
ATOM     15  C   UNL     1       5.226   0.488 -19.103  0.00  0.00    +0.000 C 
ATOM     16  C   UNL     1      11.296   2.309 -19.677  0.00  0.00    +0.000 C 
ATOM     17  C   UNL     1      12.239   1.599 -18.724  0.00  0.00    +0.000 C 
ATOM     18  C   UNL     1      10.369   1.541 -17.034  0.00  0.00    +0.000 C 
ATOM     19  C   UNL     1      11.815   1.891 -17.303  0.00  0.00    +0.000 C 
ENDROOT
TORSDOF 0
ENDMDL
MODEL 5
REMARK VINA RESULT:      -5.2     12.624     14.126
REMARK  Name = 
REMARK  0 active torsions:
REMARK  status: ('A' for Active; 'I' for Inactive)
REMARK                            x       y       z     vdW  Elec       q    Type
REMARK                         _______ _______ _______ _____ _____    ______ ____
ROOT
ATOM      1  O   UNL     1      -4.335  18.252 -15.427  0.00  0.00    +0.000 OA
ATOM      2  O   UNL     1      -8.663  16.129 -17.403  0.00  0.00    +0.000 OA
ATOM      3  N   UNL     1      -3.891  17.425 -14.433  0.00  0.00    +0.000 N 
ATOM      4  N   UNL     1      -6.509  15.799 -16.625  0.00  0.00    +0.000 N 
ATOM      5  C   UNL     1      -4.554  16.035 -14.469  0.00  0.00    +0.000 C 
ATOM      6  C   UNL     1      -4.240  15.249 -15.758  0.00  0.00    +0.000 C 
ATOM      7  C   UNL     1      -6.063  16.079 -14.199  0.00  0.00    +0.000 C 
ATOM      8  C   UNL     1      -5.071  15.752 -16.972  0.00  0.00    +0.000 C 
ATOM      9  C   UNL     1      -2.716  15.188 -15.969  0.00  0.00    +0.000 C 
ATOM     10  C   UNL     1      -6.847  16.561 -15.419  0.00  0.00    +0.000 C 
ATOM     11  C   UNL     1      -2.394  17.261 -14.592  0.00  0.00    +0.000 C 
ATOM     12  C   UNL     1      -6.390  16.876 -12.930  0.00  0.00    +0.000 C 
ATOM     13  C   UNL     1      -4.186  18.077 -13.098  0.00  0.00    +0.000 C 
ATOM     14  C   UNL     1      -2.049  16.555 -15.898  0.00  0.00    +0.000 C 
ATOM     15  C   UNL     1      -5.685  18.227 -12.871  0.00  0.00    +0.000 C 
ATOM     16  C   UNL     1      -4.804  14.883 -18.212  0.00  0.00    +0.000 C 
ATOM     17  C   UNL     1      -5.745  15.271 -19.337  0.00  0.00    +0.000 C 
ATOM     18  C   UNL     1      -7.508  15.745 -17.599  0.00  0.00    +0.000 C 
ATOM     19  C   UNL     1      -7.170  15.036 -18.890  0.00  0.00    +0.000 C 
ENDROOT
TORSDOF 0
ENDMDL
MODEL 6
REMARK VINA RESULT:      -5.2     28.768     30.598
REMARK  Name = 
REMARK  0 active torsions:
REMARK  status: ('A' for Active; 'I' for Inactive)
REMARK                            x       y       z     vdW  Elec       q    Type
REMARK                         _______ _______ _______ _____ _____    ______ ____
ROOT
ATOM      1  O   UNL     1       4.234 -18.293 -11.871  0.00  0.00    +0.000 OA
ATOM      2  O   UNL     1       8.712 -16.518 -13.857  0.00  0.00    +0.000 OA
ATOM      3  N   UNL     1       3.691 -17.286 -11.122  0.00  0.00    +0.000 N 
ATOM      4  N   UNL     1       6.491 -16.091 -13.365  0.00  0.00    +0.000 N 
ATOM      5  C   UNL     1       4.344 -15.917 -11.395  0.00  0.00    +0.000 C 
ATOM      6  C   UNL     1       4.146 -15.432 -12.845  0.00  0.00    +0.000 C 
ATOM      7  C   UNL     1       5.820 -15.861 -10.986  0.00  0.00    +0.000 C 
ATOM      8  C   UNL     1       5.092 -16.159 -13.844  0.00  0.00    +0.000 C 
ATOM      9  C   UNL     1       2.649 -15.460 -13.201  0.00  0.00    +0.000 C 
ATOM     10  C   UNL     1       6.720 -16.569 -11.998  0.00  0.00    +0.000 C 
ATOM     11  C   UNL     1       2.215 -17.202 -11.447  0.00  0.00    +0.000 C 
ATOM     12  C   UNL     1       6.032 -16.361  -9.551  0.00  0.00    +0.000 C 
ATOM     13  C   UNL     1       3.864 -17.631  -9.658  0.00  0.00    +0.000 C 
ATOM     14  C   UNL     1       1.989 -16.799 -12.900  0.00  0.00    +0.000 C 
ATOM     15  C   UNL     1       5.336 -17.687  -9.268  0.00  0.00    +0.000 C 
ATOM     16  C   UNL     1       4.937 -15.581 -15.259  0.00  0.00    +0.000 C 
ATOM     17  C   UNL     1       5.982 -16.173 -16.185  0.00  0.00    +0.000 C 
ATOM     18  C   UNL     1       7.578 -16.218 -14.234  0.00  0.00    +0.000 C 
ATOM     19  C   UNL     1       7.357 -15.808 -15.672  0.00  0.00    +0.000 C 
ENDROOT
TORSDOF 0
ENDMDL
MODEL 7
REMARK VINA RESULT:      -5.2     12.610     13.501
REMARK  Name = 
REMARK  0 active torsions:
REMARK  status: ('A' for Active; 'I' for Inactive)
REMARK                            x       y       z     vdW  Elec       q    Type
REMARK                         _______ _______ _______ _____ _____    ______ ____
ROOT
ATOM      1  O   UNL     1     -10.870  -4.128   0.396  0.00  0.00    +0.000 OA
ATOM      2  O   UNL     1      -9.016   0.078   2.851  0.00  0.00    +0.000 OA
ATOM      3  N   UNL     1     -11.722  -3.690  -0.579  0.00  0.00    +0.000 N 
ATOM      4  N   UNL     1      -9.575  -0.918   0.837  0.00  0.00    +0.000 N 
ATOM      5  C   UNL     1     -11.578  -2.183  -0.868  0.00  0.00    +0.000 C 
ATOM      6  C   UNL     1     -10.186  -1.802  -1.409  0.00  0.00    +0.000 C 
ATOM      7  C   UNL     1     -11.973  -1.300   0.322  0.00  0.00    +0.000 C 
ATOM      8  C   UNL     1      -9.109  -1.759  -0.288  0.00  0.00    +0.000 C 
ATOM      9  C   UNL     1      -9.847  -2.678  -2.630  0.00  0.00    +0.000 C 
ATOM     10  C   UNL     1     -10.884  -1.270   1.394  0.00  0.00    +0.000 C 
ATOM     11  C   UNL     1     -11.425  -4.465  -1.846  0.00  0.00    +0.000 C 
ATOM     12  C   UNL     1     -13.348  -1.684   0.883  0.00  0.00    +0.000 C 
ATOM     13  C   UNL     1     -13.143  -3.973  -0.139  0.00  0.00    +0.000 C 
ATOM     14  C   UNL     1     -10.022  -4.167  -2.362  0.00  0.00    +0.000 C 
ATOM     15  C   UNL     1     -13.507  -3.183   1.112  0.00  0.00    +0.000 C 
ATOM     16  C   UNL     1      -7.759  -1.282  -0.847  0.00  0.00    +0.000 C 
ATOM     17  C   UNL     1      -6.767  -1.077   0.282  0.00  0.00    +0.000 C 
ATOM     18  C   UNL     1      -8.684  -0.319   1.732  0.00  0.00    +0.000 C 
ATOM     19  C   UNL     1      -7.296  -0.013   1.216  0.00  0.00    +0.000 C 
ENDROOT
TORSDOF 0
ENDMDL
MODEL 8
REMARK VINA RESULT:      -5.2     25.198     26.738
REMARK  Name = 
REMARK  0 active torsions:
REMARK  status: ('A' for Active; 'I' for Inactive)
REMARK                            x       y       z     vdW  Elec       q    Type
REMARK                         _______ _______ _______ _____ _____    ______ ____
ROOT
ATOM      1  O   UNL     1      13.573  11.921 -16.031  0.00  0.00    +0.000 OA
ATOM      2  O   UNL     1      14.543  11.492 -10.929  0.00  0.00    +0.000 OA
ATOM      3  N   UNL     1      13.722  10.678 -16.581  0.00  0.00    +0.000 N 
ATOM      4  N   UNL     1      13.531  10.589 -12.805  0.00  0.00    +0.000 N 
ATOM      5  C   UNL     1      13.754   9.555 -15.526  0.00  0.00    +0.000 C 
ATOM      6  C   UNL     1      12.441   9.439 -14.727  0.00  0.00    +0.000 C 
ATOM      7  C   UNL     1      14.968   9.639 -14.593  0.00  0.00    +0.000 C 
ATOM      8  C   UNL     1      12.311  10.547 -13.643  0.00  0.00    +0.000 C 
ATOM      9  C   UNL     1      11.253   9.311 -15.698  0.00  0.00    +0.000 C 
ATOM     10  C   UNL     1      14.797  10.726 -13.532  0.00  0.00    +0.000 C 
ATOM     11  C   UNL     1      12.559  10.438 -17.521  0.00  0.00    +0.000 C 
ATOM     12  C   UNL     1      16.280   9.776 -15.377  0.00  0.00    +0.000 C 
ATOM     13  C   UNL     1      15.016  10.653 -17.367  0.00  0.00    +0.000 C 
ATOM     14  C   UNL     1      11.236  10.396 -16.765  0.00  0.00    +0.000 C 
ATOM     15  C   UNL     1      16.224  10.849 -16.459  0.00  0.00    +0.000 C 
ATOM     16  C   UNL     1      11.041  10.341 -12.803  0.00  0.00    +0.000 C 
ATOM     17  C   UNL     1      11.014  11.318 -11.643  0.00  0.00    +0.000 C 
ATOM     18  C   UNL     1      13.523  11.116 -11.512  0.00  0.00    +0.000 C 
ATOM     19  C   UNL     1      12.213  11.065 -10.759  0.00  0.00    +0.000 C 
ENDROOT
TORSDOF 0
ENDMDL
MODEL 9
REMARK VINA RESULT:      -5.1     12.639     14.090
REMARK  Name = 
REMARK  0 active torsions:
REMARK  status: ('A' for Active; 'I' for Inactive)
REMARK                            x       y       z     vdW  Elec       q    Type
REMARK                         _______ _______ _______ _____ _____    ______ ____
ROOT
ATOM      1  O   UNL     1      -5.918  18.283 -16.207  0.00  0.00    +0.000 OA
ATOM      2  O   UNL     1      -3.507  14.798 -19.238  0.00  0.00    +0.000 OA
ATOM      3  N   UNL     1      -7.114  17.739 -15.831  0.00  0.00    +0.000 N 
ATOM      4  N   UNL     1      -4.760  15.190 -17.332  0.00  0.00    +0.000 N 
ATOM      5  C   UNL     1      -7.194  16.223 -16.095  0.00  0.00    +0.000 C 
ATOM      6  C   UNL     1      -6.161  15.414 -15.286  0.00  0.00    +0.000 C 
ATOM      7  C   UNL     1      -7.135  15.867 -17.586  0.00  0.00    +0.000 C 
ATOM      8  C   UNL     1      -4.731  15.514 -15.888  0.00  0.00    +0.000 C 
ATOM      9  C   UNL     1      -6.284  15.765 -13.792  0.00  0.00    +0.000 C 
ATOM     10  C   UNL     1      -5.712  15.960 -18.137  0.00  0.00    +0.000 C 
ATOM     11  C   UNL     1      -7.301  17.991 -14.349  0.00  0.00    +0.000 C 
ATOM     12  C   UNL     1      -8.144  16.682 -18.405  0.00  0.00    +0.000 C 
ATOM     13  C   UNL     1      -8.220  18.432 -16.601  0.00  0.00    +0.000 C 
ATOM     14  C   UNL     1      -6.243  17.264 -13.526  0.00  0.00    +0.000 C 
ATOM     15  C   UNL     1      -8.102  18.174 -18.097  0.00  0.00    +0.000 C 
ATOM     16  C   UNL     1      -3.750  14.618 -15.115  0.00  0.00    +0.000 C 
ATOM     17  C   UNL     1      -2.404  14.587 -15.813  0.00  0.00    +0.000 C 
ATOM     18  C   UNL     1      -3.626  14.740 -18.013  0.00  0.00    +0.000 C 
ATOM     19  C   UNL     1      -2.582  14.010 -17.199  0.00  0.00    +0.000 C 
ENDROOT
TORSDOF 0
ENDMDL
