MODEL 1
REMARK VINA RESULT:      -6.3      0.000      0.000
REMARK  Name = 
REMARK  23 active torsions:
REMARK  status: ('A' for Active; 'I' for Inactive)
REMARK    1  A    between atoms: O_2  and  C_17
REMARK    2  A    between atoms: O_2  and  C_36
REMARK    3  A    between atoms: O_3  and  C_20
REMARK    4  A    between atoms: O_3  and  C_37
REMARK    5  A    between atoms: O_4  and  C_21
REMARK    6  A    between atoms: O_5  and  C_22
REMARK    7  A    between atoms: O_6  and  C_30
REMARK    8  A    between atoms: O_6  and  C_39
REMARK    9  A    between atoms: O_8  and  C_31
REMARK   10  A    between atoms: O_8  and  C_40
REMARK   11  A    between atoms: O_13  and  C_42
REMARK   12  A    between atoms: N_15  and  C_46
REMARK   13  A    between atoms: C_18  and  C_29
REMARK   14  A    between atoms: C_24  and  C_33
REMARK   15  A    between atoms: C_24  and  C_34
REMARK   16  A    between atoms: C_32  and  C_35
REMARK   17  A    between atoms: C_36  and  C_38
REMARK   18  A    between atoms: C_37  and  C_41
REMARK   19  A    between atoms: C_39  and  C_43
REMARK   20  A    between atoms: C_40  and  C_42
REMARK   21  A    between atoms: C_42  and  C_46
REMARK   22  A    between atoms: C_46  and  C_50
REMARK   23  A    between atoms: C_53  and  C_56
REMARK                            x       y       z     vdW  Elec       q    Type
REMARK                         _______ _______ _______ _____ _____    ______ ____
ROOT
ATOM      1  O   UNL     1     -13.402  -3.146 -22.728  0.00  0.00    +0.000 OA
ATOM      2  O   UNL     1      -9.975   2.006 -25.210  0.00  0.00    +0.000 OA
ATOM      3  C   UNL     1     -10.659  -2.253 -24.603  0.00  0.00    +0.000 C 
ATOM      4  C   UNL     1     -11.380  -2.895 -23.381  0.00  0.00    +0.000 C 
ATOM      5  C   UNL     1     -10.381  -0.424 -24.184  0.00  0.00    +0.000 C 
ATOM      6  C   UNL     1     -12.753  -2.120 -23.528  0.00  0.00    +0.000 C 
ATOM      7  C   UNL     1      -9.288  -3.338 -25.253  0.00  0.00    +0.000 C 
ATOM      8  C   UNL     1      -7.923  -3.375 -26.565  0.00  0.00    +0.000 C 
ATOM      9  C   UNL     1     -11.843   0.150 -23.961  0.00  0.00    +0.000 C 
ATOM     10  C   UNL     1     -12.763  -0.694 -23.028  0.00  0.00    +0.000 C 
ATOM     11  C   UNL     1      -7.325  -2.046 -27.577  0.00  0.00    +0.000 C 
ATOM     12  C   UNL     1     -12.419  -4.083 -23.315  0.00  0.00    +0.000 C 
ATOM     13  C   UNL     1      -9.476   0.861 -25.219  0.00  0.00    +0.000 C 
ATOM     14  C   UNL     1      -6.580  -3.749 -25.785  0.00  0.00    +0.000 C 
ATOM     15  C   UNL     1      -6.883  -0.778 -26.696  0.00  0.00    +0.000 C 
ATOM     16  C   UNL     1      -9.702  -0.221 -22.765  0.00  0.00    +0.000 C 
ATOM     17  C   UNL     1      -7.906   0.648 -26.307  0.00  0.00    +0.000 C 
ATOM     18  C   UNL     1      -5.614  -2.564 -25.327  0.00  0.00    +0.000 C 
ATOM     19  C   UNL     1      -5.865  -1.095 -25.828  0.00  0.00    +0.000 C 
ATOM     20  C   UNL     1      -6.002  -2.598 -28.312  0.00  0.00    +0.000 C 
ATOM     21  C   UNL     1      -8.079  -1.695 -28.899  0.00  0.00    +0.000 C 
ATOM     22  C   UNL     1      -5.086  -0.044 -25.076  0.00  0.00    +0.000 C 
ENDROOT
BRANCH   9  23
ATOM     23  O   UNL     1     -12.504   0.242 -25.223  0.00  0.00    +0.000 OA
ATOM     24  H   UNL     1     -13.275  -0.358 -25.174  0.00  0.00    +0.000 HD
ENDBRANCH   9  23
BRANCH   8  25
ATOM     25  O   UNL     1      -8.232  -4.497 -27.413  0.00  0.00    +0.000 OA
ATOM     26  H   UNL     1      -7.915  -4.305 -28.314  0.00  0.00    +0.000 HD
ENDBRANCH   8  25
BRANCH  18  27
ATOM     27  O   UNL     1      -5.628  -2.511 -23.871  0.00  0.00    +0.000 OA
BRANCH  27  29
ATOM     28  O   UNL     1      -4.903  -4.311 -22.706  0.00  0.00    +0.000 OA
ATOM     29  C   UNL     1      -4.670  -3.222 -23.221  0.00  0.00    +0.000 C 
BRANCH  29  30
ATOM     30  C   UNL     1      -3.339  -2.485 -23.048  0.00  0.00    +0.000 C 
BRANCH  30  31
ATOM     31  O   UNL     1      -2.167  -3.266 -23.309  0.00  0.00    +0.000 OA
ATOM     32  H   UNL     1      -2.264  -4.082 -22.783  0.00  0.00    +0.000 HD
ENDBRANCH  30  31
BRANCH  30  33
ATOM     33  C   UNL     1      -3.295  -1.900 -21.609  0.00  0.00    +0.000 C 
BRANCH  33  34
ATOM     34  C   UNL     1      -3.544  -0.398 -21.633  0.00  0.00    +0.000 A 
ATOM     35  C   UNL     1      -2.542   0.461 -22.117  0.00  0.00    +0.000 A 
ATOM     36  C   UNL     1      -4.738   0.166 -21.154  0.00  0.00    +0.000 A 
ATOM     37  C   UNL     1      -2.737   1.843 -22.138  0.00  0.00    +0.000 A 
ATOM     38  C   UNL     1      -4.931   1.548 -21.178  0.00  0.00    +0.000 A 
ATOM     39  C   UNL     1      -3.932   2.386 -21.672  0.00  0.00    +0.000 A 
ENDBRANCH  33  34
BRANCH  33  41
ATOM     40  O   UNL     1      -0.758  -3.001 -19.279  0.00  0.00    +0.000 OA
ATOM     41  N   UNL     1      -2.010  -2.210 -20.969  0.00  0.00    +0.000 N 
ATOM     42  C   UNL     1      -1.717  -2.323 -19.637  0.00  0.00    +0.000 C 
ATOM     43  H   UNL     1      -1.331  -2.660 -21.576  0.00  0.00    +0.000 HD
BRANCH  42  44
ATOM     44  C   UNL     1      -2.575  -1.672 -18.622  0.00  0.00    +0.000 A 
ATOM     45  C   UNL     1      -3.591  -2.374 -17.968  0.00  0.00    +0.000 A 
ATOM     46  C   UNL     1      -2.398  -0.306 -18.374  0.00  0.00    +0.000 A 
ATOM     47  C   UNL     1      -4.388  -1.725 -17.023  0.00  0.00    +0.000 A 
ATOM     48  C   UNL     1      -3.196   0.341 -17.431  0.00  0.00    +0.000 A 
ATOM     49  C   UNL     1      -4.184  -0.372 -16.750  0.00  0.00    +0.000 A 
ENDBRANCH  42  44
ENDBRANCH  33  41
ENDBRANCH  30  33
ENDBRANCH  29  30
ENDBRANCH  27  29
ENDBRANCH  18  27
BRANCH  17  50
ATOM     50  O   UNL     1      -8.007   1.346 -27.566  0.00  0.00    +0.000 OA
BRANCH  50  52
ATOM     51  O   UNL     1      -7.891   3.578 -27.455  0.00  0.00    +0.000 OA
ATOM     52  C   UNL     1      -7.383   2.520 -27.812  0.00  0.00    +0.000 C 
ATOM     53  C   UNL     1      -6.110   2.485 -28.603  0.00  0.00    +0.000 C 
ENDBRANCH  50  52
ENDBRANCH  17  50
BRANCH   7  54
ATOM     54  O   UNL     1      -8.488  -2.627 -24.487  0.00  0.00    +0.000 OA
BRANCH  54  56
ATOM     55  O   UNL     1      -8.892  -4.579 -24.243  0.00  0.00    +0.000 OA
ATOM     56  C   UNL     1      -8.372  -3.672 -23.601  0.00  0.00    +0.000 C 
BRANCH  56  57
ATOM     57  C   UNL     1      -7.833  -3.481 -21.775  0.00  0.00    +0.000 A 
ATOM     58  C   UNL     1      -7.520  -2.215 -21.116  0.00  0.00    +0.000 A 
ATOM     59  C   UNL     1      -7.785  -4.496 -20.772  0.00  0.00    +0.000 A 
ATOM     60  C   UNL     1      -7.226  -2.012 -19.744  0.00  0.00    +0.000 A 
ATOM     61  C   UNL     1      -7.491  -4.313 -19.391  0.00  0.00    +0.000 A 
ATOM     62  C   UNL     1      -7.215  -3.070 -18.873  0.00  0.00    +0.000 A 
ENDBRANCH  56  57
ENDBRANCH  54  56
ENDBRANCH   7  54
BRANCH   4  63
ATOM     63  O   UNL     1     -10.683  -2.644 -22.138  0.00  0.00    +0.000 OA
BRANCH  63  65
ATOM     64  O   UNL     1     -11.297  -4.326 -20.800  0.00  0.00    +0.000 OA
ATOM     65  C   UNL     1     -11.064  -3.126 -20.934  0.00  0.00    +0.000 C 
ATOM     66  C   UNL     1     -11.311  -2.175 -19.807  0.00  0.00    +0.000 C 
ENDBRANCH  63  65
ENDBRANCH   4  63
TORSDOF 17
ENDMDL
MODEL 2
REMARK VINA RESULT:      -6.2     21.711     26.725
REMARK  Name = 
REMARK  23 active torsions:
REMARK  status: ('A' for Active; 'I' for Inactive)
REMARK    1  A    between atoms: O_2  and  C_17
REMARK    2  A    between atoms: O_2  and  C_36
REMARK    3  A    between atoms: O_3  and  C_20
REMARK    4  A    between atoms: O_3  and  C_37
REMARK    5  A    between atoms: O_4  and  C_21
REMARK    6  A    between atoms: O_5  and  C_22
REMARK    7  A    between atoms: O_6  and  C_30
REMARK    8  A    between atoms: O_6  and  C_39
REMARK    9  A    between atoms: O_8  and  C_31
REMARK   10  A    between atoms: O_8  and  C_40
REMARK   11  A    between atoms: O_13  and  C_42
REMARK   12  A    between atoms: N_15  and  C_46
REMARK   13  A    between atoms: C_18  and  C_29
REMARK   14  A    between atoms: C_24  and  C_33
REMARK   15  A    between atoms: C_24  and  C_34
REMARK   16  A    between atoms: C_32  and  C_35
REMARK   17  A    between atoms: C_36  and  C_38
REMARK   18  A    between atoms: C_37  and  C_41
REMARK   19  A    between atoms: C_39  and  C_43
REMARK   20  A    between atoms: C_40  and  C_42
REMARK   21  A    between atoms: C_42  and  C_46
REMARK   22  A    between atoms: C_46  and  C_50
REMARK   23  A    between atoms: C_53  and  C_56
REMARK                            x       y       z     vdW  Elec       q    Type
REMARK                         _______ _______ _______ _____ _____    ______ ____
ROOT
ATOM      1  O   UNL     1      14.811  18.273 -14.488  0.00  0.00    +0.000 OA
ATOM      2  O   UNL     1      10.826  13.520 -12.043  0.00  0.00    +0.000 OA
ATOM      3  C   UNL     1      14.207  14.886 -14.426  0.00  0.00    +0.000 C 
ATOM      4  C   UNL     1      14.337  16.280 -15.107  0.00  0.00    +0.000 C 
ATOM      5  C   UNL     1      12.422  14.740 -13.799  0.00  0.00    +0.000 C 
ATOM      6  C   UNL     1      14.179  17.159 -13.800  0.00  0.00    +0.000 C 
ATOM      7  C   UNL     1      15.015  13.540 -15.432  0.00  0.00    +0.000 C 
ATOM      8  C   UNL     1      15.295  11.667 -15.447  0.00  0.00    +0.000 C 
ATOM      9  C   UNL     1      12.272  15.942 -12.775  0.00  0.00    +0.000 C 
ATOM     10  C   UNL     1      12.768  17.329 -13.286  0.00  0.00    +0.000 C 
ATOM     11  C   UNL     1      14.536  10.426 -14.433  0.00  0.00    +0.000 C 
ATOM     12  C   UNL     1      15.580  17.247 -15.227  0.00  0.00    +0.000 C 
ATOM     13  C   UNL     1      11.621  13.254 -12.970  0.00  0.00    +0.000 C 
ATOM     14  C   UNL     1      14.821  11.167 -16.889  0.00  0.00    +0.000 C 
ATOM     15  C   UNL     1      12.933  10.506 -14.492  0.00  0.00    +0.000 C 
ATOM     16  C   UNL     1      11.354  15.092 -14.916  0.00  0.00    +0.000 C 
ATOM     17  C   UNL     1      11.874  11.385 -13.335  0.00  0.00    +0.000 C 
ATOM     18  C   UNL     1      13.343  10.586 -17.042  0.00  0.00    +0.000 C 
ATOM     19  C   UNL     1      12.463  10.305 -15.769  0.00  0.00    +0.000 C 
ATOM     20  C   UNL     1      14.964   9.005 -15.059  0.00  0.00    +0.000 C 
ATOM     21  C   UNL     1      15.125  10.133 -13.016  0.00  0.00    +0.000 C 
ATOM     22  C   UNL     1      11.004  10.069 -16.066  0.00  0.00    +0.000 C 
ENDROOT
BRANCH   9  23
ATOM     23  O   UNL     1      13.016  15.644 -11.594  0.00  0.00    +0.000 OA
ATOM     24  H   UNL     1      13.827  16.189 -11.635  0.00  0.00    +0.000 HD
ENDBRANCH   9  23
BRANCH   8  25
ATOM     25  O   UNL     1      16.724  11.489 -15.400  0.00  0.00    +0.000 OA
ATOM     26  H   UNL     1      17.151  12.356 -15.519  0.00  0.00    +0.000 HD
ENDBRANCH   8  25
BRANCH  18  27
ATOM     27  O   UNL     1      12.581  11.511 -17.873  0.00  0.00    +0.000 OA
BRANCH  27  29
ATOM     28  O   UNL     1      13.409  10.881 -19.882  0.00  0.00    +0.000 OA
ATOM     29  C   UNL     1      12.448  11.190 -19.185  0.00  0.00    +0.000 C 
BRANCH  29  30
ATOM     30  C   UNL     1      11.041  11.402 -19.751  0.00  0.00    +0.000 C 
BRANCH  30  31
ATOM     31  O   UNL     1      10.255  10.214 -19.902  0.00  0.00    +0.000 OA
ATOM     32  H   UNL     1       9.511  10.302 -19.278  0.00  0.00    +0.000 HD
ENDBRANCH  30  31
BRANCH  30  33
ATOM     33  C   UNL     1      11.174  12.143 -21.111  0.00  0.00    +0.000 C 
BRANCH  33  34
ATOM     34  C   UNL     1       9.867  12.832 -21.477  0.00  0.00    +0.000 A 
ATOM     35  C   UNL     1       8.839  12.916 -20.522  0.00  0.00    +0.000 A 
ATOM     36  C   UNL     1       9.639  13.363 -22.756  0.00  0.00    +0.000 A 
ATOM     37  C   UNL     1       7.625  13.530 -20.832  0.00  0.00    +0.000 A 
ATOM     38  C   UNL     1       8.424  13.978 -23.064  0.00  0.00    +0.000 A 
ATOM     39  C   UNL     1       7.419  14.063 -22.102  0.00  0.00    +0.000 A 
ENDBRANCH  33  34
BRANCH  33  41
ATOM     40  O   UNL     1      13.136  10.198 -23.445  0.00  0.00    +0.000 OA
ATOM     41  N   UNL     1      11.590  11.209 -22.165  0.00  0.00    +0.000 N 
ATOM     42  C   UNL     1      12.712  11.237 -22.948  0.00  0.00    +0.000 C 
ATOM     43  H   UNL     1      11.145  10.297 -22.124  0.00  0.00    +0.000 HD
BRANCH  42  44
ATOM     44  C   UNL     1      13.447  12.504 -23.161  0.00  0.00    +0.000 A 
ATOM     45  C   UNL     1      12.992  13.467 -24.067  0.00  0.00    +0.000 A 
ATOM     46  C   UNL     1      14.658  12.697 -22.486  0.00  0.00    +0.000 A 
ATOM     47  C   UNL     1      13.716  14.646 -24.250  0.00  0.00    +0.000 A 
ATOM     48  C   UNL     1      15.381  13.875 -22.672  0.00  0.00    +0.000 A 
ATOM     49  C   UNL     1      14.904  14.852 -23.547  0.00  0.00    +0.000 A 
ENDBRANCH  42  44
ENDBRANCH  33  41
ENDBRANCH  30  33
ENDBRANCH  29  30
ENDBRANCH  27  29
ENDBRANCH  18  27
BRANCH  17  50
ATOM     50  O   UNL     1      11.958  10.592 -12.131  0.00  0.00    +0.000 OA
BRANCH  50  52
ATOM     51  O   UNL     1      10.075   9.382 -12.113  0.00  0.00    +0.000 OA
ATOM     52  C   UNL     1      10.872  10.088 -11.502  0.00  0.00    +0.000 C 
ATOM     53  C   UNL     1      10.636  10.492 -10.078  0.00  0.00    +0.000 C 
ENDBRANCH  50  52
ENDBRANCH  17  50
BRANCH   7  54
ATOM     54  O   UNL     1      13.819  13.332 -15.942  0.00  0.00    +0.000 OA
BRANCH  54  56
ATOM     55  O   UNL     1      15.432  13.931 -16.980  0.00  0.00    +0.000 OA
ATOM     56  C   UNL     1      14.219  13.859 -17.148  0.00  0.00    +0.000 C 
BRANCH  56  57
ATOM     57  C   UNL     1      13.020  14.551 -18.469  0.00  0.00    +0.000 A 
ATOM     58  C   UNL     1      11.606  14.849 -18.253  0.00  0.00    +0.000 A 
ATOM     59  C   UNL     1      13.344  14.996 -19.787  0.00  0.00    +0.000 A 
ATOM     60  C   UNL     1      10.711  15.465 -19.163  0.00  0.00    +0.000 A 
ATOM     61  C   UNL     1      12.459  15.614 -20.716  0.00  0.00    +0.000 A 
ATOM     62  C   UNL     1      11.142  15.853 -20.405  0.00  0.00    +0.000 A 
ENDBRANCH  56  57
ENDBRANCH  54  56
ENDBRANCH   7  54
BRANCH   4  63
ATOM     63  O   UNL     1      13.311  16.502 -16.103  0.00  0.00    +0.000 OA
BRANCH  63  65
ATOM     64  O   UNL     1      14.173  17.730 -17.761  0.00  0.00    +0.000 OA
ATOM     65  C   UNL     1      13.272  17.563 -16.941  0.00  0.00    +0.000 C 
ATOM     66  C   UNL     1      12.193  18.585 -16.781  0.00  0.00    +0.000 C 
ENDBRANCH  63  65
ENDBRANCH   4  63
TORSDOF 17
ENDMDL
MODEL 3
REMARK VINA RESULT:      -6.1     23.924     28.125
REMARK  Name = 
REMARK  23 active torsions:
REMARK  status: ('A' for Active; 'I' for Inactive)
REMARK    1  A    between atoms: O_2  and  C_17
REMARK    2  A    between atoms: O_2  and  C_36
REMARK    3  A    between atoms: O_3  and  C_20
REMARK    4  A    between atoms: O_3  and  C_37
REMARK    5  A    between atoms: O_4  and  C_21
REMARK    6  A    between atoms: O_5  and  C_22
REMARK    7  A    between atoms: O_6  and  C_30
REMARK    8  A    between atoms: O_6  and  C_39
REMARK    9  A    between atoms: O_8  and  C_31
REMARK   10  A    between atoms: O_8  and  C_40
REMARK   11  A    between atoms: O_13  and  C_42
REMARK   12  A    between atoms: N_15  and  C_46
REMARK   13  A    between atoms: C_18  and  C_29
REMARK   14  A    between atoms: C_24  and  C_33
REMARK   15  A    between atoms: C_24  and  C_34
REMARK   16  A    between atoms: C_32  and  C_35
REMARK   17  A    between atoms: C_36  and  C_38
REMARK   18  A    between atoms: C_37  and  C_41
REMARK   19  A    between atoms: C_39  and  C_43
REMARK   20  A    between atoms: C_40  and  C_42
REMARK   21  A    between atoms: C_42  and  C_46
REMARK   22  A    between atoms: C_46  and  C_50
REMARK   23  A    between atoms: C_53  and  C_56
REMARK                            x       y       z     vdW  Elec       q    Type
REMARK                         _______ _______ _______ _____ _____    ______ ____
ROOT
ATOM      1  O   UNL     1      13.321  19.619 -11.819  0.00  0.00    +0.000 OA
ATOM      2  O   UNL     1      10.817  14.240  -8.778  0.00  0.00    +0.000 OA
ATOM      3  C   UNL     1      13.293  16.178 -11.792  0.00  0.00    +0.000 C 
ATOM      4  C   UNL     1      13.039  17.582 -12.414  0.00  0.00    +0.000 C 
ATOM      5  C   UNL     1      11.749  15.730 -10.786  0.00  0.00    +0.000 C 
ATOM      6  C   UNL     1      13.051  18.406 -11.063  0.00  0.00    +0.000 C 
ATOM      7  C   UNL     1      14.049  14.997 -13.022  0.00  0.00    +0.000 C 
ATOM      8  C   UNL     1      14.612  13.197 -13.194  0.00  0.00    +0.000 C 
ATOM      9  C   UNL     1      11.650  16.877  -9.696  0.00  0.00    +0.000 C 
ATOM     10  C   UNL     1      11.788  18.333 -10.234  0.00  0.00    +0.000 C 
ATOM     11  C   UNL     1      14.315  11.834 -12.098  0.00  0.00    +0.000 C 
ATOM     12  C   UNL     1      14.051  18.744 -12.764  0.00  0.00    +0.000 C 
ATOM     13  C   UNL     1      11.407  14.121  -9.873  0.00  0.00    +0.000 C 
ATOM     14  C   UNL     1      13.903  12.643 -14.514  0.00  0.00    +0.000 C 
ATOM     15  C   UNL     1      12.750  11.648 -11.788  0.00  0.00    +0.000 C 
ATOM     16  C   UNL     1      10.409  15.914 -11.614  0.00  0.00    +0.000 C 
ATOM     17  C   UNL     1      11.862  12.324 -10.380  0.00  0.00    +0.000 C 
ATOM     18  C   UNL     1      12.540  11.827 -14.358  0.00  0.00    +0.000 C 
ATOM     19  C   UNL     1      12.036  11.388 -12.935  0.00  0.00    +0.000 C 
ATOM     20  C   UNL     1      14.806  10.512 -12.875  0.00  0.00    +0.000 C 
ATOM     21  C   UNL     1      15.255  11.626 -10.868  0.00  0.00    +0.000 C 
ATOM     22  C   UNL     1      10.603  10.916 -12.906  0.00  0.00    +0.000 C 
ENDROOT
BRANCH   9  23
ATOM     23  O   UNL     1      12.685  16.692  -8.730  0.00  0.00    +0.000 OA
ATOM     24  H   UNL     1      13.226  15.940  -9.047  0.00  0.00    +0.000 HD
ENDBRANCH   9  23
BRANCH   8  25
ATOM     25  O   UNL     1      16.023  13.258 -13.481  0.00  0.00    +0.000 OA
ATOM     26  H   UNL     1      16.459  12.491 -13.070  0.00  0.00    +0.000 HD
ENDBRANCH   8  25
BRANCH  18  27
ATOM     27  O   UNL     1      11.470  12.622 -14.947  0.00  0.00    +0.000 OA
BRANCH  27  29
ATOM     28  O   UNL     1      10.817  11.063 -16.451  0.00  0.00    +0.000 OA
ATOM     29  C   UNL     1      11.023  12.239 -16.170  0.00  0.00    +0.000 C 
BRANCH  29  30
ATOM     30  C   UNL     1      10.954  13.368 -17.204  0.00  0.00    +0.000 C 
BRANCH  30  31
ATOM     31  O   UNL     1       9.915  13.241 -18.181  0.00  0.00    +0.000 OA
ATOM     32  H   UNL     1       9.384  14.058 -18.119  0.00  0.00    +0.000 HD
ENDBRANCH  30  31
BRANCH  30  33
ATOM     33  C   UNL     1      12.342  13.475 -17.894  0.00  0.00    +0.000 C 
BRANCH  33  34
ATOM     34  C   UNL     1      12.575  14.886 -18.415  0.00  0.00    +0.000 A 
ATOM     35  C   UNL     1      13.625  15.124 -19.319  0.00  0.00    +0.000 A 
ATOM     36  C   UNL     1      11.791  15.973 -17.996  0.00  0.00    +0.000 A 
ATOM     37  C   UNL     1      13.872  16.410 -19.803  0.00  0.00    +0.000 A 
ATOM     38  C   UNL     1      12.038  17.257 -18.483  0.00  0.00    +0.000 A 
ATOM     39  C   UNL     1      13.076  17.475 -19.388  0.00  0.00    +0.000 A 
ENDBRANCH  33  34
BRANCH  33  41
ATOM     40  O   UNL     1      12.895  10.435 -19.774  0.00  0.00    +0.000 OA
ATOM     41  N   UNL     1      12.453  12.489 -18.978  0.00  0.00    +0.000 N 
ATOM     42  C   UNL     1      13.226  11.362 -19.041  0.00  0.00    +0.000 C 
ATOM     43  H   UNL     1      11.675  12.487 -19.631  0.00  0.00    +0.000 HD
BRANCH  42  44
ATOM     44  C   UNL     1      14.434  11.233 -18.196  0.00  0.00    +0.000 A 
ATOM     45  C   UNL     1      15.537  12.076 -18.366  0.00  0.00    +0.000 A 
ATOM     46  C   UNL     1      14.487  10.194 -17.259  0.00  0.00    +0.000 A 
ATOM     47  C   UNL     1      16.664  11.918 -17.558  0.00  0.00    +0.000 A 
ATOM     48  C   UNL     1      15.615  10.036 -16.455  0.00  0.00    +0.000 A 
ATOM     49  C   UNL     1      16.698  10.904 -16.599  0.00  0.00    +0.000 A 
ENDBRANCH  42  44
ENDBRANCH  33  41
ENDBRANCH  30  33
ENDBRANCH  29  30
ENDBRANCH  27  29
ENDBRANCH  18  27
BRANCH  17  50
ATOM     50  O   UNL     1      12.347  11.542  -9.267  0.00  0.00    +0.000 OA
BRANCH  50  52
ATOM     51  O   UNL     1      10.784   9.951  -9.072  0.00  0.00    +0.000 OA
ATOM     52  C   UNL     1      11.549  10.740  -8.525  0.00  0.00    +0.000 C 
ATOM     53  C   UNL     1      11.571  10.914  -7.037  0.00  0.00    +0.000 C 
ENDBRANCH  50  52
ENDBRANCH  17  50
BRANCH   7  54
ATOM     54  O   UNL     1      12.816  14.600 -13.258  0.00  0.00    +0.000 OA
BRANCH  54  56
ATOM     55  O   UNL     1      11.565  15.341 -14.644  0.00  0.00    +0.000 OA
ATOM     56  C   UNL     1      12.767  15.364 -14.400  0.00  0.00    +0.000 C 
BRANCH  56  57
ATOM     57  C   UNL     1      14.309  15.928 -15.383  0.00  0.00    +0.000 A 
ATOM     58  C   UNL     1      15.260  15.039 -16.046  0.00  0.00    +0.000 A 
ATOM     59  C   UNL     1      14.680  17.264 -15.724  0.00  0.00    +0.000 A 
ATOM     60  C   UNL     1      16.348  15.411 -16.875  0.00  0.00    +0.000 A 
ATOM     61  C   UNL     1      15.769  17.658 -16.553  0.00  0.00    +0.000 A 
ATOM     62  C   UNL     1      16.603  16.732 -17.133  0.00  0.00    +0.000 A 
ENDBRANCH  56  57
ENDBRANCH  54  56
ENDBRANCH   7  54
BRANCH   4  63
ATOM     63  O   UNL     1      11.789  17.643 -13.140  0.00  0.00    +0.000 OA
BRANCH  63  65
ATOM     64  O   UNL     1      10.559  19.505 -13.275  0.00  0.00    +0.000 OA
ATOM     65  C   UNL     1      11.345  18.728 -13.814  0.00  0.00    +0.000 C 
ATOM     66  C   UNL     1      11.724  18.907 -15.249  0.00  0.00    +0.000 C 
ENDBRANCH  63  65
ENDBRANCH   4  63
TORSDOF 17
ENDMDL
MODEL 4
REMARK VINA RESULT:      -6.1     20.117     26.457
REMARK  Name = 
REMARK  23 active torsions:
REMARK  status: ('A' for Active; 'I' for Inactive)
REMARK    1  A    between atoms: O_2  and  C_17
REMARK    2  A    between atoms: O_2  and  C_36
REMARK    3  A    between atoms: O_3  and  C_20
REMARK    4  A    between atoms: O_3  and  C_37
REMARK    5  A    between atoms: O_4  and  C_21
REMARK    6  A    between atoms: O_5  and  C_22
REMARK    7  A    between atoms: O_6  and  C_30
REMARK    8  A    between atoms: O_6  and  C_39
REMARK    9  A    between atoms: O_8  and  C_31
REMARK   10  A    between atoms: O_8  and  C_40
REMARK   11  A    between atoms: O_13  and  C_42
REMARK   12  A    between atoms: N_15  and  C_46
REMARK   13  A    between atoms: C_18  and  C_29
REMARK   14  A    between atoms: C_24  and  C_33
REMARK   15  A    between atoms: C_24  and  C_34
REMARK   16  A    between atoms: C_32  and  C_35
REMARK   17  A    between atoms: C_36  and  C_38
REMARK   18  A    between atoms: C_37  and  C_41
REMARK   19  A    between atoms: C_39  and  C_43
REMARK   20  A    between atoms: C_40  and  C_42
REMARK   21  A    between atoms: C_42  and  C_46
REMARK   22  A    between atoms: C_46  and  C_50
REMARK   23  A    between atoms: C_53  and  C_56
REMARK                            x       y       z     vdW  Elec       q    Type
REMARK                         _______ _______ _______ _____ _____    ______ ____
ROOT
ATOM      1  O   UNL     1      19.227  13.547 -16.948  0.00  0.00    +0.000 OA
ATOM      2  O   UNL     1      14.023  16.082 -13.640  0.00  0.00    +0.000 OA
ATOM      3  C   UNL     1      16.108  12.844 -15.676  0.00  0.00    +0.000 C 
ATOM      4  C   UNL     1      17.160  13.010 -16.812  0.00  0.00    +0.000 C 
ATOM      5  C   UNL     1      15.322  14.548 -15.395  0.00  0.00    +0.000 C 
ATOM      6  C   UNL     1      18.179  13.920 -16.012  0.00  0.00    +0.000 C 
ATOM      7  C   UNL     1      15.078  11.305 -15.899  0.00  0.00    +0.000 C 
ATOM      8  C   UNL     1      13.626  10.369 -15.123  0.00  0.00    +0.000 C 
ATOM      9  C   UNL     1      16.540  15.472 -14.975  0.00  0.00    +0.000 C 
ATOM     10  C   UNL     1      17.803  15.378 -15.885  0.00  0.00    +0.000 C 
ATOM     11  C   UNL     1      12.499  10.917 -13.868  0.00  0.00    +0.000 C 
ATOM     12  C   UNL     1      18.522  12.251 -17.063  0.00  0.00    +0.000 C 
ATOM     13  C   UNL     1      13.919  14.979 -14.218  0.00  0.00    +0.000 C 
ATOM     14  C   UNL     1      12.596  10.099 -16.314  0.00  0.00    +0.000 C 
ATOM     15  C   UNL     1      11.804  12.311 -14.258  0.00  0.00    +0.000 C 
ATOM     16  C   UNL     1      14.820  15.216 -16.743  0.00  0.00    +0.000 C 
ATOM     17  C   UNL     1      12.363  13.947 -13.765  0.00  0.00    +0.000 C 
ATOM     18  C   UNL     1      11.377  11.110 -16.506  0.00  0.00    +0.000 C 
ATOM     19  C   UNL     1      11.073  12.204 -15.418  0.00  0.00    +0.000 C 
ATOM     20  C   UNL     1      11.332   9.810 -13.792  0.00  0.00    +0.000 C 
ATOM     21  C   UNL     1      12.909  10.787 -12.366  0.00  0.00    +0.000 C 
ATOM     22  C   UNL     1      10.113  13.277 -15.871  0.00  0.00    +0.000 C 
ENDROOT
BRANCH   9  23
ATOM     23  O   UNL     1      16.953  15.125 -13.654  0.00  0.00    +0.000 OA
ATOM     24  H   UNL     1      17.776  14.604 -13.751  0.00  0.00    +0.000 HD
ENDBRANCH   9  23
BRANCH   8  25
ATOM     25  O   UNL     1      14.155   9.085 -14.739  0.00  0.00    +0.000 OA
ATOM     26  H   UNL     1      14.246   8.533 -15.535  0.00  0.00    +0.000 HD
ENDBRANCH   8  25
BRANCH  18  27
ATOM     27  O   UNL     1      11.577  11.823 -17.762  0.00  0.00    +0.000 OA
BRANCH  27  29
ATOM     28  O   UNL     1      10.700  10.202 -19.074  0.00  0.00    +0.000 OA
ATOM     29  C   UNL     1      10.861  11.393 -18.833  0.00  0.00    +0.000 C 
BRANCH  29  30
ATOM     30  C   UNL     1      10.418  12.506 -19.788  0.00  0.00    +0.000 C 
BRANCH  30  31
ATOM     31  O   UNL     1       9.613  13.534 -19.199  0.00  0.00    +0.000 OA
ATOM     32  H   UNL     1      10.031  13.748 -18.344  0.00  0.00    +0.000 HD
ENDBRANCH  30  31
BRANCH  30  33
ATOM     33  C   UNL     1       9.674  11.848 -20.983  0.00  0.00    +0.000 C 
BRANCH  33  34
ATOM     34  C   UNL     1      10.266  12.315 -22.306  0.00  0.00    +0.000 A 
ATOM     35  C   UNL     1      10.066  13.643 -22.721  0.00  0.00    +0.000 A 
ATOM     36  C   UNL     1      10.982  11.450 -23.147  0.00  0.00    +0.000 A 
ATOM     37  C   UNL     1      10.584  14.097 -23.934  0.00  0.00    +0.000 A 
ATOM     38  C   UNL     1      11.502  11.906 -24.360  0.00  0.00    +0.000 A 
ATOM     39  C   UNL     1      11.305  13.230 -24.752  0.00  0.00    +0.000 A 
ENDBRANCH  33  34
BRANCH  33  41
ATOM     40  O   UNL     1       6.070  11.556 -21.022  0.00  0.00    +0.000 OA
ATOM     41  N   UNL     1       8.237  12.142 -20.916  0.00  0.00    +0.000 N 
ATOM     42  C   UNL     1       7.195  11.481 -21.507  0.00  0.00    +0.000 C 
ATOM     43  H   UNL     1       7.958  12.723 -20.132  0.00  0.00    +0.000 HD
BRANCH  42  44
ATOM     44  C   UNL     1       7.422  10.637 -22.702  0.00  0.00    +0.000 A 
ATOM     45  C   UNL     1       7.793   9.294 -22.586  0.00  0.00    +0.000 A 
ATOM     46  C   UNL     1       7.328  11.229 -23.967  0.00  0.00    +0.000 A 
ATOM     47  C   UNL     1       8.009   8.531 -23.735  0.00  0.00    +0.000 A 
ATOM     48  C   UNL     1       7.546  10.466 -25.113  0.00  0.00    +0.000 A 
ATOM     49  C   UNL     1       7.878   9.115 -24.996  0.00  0.00    +0.000 A 
ENDBRANCH  42  44
ENDBRANCH  33  41
ENDBRANCH  30  33
ENDBRANCH  29  30
ENDBRANCH  27  29
ENDBRANCH  18  27
BRANCH  17  50
ATOM     50  O   UNL     1      12.058  13.997 -12.354  0.00  0.00    +0.000 OA
BRANCH  50  52
ATOM     51  O   UNL     1      10.896  14.820 -10.627  0.00  0.00    +0.000 OA
ATOM     52  C   UNL     1      11.186  14.881 -11.819  0.00  0.00    +0.000 C 
ATOM     53  C   UNL     1      10.529  15.864 -12.740  0.00  0.00    +0.000 C 
ENDBRANCH  50  52
ENDBRANCH  17  50
BRANCH   7  54
ATOM     54  O   UNL     1      14.209  12.087 -16.504  0.00  0.00    +0.000 OA
BRANCH  54  56
ATOM     55  O   UNL     1      15.226  10.587 -17.372  0.00  0.00    +0.000 OA
ATOM     56  C   UNL     1      14.525  11.531 -17.721  0.00  0.00    +0.000 C 
BRANCH  56  57
ATOM     57  C   UNL     1      14.161  12.358 -19.409  0.00  0.00    +0.000 A 
ATOM     58  C   UNL     1      13.665  13.720 -19.592  0.00  0.00    +0.000 A 
ATOM     59  C   UNL     1      14.438  11.836 -20.709  0.00  0.00    +0.000 A 
ATOM     60  C   UNL     1      13.488  14.411 -20.816  0.00  0.00    +0.000 A 
ATOM     61  C   UNL     1      14.265  12.513 -21.949  0.00  0.00    +0.000 A 
ATOM     62  C   UNL     1      13.793  13.803 -22.006  0.00  0.00    +0.000 A 
ENDBRANCH  56  57
ENDBRANCH  54  56
ENDBRANCH   7  54
BRANCH   4  63
ATOM     63  O   UNL     1      16.600  13.636 -17.991  0.00  0.00    +0.000 OA
BRANCH  63  65
ATOM     64  O   UNL     1      17.703  12.896 -19.790  0.00  0.00    +0.000 OA
ATOM     65  C   UNL     1      17.279  13.851 -19.141  0.00  0.00    +0.000 C 
ATOM     66  C   UNL     1      17.610  15.251 -19.547  0.00  0.00    +0.000 C 
ENDBRANCH  63  65
ENDBRANCH   4  63
TORSDOF 17
ENDMDL
MODEL 5
REMARK VINA RESULT:      -6.0      5.812      9.993
REMARK  Name = 
REMARK  23 active torsions:
REMARK  status: ('A' for Active; 'I' for Inactive)
REMARK    1  A    between atoms: O_2  and  C_17
REMARK    2  A    between atoms: O_2  and  C_36
REMARK    3  A    between atoms: O_3  and  C_20
REMARK    4  A    between atoms: O_3  and  C_37
REMARK    5  A    between atoms: O_4  and  C_21
REMARK    6  A    between atoms: O_5  and  C_22
REMARK    7  A    between atoms: O_6  and  C_30
REMARK    8  A    between atoms: O_6  and  C_39
REMARK    9  A    between atoms: O_8  and  C_31
REMARK   10  A    between atoms: O_8  and  C_40
REMARK   11  A    between atoms: O_13  and  C_42
REMARK   12  A    between atoms: N_15  and  C_46
REMARK   13  A    between atoms: C_18  and  C_29
REMARK   14  A    between atoms: C_24  and  C_33
REMARK   15  A    between atoms: C_24  and  C_34
REMARK   16  A    between atoms: C_32  and  C_35
REMARK   17  A    between atoms: C_36  and  C_38
REMARK   18  A    between atoms: C_37  and  C_41
REMARK   19  A    between atoms: C_39  and  C_43
REMARK   20  A    between atoms: C_40  and  C_42
REMARK   21  A    between atoms: C_42  and  C_46
REMARK   22  A    between atoms: C_46  and  C_50
REMARK   23  A    between atoms: C_53  and  C_56
REMARK                            x       y       z     vdW  Elec       q    Type
REMARK                         _______ _______ _______ _____ _____    ______ ____
ROOT
ATOM      1  O   UNL     1      -5.726  -1.188 -19.437  0.00  0.00    +0.000 OA
ATOM      2  O   UNL     1      -2.538  -3.441 -24.842  0.00  0.00    +0.000 OA
ATOM      3  C   UNL     1      -2.720  -2.371 -20.624  0.00  0.00    +0.000 C 
ATOM      4  C   UNL     1      -3.662  -1.303 -19.995  0.00  0.00    +0.000 C 
ATOM      5  C   UNL     1      -2.856  -2.189 -22.507  0.00  0.00    +0.000 C 
ATOM      6  C   UNL     1      -5.032  -1.936 -20.473  0.00  0.00    +0.000 C 
ATOM      7  C   UNL     1      -1.072  -2.445 -19.754  0.00  0.00    +0.000 C 
ATOM      8  C   UNL     1       0.608  -3.317 -19.834  0.00  0.00    +0.000 C 
ATOM      9  C   UNL     1      -4.388  -2.464 -22.813  0.00  0.00    +0.000 C 
ATOM     10  C   UNL     1      -5.403  -1.691 -21.918  0.00  0.00    +0.000 C 
ATOM     11  C   UNL     1       1.270  -4.327 -21.133  0.00  0.00    +0.000 C 
ATOM     12  C   UNL     1      -4.484  -1.332 -18.645  0.00  0.00    +0.000 C 
ATOM     13  C   UNL     1      -1.892  -3.133 -23.818  0.00  0.00    +0.000 C 
ATOM     14  C   UNL     1       1.703  -2.154 -19.809  0.00  0.00    +0.000 C 
ATOM     15  C   UNL     1       1.237  -3.574 -22.550  0.00  0.00    +0.000 C 
ATOM     16  C   UNL     1      -2.663  -0.691 -22.989  0.00  0.00    +0.000 C 
ATOM     17  C   UNL     1      -0.058  -3.707 -23.789  0.00  0.00    +0.000 C 
ATOM     18  C   UNL     1       2.302  -1.647 -21.198  0.00  0.00    +0.000 C 
ATOM     19  C   UNL     1       1.991  -2.424 -22.530  0.00  0.00    +0.000 C 
ATOM     20  C   UNL     1       2.817  -4.581 -20.765  0.00  0.00    +0.000 C 
ATOM     21  C   UNL     1       0.893  -5.843 -21.187  0.00  0.00    +0.000 C 
ATOM     22  C   UNL     1       2.347  -1.667 -23.785  0.00  0.00    +0.000 C 
ENDROOT
BRANCH   9  23
ATOM     23  O   UNL     1      -4.655  -3.855 -22.639  0.00  0.00    +0.000 OA
ATOM     24  H   UNL     1      -4.182  -4.127 -21.827  0.00  0.00    +0.000 HD
ENDBRANCH   9  23
BRANCH   8  25
ATOM     25  O   UNL     1       0.735  -4.027 -18.587  0.00  0.00    +0.000 OA
ATOM     26  H   UNL     1       0.882  -4.970 -18.778  0.00  0.00    +0.000 HD
ENDBRANCH   8  25
BRANCH  18  27
ATOM     27  O   UNL     1       1.853  -0.276 -21.407  0.00  0.00    +0.000 OA
BRANCH  27  29
ATOM     28  O   UNL     1       3.084   1.448 -22.204  0.00  0.00    +0.000 OA
ATOM     29  C   UNL     1       2.786   0.702 -21.277  0.00  0.00    +0.000 C 
BRANCH  29  30
ATOM     30  C   UNL     1       3.539   0.688 -19.943  0.00  0.00    +0.000 C 
BRANCH  30  31
ATOM     31  O   UNL     1       3.230   1.768 -19.054  0.00  0.00    +0.000 OA
ATOM     32  H   UNL     1       2.831   1.360 -18.262  0.00  0.00    +0.000 HD
ENDBRANCH  30  31
BRANCH  30  33
ATOM     33  C   UNL     1       5.062   0.652 -20.248  0.00  0.00    +0.000 C 
BRANCH  33  34
ATOM     34  C   UNL     1       5.523  -0.774 -20.510  0.00  0.00    +0.000 A 
ATOM     35  C   UNL     1       5.884  -1.154 -21.815  0.00  0.00    +0.000 A 
ATOM     36  C   UNL     1       5.570  -1.741 -19.493  0.00  0.00    +0.000 A 
ATOM     37  C   UNL     1       6.299  -2.458 -22.089  0.00  0.00    +0.000 A 
ATOM     38  C   UNL     1       5.987  -3.044 -19.769  0.00  0.00    +0.000 A 
ATOM     39  C   UNL     1       6.353  -3.402 -21.066  0.00  0.00    +0.000 A 
ENDBRANCH  33  34
BRANCH  33  41
ATOM     40  O   UNL     1       7.386   2.638 -18.316  0.00  0.00    +0.000 OA
ATOM     41  N   UNL     1       5.820   1.256 -19.144  0.00  0.00    +0.000 N 
ATOM     42  C   UNL     1       7.074   1.803 -19.159  0.00  0.00    +0.000 C 
ATOM     43  H   UNL     1       5.256   1.552 -18.354  0.00  0.00    +0.000 HD
BRANCH  42  44
ATOM     44  C   UNL     1       8.044   1.428 -20.213  0.00  0.00    +0.000 A 
ATOM     45  C   UNL     1       8.882   0.318 -20.072  0.00  0.00    +0.000 A 
ATOM     46  C   UNL     1       8.162   2.255 -21.337  0.00  0.00    +0.000 A 
ATOM     47  C   UNL     1       9.791   0.001 -21.083  0.00  0.00    +0.000 A 
ATOM     48  C   UNL     1       9.073   1.938 -22.343  0.00  0.00    +0.000 A 
ATOM     49  C   UNL     1       9.880   0.806 -22.219  0.00  0.00    +0.000 A 
ENDBRANCH  42  44
ENDBRANCH  33  41
ENDBRANCH  30  33
ENDBRANCH  29  30
ENDBRANCH  27  29
ENDBRANCH  18  27
BRANCH  17  50
ATOM     50  O   UNL     1       0.111  -5.042 -24.313  0.00  0.00    +0.000 OA
BRANCH  50  52
ATOM     51  O   UNL     1      -0.179  -5.473 -26.491  0.00  0.00    +0.000 OA
ATOM     52  C   UNL     1       0.592  -5.293 -25.552  0.00  0.00    +0.000 C 
ATOM     53  C   UNL     1       2.076  -5.432 -25.714  0.00  0.00    +0.000 C 
ENDBRANCH  50  52
ENDBRANCH  17  50
BRANCH   7  54
ATOM     54  O   UNL     1      -0.649  -1.615 -20.684  0.00  0.00    +0.000 OA
BRANCH  54  56
ATOM     55  O   UNL     1      -0.864  -1.179 -18.735  0.00  0.00    +0.000 OA
ATOM     56  C   UNL     1      -0.622  -0.581 -19.778  0.00  0.00    +0.000 C 
BRANCH  56  57
ATOM     57  C   UNL     1      -0.555   1.270 -20.260  0.00  0.00    +0.000 A 
ATOM     58  C   UNL     1      -0.748   1.799 -21.609  0.00  0.00    +0.000 A 
ATOM     59  C   UNL     1      -0.446   2.392 -19.384  0.00  0.00    +0.000 A 
ATOM     60  C   UNL     1      -0.819   3.161 -21.994  0.00  0.00    +0.000 A 
ATOM     61  C   UNL     1      -0.513   3.766 -19.751  0.00  0.00    +0.000 A 
ATOM     62  C   UNL     1      -0.703   4.154 -21.056  0.00  0.00    +0.000 A 
ENDBRANCH  56  57
ENDBRANCH  54  56
ENDBRANCH   7  54
BRANCH   4  63
ATOM     63  O   UNL     1      -3.407   0.025 -20.508  0.00  0.00    +0.000 OA
BRANCH  63  65
ATOM     64  O   UNL     1      -3.745   1.496 -18.858  0.00  0.00    +0.000 OA
ATOM     65  C   UNL     1      -3.964   1.157 -20.020  0.00  0.00    +0.000 C 
ATOM     66  C   UNL     1      -4.936   1.920 -20.862  0.00  0.00    +0.000 C 
ENDBRANCH  63  65
ENDBRANCH   4  63
TORSDOF 17
ENDMDL
MODEL 6
REMARK VINA RESULT:      -6.0      2.657      6.247
REMARK  Name = 
REMARK  23 active torsions:
REMARK  status: ('A' for Active; 'I' for Inactive)
REMARK    1  A    between atoms: O_2  and  C_17
REMARK    2  A    between atoms: O_2  and  C_36
REMARK    3  A    between atoms: O_3  and  C_20
REMARK    4  A    between atoms: O_3  and  C_37
REMARK    5  A    between atoms: O_4  and  C_21
REMARK    6  A    between atoms: O_5  and  C_22
REMARK    7  A    between atoms: O_6  and  C_30
REMARK    8  A    between atoms: O_6  and  C_39
REMARK    9  A    between atoms: O_8  and  C_31
REMARK   10  A    between atoms: O_8  and  C_40
REMARK   11  A    between atoms: O_13  and  C_42
REMARK   12  A    between atoms: N_15  and  C_46
REMARK   13  A    between atoms: C_18  and  C_29
REMARK   14  A    between atoms: C_24  and  C_33
REMARK   15  A    between atoms: C_24  and  C_34
REMARK   16  A    between atoms: C_32  and  C_35
REMARK   17  A    between atoms: C_36  and  C_38
REMARK   18  A    between atoms: C_37  and  C_41
REMARK   19  A    between atoms: C_39  and  C_43
REMARK   20  A    between atoms: C_40  and  C_42
REMARK   21  A    between atoms: C_42  and  C_46
REMARK   22  A    between atoms: C_46  and  C_50
REMARK   23  A    between atoms: C_53  and  C_56
REMARK                            x       y       z     vdW  Elec       q    Type
REMARK                         _______ _______ _______ _____ _____    ______ ____
ROOT
ATOM      1  O   UNL     1      -9.874  -4.124 -19.011  0.00  0.00    +0.000 OA
ATOM      2  O   UNL     1      -9.358  -4.025 -25.658  0.00  0.00    +0.000 OA
ATOM      3  C   UNL     1      -7.789  -3.381 -21.645  0.00  0.00    +0.000 C 
ATOM      4  C   UNL     1      -8.632  -3.045 -20.380  0.00  0.00    +0.000 C 
ATOM      5  C   UNL     1      -8.951  -3.244 -23.138  0.00  0.00    +0.000 C 
ATOM      6  C   UNL     1      -9.570  -4.320 -20.419  0.00  0.00    +0.000 C 
ATOM      7  C   UNL     1      -6.120  -2.549 -21.612  0.00  0.00    +0.000 C 
ATOM      8  C   UNL     1      -4.553  -2.328 -22.652  0.00  0.00    +0.000 C 
ATOM      9  C   UNL     1     -10.081  -4.318 -22.850  0.00  0.00    +0.000 C 
ATOM     10  C   UNL     1     -10.702  -4.277 -21.420  0.00  0.00    +0.000 C 
ATOM     11  C   UNL     1      -4.286  -2.751 -24.354  0.00  0.00    +0.000 C 
ATOM     12  C   UNL     1      -8.505  -3.574 -18.897  0.00  0.00    +0.000 C 
ATOM     13  C   UNL     1      -8.505  -3.441 -24.955  0.00  0.00    +0.000 C 
ATOM     14  C   UNL     1      -4.294  -0.753 -22.720  0.00  0.00    +0.000 C 
ATOM     15  C   UNL     1      -5.397  -2.099 -25.313  0.00  0.00    +0.000 C 
ATOM     16  C   UNL     1      -9.758  -1.879 -23.158  0.00  0.00    +0.000 C 
ATOM     17  C   UNL     1      -6.909  -2.892 -25.874  0.00  0.00    +0.000 C 
ATOM     18  C   UNL     1      -4.823   0.049 -23.994  0.00  0.00    +0.000 C 
ATOM     19  C   UNL     1      -5.379  -0.725 -25.246  0.00  0.00    +0.000 C 
ATOM     20  C   UNL     1      -2.868  -2.107 -24.764  0.00  0.00    +0.000 C 
ATOM     21  C   UNL     1      -3.882  -4.215 -24.722  0.00  0.00    +0.000 C 
ATOM     22  C   UNL     1      -6.128   0.143 -26.226  0.00  0.00    +0.000 C 
ENDROOT
BRANCH   9  23
ATOM     23  O   UNL     1      -9.537  -5.626 -23.029  0.00  0.00    +0.000 OA
ATOM     24  H   UNL     1      -9.187  -5.899 -22.157  0.00  0.00    +0.000 HD
ENDBRANCH   9  23
BRANCH   8  25
ATOM     25  O   UNL     1      -3.484  -2.887 -21.866  0.00  0.00    +0.000 OA
ATOM     26  H   UNL     1      -2.777  -3.185 -22.465  0.00  0.00    +0.000 HD
ENDBRANCH   8  25
BRANCH  18  27
ATOM     27  O   UNL     1      -5.889   0.940 -23.554  0.00  0.00    +0.000 OA
BRANCH  27  29
ATOM     28  O   UNL     1      -4.811   2.753 -24.371  0.00  0.00    +0.000 OA
ATOM     29  C   UNL     1      -5.634   2.273 -23.600  0.00  0.00    +0.000 C 
BRANCH  29  30
ATOM     30  C   UNL     1      -6.333   3.090 -22.509  0.00  0.00    +0.000 C 
BRANCH  30  31
ATOM     31  O   UNL     1      -5.928   2.795 -21.167  0.00  0.00    +0.000 OA
ATOM     32  H   UNL     1      -5.070   2.335 -21.239  0.00  0.00    +0.000 HD
ENDBRANCH  30  31
BRANCH  30  33
ATOM     33  C   UNL     1      -7.866   2.899 -22.670  0.00  0.00    +0.000 C 
BRANCH  33  34
ATOM     34  C   UNL     1      -8.325   3.373 -24.042  0.00  0.00    +0.000 A 
ATOM     35  C   UNL     1      -8.294   4.746 -24.344  0.00  0.00    +0.000 A 
ATOM     36  C   UNL     1      -8.813   2.484 -25.013  0.00  0.00    +0.000 A 
ATOM     37  C   UNL     1      -8.721   5.212 -25.588  0.00  0.00    +0.000 A 
ATOM     38  C   UNL     1      -9.237   2.952 -26.257  0.00  0.00    +0.000 A 
ATOM     39  C   UNL     1      -9.190   4.315 -26.545  0.00  0.00    +0.000 A 
ENDBRANCH  33  34
BRANCH  33  41
ATOM     40  O   UNL     1     -10.184   3.753 -20.029  0.00  0.00    +0.000 OA
ATOM     41  N   UNL     1      -8.586   3.604 -21.601  0.00  0.00    +0.000 N 
ATOM     42  C   UNL     1      -9.874   3.433 -21.172  0.00  0.00    +0.000 C 
ATOM     43  H   UNL     1      -7.990   4.072 -20.926  0.00  0.00    +0.000 HD
BRANCH  42  44
ATOM     44  C   UNL     1     -10.886   2.819 -22.061  0.00  0.00    +0.000 A 
ATOM     45  C   UNL     1     -11.068   1.434 -22.113  0.00  0.00    +0.000 A 
ATOM     46  C   UNL     1     -11.619   3.653 -22.914  0.00  0.00    +0.000 A 
ATOM     47  C   UNL     1     -12.026   0.891 -22.971  0.00  0.00    +0.000 A 
ATOM     48  C   UNL     1     -12.573   3.107 -23.772  0.00  0.00    +0.000 A 
ATOM     49  C   UNL     1     -12.782   1.727 -23.793  0.00  0.00    +0.000 A 
ENDBRANCH  42  44
ENDBRANCH  33  41
ENDBRANCH  30  33
ENDBRANCH  29  30
ENDBRANCH  27  29
ENDBRANCH  18  27
BRANCH  17  50
ATOM     50  O   UNL     1      -6.441  -3.885 -26.812  0.00  0.00    +0.000 OA
BRANCH  50  52
ATOM     51  O   UNL     1      -7.559  -4.586 -28.620  0.00  0.00    +0.000 OA
ATOM     52  C   UNL     1      -6.716  -3.837 -28.135  0.00  0.00    +0.000 C 
ATOM     53  C   UNL     1      -5.900  -2.913 -28.988  0.00  0.00    +0.000 C 
ENDBRANCH  50  52
ENDBRANCH  17  50
BRANCH   7  54
ATOM     54  O   UNL     1      -6.686  -1.594 -22.319  0.00  0.00    +0.000 OA
BRANCH  54  56
ATOM     55  O   UNL     1      -7.581   0.044 -21.574  0.00  0.00    +0.000 OA
ATOM     56  C   UNL     1      -6.752  -0.783 -21.210  0.00  0.00    +0.000 C 
BRANCH  56  57
ATOM     57  C   UNL     1      -5.539  -0.882 -19.733  0.00  0.00    +0.000 A 
ATOM     58  C   UNL     1      -4.560   0.142 -19.374  0.00  0.00    +0.000 A 
ATOM     59  C   UNL     1      -5.497  -1.876 -18.708  0.00  0.00    +0.000 A 
ATOM     60  C   UNL     1      -3.723   0.165 -18.231  0.00  0.00    +0.000 A 
ATOM     61  C   UNL     1      -4.663  -1.872 -17.554  0.00  0.00    +0.000 A 
ATOM     62  C   UNL     1      -3.777  -0.850 -17.311  0.00  0.00    +0.000 A 
ENDBRANCH  56  57
ENDBRANCH  54  56
ENDBRANCH   7  54
BRANCH   4  63
ATOM     63  O   UNL     1      -9.332  -1.785 -20.506  0.00  0.00    +0.000 OA
BRANCH  63  65
ATOM     64  O   UNL     1      -9.359  -0.742 -18.528  0.00  0.00    +0.000 OA
ATOM     65  C   UNL     1      -9.987  -1.168 -19.496  0.00  0.00    +0.000 C 
ATOM     66  C   UNL     1     -11.481  -1.115 -19.513  0.00  0.00    +0.000 C 
ENDBRANCH  63  65
ENDBRANCH   4  63
TORSDOF 17
ENDMDL
MODEL 7
REMARK VINA RESULT:      -5.9      3.863      6.661
REMARK  Name = 
REMARK  23 active torsions:
REMARK  status: ('A' for Active; 'I' for Inactive)
REMARK    1  A    between atoms: O_2  and  C_17
REMARK    2  A    between atoms: O_2  and  C_36
REMARK    3  A    between atoms: O_3  and  C_20
REMARK    4  A    between atoms: O_3  and  C_37
REMARK    5  A    between atoms: O_4  and  C_21
REMARK    6  A    between atoms: O_5  and  C_22
REMARK    7  A    between atoms: O_6  and  C_30
REMARK    8  A    between atoms: O_6  and  C_39
REMARK    9  A    between atoms: O_8  and  C_31
REMARK   10  A    between atoms: O_8  and  C_40
REMARK   11  A    between atoms: O_13  and  C_42
REMARK   12  A    between atoms: N_15  and  C_46
REMARK   13  A    between atoms: C_18  and  C_29
REMARK   14  A    between atoms: C_24  and  C_33
REMARK   15  A    between atoms: C_24  and  C_34
REMARK   16  A    between atoms: C_32  and  C_35
REMARK   17  A    between atoms: C_36  and  C_38
REMARK   18  A    between atoms: C_37  and  C_41
REMARK   19  A    between atoms: C_39  and  C_43
REMARK   20  A    between atoms: C_40  and  C_42
REMARK   21  A    between atoms: C_42  and  C_46
REMARK   22  A    between atoms: C_46  and  C_50
REMARK   23  A    between atoms: C_53  and  C_56
REMARK                            x       y       z     vdW  Elec       q    Type
REMARK                         _______ _______ _______ _____ _____    ______ ____
ROOT
ATOM      1  O   UNL     1      -8.036  -2.040 -23.234  0.00  0.00    +0.000 OA
ATOM      2  O   UNL     1      -5.437   3.992 -24.378  0.00  0.00    +0.000 OA
ATOM      3  C   UNL     1      -5.109  -0.306 -23.750  0.00  0.00    +0.000 C 
ATOM      4  C   UNL     1      -6.098  -1.185 -22.929  0.00  0.00    +0.000 C 
ATOM      5  C   UNL     1      -5.573   1.504 -23.423  0.00  0.00    +0.000 C 
ATOM      6  C   UNL     1      -7.407  -0.834 -23.749  0.00  0.00    +0.000 C 
ATOM      7  C   UNL     1      -3.353  -0.917 -23.611  0.00  0.00    +0.000 C 
ATOM      8  C   UNL     1      -1.589  -0.497 -24.160  0.00  0.00    +0.000 C 
ATOM      9  C   UNL     1      -7.070   1.619 -23.936  0.00  0.00    +0.000 C 
ATOM     10  C   UNL     1      -8.039   0.503 -23.441  0.00  0.00    +0.000 C 
ATOM     11  C   UNL     1      -0.990   0.993 -24.913  0.00  0.00    +0.000 C 
ATOM     12  C   UNL     1      -6.676  -2.624 -23.228  0.00  0.00    +0.000 C 
ATOM     13  C   UNL     1      -4.692   3.041 -24.056  0.00  0.00    +0.000 C 
ATOM     14  C   UNL     1      -0.706  -0.502 -22.829  0.00  0.00    +0.000 C 
ATOM     15  C   UNL     1      -1.371   2.293 -24.051  0.00  0.00    +0.000 C 
ATOM     16  C   UNL     1      -5.704   1.828 -21.877  0.00  0.00    +0.000 C 
ATOM     17  C   UNL     1      -2.810   3.342 -24.296  0.00  0.00    +0.000 C 
ATOM     18  C   UNL     1      -0.427   0.888 -22.098  0.00  0.00    +0.000 C 
ATOM     19  C   UNL     1      -0.819   2.244 -22.792  0.00  0.00    +0.000 C 
ATOM     20  C   UNL     1       0.617   0.883 -24.921  0.00  0.00    +0.000 C 
ATOM     21  C   UNL     1      -1.122   1.172 -26.460  0.00  0.00    +0.000 C 
ATOM     22  C   UNL     1      -0.796   3.439 -21.871  0.00  0.00    +0.000 C 
ENDROOT
BRANCH   9  23
ATOM     23  O   UNL     1      -7.078   1.574 -25.362  0.00  0.00    +0.000 OA
ATOM     24  H   UNL     1      -6.767   0.681 -25.611  0.00  0.00    +0.000 HD
ENDBRANCH   9  23
BRANCH   8  25
ATOM     25  O   UNL     1      -1.151  -1.620 -24.948  0.00  0.00    +0.000 OA
ATOM     26  H   UNL     1      -0.179  -1.617 -24.985  0.00  0.00    +0.000 HD
ENDBRANCH   8  25
BRANCH  18  27
ATOM     27  O   UNL     1      -1.119   0.868 -20.815  0.00  0.00    +0.000 OA
BRANCH  27  29
ATOM     28  O   UNL     1       0.219   1.852 -19.278  0.00  0.00    +0.000 OA
ATOM     29  C   UNL     1      -0.344   0.848 -19.700  0.00  0.00    +0.000 C 
BRANCH  29  30
ATOM     30  C   UNL     1      -0.106  -0.549 -19.117  0.00  0.00    +0.000 C 
BRANCH  30  31
ATOM     31  O   UNL     1      -0.585  -0.745 -17.782  0.00  0.00    +0.000 OA
ATOM     32  H   UNL     1      -1.203  -1.499 -17.824  0.00  0.00    +0.000 HD
ENDBRANCH  30  31
BRANCH  30  33
ATOM     33  C   UNL     1       1.415  -0.854 -19.201  0.00  0.00    +0.000 C 
BRANCH  33  34
ATOM     34  C   UNL     1       1.652  -2.266 -19.718  0.00  0.00    +0.000 A 
ATOM     35  C   UNL     1       2.088  -2.453 -21.041  0.00  0.00    +0.000 A 
ATOM     36  C   UNL     1       1.418  -3.399 -18.922  0.00  0.00    +0.000 A 
ATOM     37  C   UNL     1       2.301  -3.736 -21.547  0.00  0.00    +0.000 A 
ATOM     38  C   UNL     1       1.633  -4.681 -19.430  0.00  0.00    +0.000 A 
ATOM     39  C   UNL     1       2.077  -4.849 -20.741  0.00  0.00    +0.000 A 
ENDBRANCH  33  34
BRANCH  33  41
ATOM     40  O   UNL     1       3.687   0.108 -16.556  0.00  0.00    +0.000 OA
ATOM     41  N   UNL     1       2.050  -0.660 -17.891  0.00  0.00    +0.000 N 
ATOM     42  C   UNL     1       3.371  -0.467 -17.594  0.00  0.00    +0.000 C 
ATOM     43  H   UNL     1       1.419  -0.360 -17.154  0.00  0.00    +0.000 HD
BRANCH  42  44
ATOM     44  C   UNL     1       4.424  -0.905 -18.538  0.00  0.00    +0.000 A 
ATOM     45  C   UNL     1       4.957  -0.033 -19.492  0.00  0.00    +0.000 A 
ATOM     46  C   UNL     1       4.834  -2.243 -18.508  0.00  0.00    +0.000 A 
ATOM     47  C   UNL     1       5.941  -0.484 -20.373  0.00  0.00    +0.000 A 
ATOM     48  C   UNL     1       5.816  -2.692 -19.391  0.00  0.00    +0.000 A 
ATOM     49  C   UNL     1       6.375  -1.809 -20.316  0.00  0.00    +0.000 A 
ENDBRANCH  42  44
ENDBRANCH  33  41
ENDBRANCH  30  33
ENDBRANCH  29  30
ENDBRANCH  27  29
ENDBRANCH  18  27
BRANCH  17  50
ATOM     50  O   UNL     1      -2.514   4.039 -25.526  0.00  0.00    +0.000 OA
BRANCH  50  52
ATOM     51  O   UNL     1      -3.080   6.160 -25.963  0.00  0.00    +0.000 OA
ATOM     52  C   UNL     1      -2.232   5.360 -25.576  0.00  0.00    +0.000 C 
ATOM     53  C   UNL     1      -0.838   5.794 -25.233  0.00  0.00    +0.000 C 
ENDBRANCH  50  52
ENDBRANCH  17  50
BRANCH   7  54
ATOM     54  O   UNL     1      -3.224  -0.041 -22.637  0.00  0.00    +0.000 OA
BRANCH  54  56
ATOM     55  O   UNL     1      -3.130  -2.037 -22.426  0.00  0.00    +0.000 OA
ATOM     56  C   UNL     1      -3.217  -1.050 -21.703  0.00  0.00    +0.000 C 
BRANCH  56  57
ATOM     57  C   UNL     1      -3.603  -0.798 -19.845  0.00  0.00    +0.000 A 
ATOM     58  C   UNL     1      -3.635  -1.857 -18.838  0.00  0.00    +0.000 A 
ATOM     59  C   UNL     1      -3.781   0.439 -19.155  0.00  0.00    +0.000 A 
ATOM     60  C   UNL     1      -3.804  -1.705 -17.439  0.00  0.00    +0.000 A 
ATOM     61  C   UNL     1      -3.954   0.612 -17.752  0.00  0.00    +0.000 A 
ATOM     62  C   UNL     1      -3.962  -0.459 -16.891  0.00  0.00    +0.000 A 
ENDBRANCH  56  57
ENDBRANCH  54  56
ENDBRANCH   7  54
BRANCH   4  63
ATOM     63  O   UNL     1      -6.146  -0.801 -21.535  0.00  0.00    +0.000 OA
BRANCH  63  65
ATOM     64  O   UNL     1      -7.892  -0.748 -20.140  0.00  0.00    +0.000 OA
ATOM     65  C   UNL     1      -6.945  -1.376 -20.608  0.00  0.00    +0.000 C 
ATOM     66  C   UNL     1      -6.595  -2.729 -20.076  0.00  0.00    +0.000 C 
ENDBRANCH  63  65
ENDBRANCH   4  63
TORSDOF 17
ENDMDL
MODEL 8
REMARK VINA RESULT:      -5.8      5.987     12.026
REMARK  Name = 
REMARK  23 active torsions:
REMARK  status: ('A' for Active; 'I' for Inactive)
REMARK    1  A    between atoms: O_2  and  C_17
REMARK    2  A    between atoms: O_2  and  C_36
REMARK    3  A    between atoms: O_3  and  C_20
REMARK    4  A    between atoms: O_3  and  C_37
REMARK    5  A    between atoms: O_4  and  C_21
REMARK    6  A    between atoms: O_5  and  C_22
REMARK    7  A    between atoms: O_6  and  C_30
REMARK    8  A    between atoms: O_6  and  C_39
REMARK    9  A    between atoms: O_8  and  C_31
REMARK   10  A    between atoms: O_8  and  C_40
REMARK   11  A    between atoms: O_13  and  C_42
REMARK   12  A    between atoms: N_15  and  C_46
REMARK   13  A    between atoms: C_18  and  C_29
REMARK   14  A    between atoms: C_24  and  C_33
REMARK   15  A    between atoms: C_24  and  C_34
REMARK   16  A    between atoms: C_32  and  C_35
REMARK   17  A    between atoms: C_36  and  C_38
REMARK   18  A    between atoms: C_37  and  C_41
REMARK   19  A    between atoms: C_39  and  C_43
REMARK   20  A    between atoms: C_40  and  C_42
REMARK   21  A    between atoms: C_42  and  C_46
REMARK   22  A    between atoms: C_46  and  C_50
REMARK   23  A    between atoms: C_53  and  C_56
REMARK                            x       y       z     vdW  Elec       q    Type
REMARK                         _______ _______ _______ _____ _____    ______ ____
ROOT
ATOM      1  O   UNL     1       4.767  -1.115 -27.698  0.00  0.00    +0.000 OA
ATOM      2  O   UNL     1       6.661   2.449 -22.391  0.00  0.00    +0.000 OA
ATOM      3  C   UNL     1       4.825  -1.032 -24.259  0.00  0.00    +0.000 C 
ATOM      4  C   UNL     1       4.135  -1.059 -25.654  0.00  0.00    +0.000 C 
ATOM      5  C   UNL     1       5.155   0.789 -23.839  0.00  0.00    +0.000 C 
ATOM      6  C   UNL     1       5.373  -0.555 -26.501  0.00  0.00    +0.000 C 
ATOM      7  C   UNL     1       4.002  -2.191 -23.051  0.00  0.00    +0.000 C 
ATOM      8  C   UNL     1       4.086  -2.752 -21.244  0.00  0.00    +0.000 C 
ATOM      9  C   UNL     1       6.107   1.288 -25.006  0.00  0.00    +0.000 C 
ATOM     10  C   UNL     1       5.646   0.932 -26.452  0.00  0.00    +0.000 C 
ATOM     11  C   UNL     1       4.997  -2.033 -19.903  0.00  0.00    +0.000 C 
ATOM     12  C   UNL     1       4.193  -2.143 -26.802  0.00  0.00    +0.000 C 
ATOM     13  C   UNL     1       5.884   1.481 -22.249  0.00  0.00    +0.000 C 
ATOM     14  C   UNL     1       2.601  -2.605 -20.673  0.00  0.00    +0.000 C 
ATOM     15  C   UNL     1       4.675  -0.469 -19.734  0.00  0.00    +0.000 C 
ATOM     16  C   UNL     1       3.869   1.698 -24.020  0.00  0.00    +0.000 C 
ATOM     17  C   UNL     1       5.617   0.888 -20.441  0.00  0.00    +0.000 C 
ATOM     18  C   UNL     1       2.224  -1.279 -19.871  0.00  0.00    +0.000 C 
ATOM     19  C   UNL     1       3.344  -0.253 -19.460  0.00  0.00    +0.000 C 
ATOM     20  C   UNL     1       4.489  -2.770 -18.564  0.00  0.00    +0.000 C 
ATOM     21  C   UNL     1       6.499  -2.417 -19.709  0.00  0.00    +0.000 C 
ATOM     22  C   UNL     1       2.819   1.084 -18.999  0.00  0.00    +0.000 C 
ENDROOT
BRANCH   9  23
ATOM     23  O   UNL     1       7.401   0.714 -24.829  0.00  0.00    +0.000 OA
ATOM     24  H   UNL     1       7.740   1.055 -23.977  0.00  0.00    +0.000 HD
ENDBRANCH   9  23
BRANCH   8  25
ATOM     25  O   UNL     1       4.370  -4.163 -21.290  0.00  0.00    +0.000 OA
ATOM     26  H   UNL     1       4.611  -4.405 -22.202  0.00  0.00    +0.000 HD
ENDBRANCH   8  25
BRANCH  18  27
ATOM     27  O   UNL     1       1.255  -0.533 -20.664  0.00  0.00    +0.000 OA
BRANCH  27  29
ATOM     28  O   UNL     1      -0.843  -1.320 -20.985  0.00  0.00    +0.000 OA
ATOM     29  C   UNL     1      -0.052  -0.663 -20.317  0.00  0.00    +0.000 C 
BRANCH  29  30
ATOM     30  C   UNL     1      -0.481   0.203 -19.128  0.00  0.00    +0.000 C 
BRANCH  30  31
ATOM     31  O   UNL     1      -0.457  -0.451 -17.854  0.00  0.00    +0.000 OA
ATOM     32  H   UNL     1      -0.906  -1.308 -17.982  0.00  0.00    +0.000 HD
ENDBRANCH  30  31
BRANCH  30  33
ATOM     33  C   UNL     1      -1.899   0.763 -19.426  0.00  0.00    +0.000 C 
BRANCH  33  34
ATOM     34  C   UNL     1      -1.810   2.033 -20.261  0.00  0.00    +0.000 A 
ATOM     35  C   UNL     1      -0.712   2.894 -20.093  0.00  0.00    +0.000 A 
ATOM     36  C   UNL     1      -2.811   2.393 -21.177  0.00  0.00    +0.000 A 
ATOM     37  C   UNL     1      -0.609   4.072 -20.835  0.00  0.00    +0.000 A 
ATOM     38  C   UNL     1      -2.705   3.571 -21.919  0.00  0.00    +0.000 A 
ATOM     39  C   UNL     1      -1.604   4.408 -21.750  0.00  0.00    +0.000 A 
ENDBRANCH  33  34
BRANCH  33  41
ATOM     40  O   UNL     1      -3.816   0.333 -16.390  0.00  0.00    +0.000 OA
ATOM     41  N   UNL     1      -2.628   1.006 -18.175  0.00  0.00    +0.000 N 
ATOM     42  C   UNL     1      -3.625   0.265 -17.600  0.00  0.00    +0.000 C 
ATOM     43  H   UNL     1      -2.161   1.633 -17.527  0.00  0.00    +0.000 HD
BRANCH  42  44
ATOM     44  C   UNL     1      -4.444  -0.656 -18.420  0.00  0.00    +0.000 A 
ATOM     45  C   UNL     1      -4.600  -2.001 -18.071  0.00  0.00    +0.000 A 
ATOM     46  C   UNL     1      -5.009  -0.171 -19.606  0.00  0.00    +0.000 A 
ATOM     47  C   UNL     1      -5.371  -2.842 -18.875  0.00  0.00    +0.000 A 
ATOM     48  C   UNL     1      -5.777  -1.015 -20.408  0.00  0.00    +0.000 A 
ATOM     49  C   UNL     1      -5.965  -2.347 -20.036  0.00  0.00    +0.000 A 
ENDBRANCH  42  44
ENDBRANCH  33  41
ENDBRANCH  30  33
ENDBRANCH  29  30
ENDBRANCH  27  29
ENDBRANCH  18  27
BRANCH  17  50
ATOM     50  O   UNL     1       6.841   0.886 -19.674  0.00  0.00    +0.000 OA
BRANCH  50  52
ATOM     51  O   UNL     1       6.513   2.913 -18.783  0.00  0.00    +0.000 OA
ATOM     52  C   UNL     1       7.192   1.892 -18.842  0.00  0.00    +0.000 C 
ATOM     53  C   UNL     1       8.472   1.752 -18.074  0.00  0.00    +0.000 C 
ENDBRANCH  50  52
ENDBRANCH  17  50
BRANCH   7  54
ATOM     54  O   UNL     1       3.310  -1.142 -22.660  0.00  0.00    +0.000 OA
BRANCH  54  56
ATOM     55  O   UNL     1       2.556  -2.757 -23.587  0.00  0.00    +0.000 OA
ATOM     56  C   UNL     1       2.180  -1.633 -23.271  0.00  0.00    +0.000 C 
BRANCH  56  57
ATOM     57  C   UNL     1       0.652  -0.572 -23.720  0.00  0.00    +0.000 A 
ATOM     58  C   UNL     1       0.586   0.886 -23.648  0.00  0.00    +0.000 A 
ATOM     59  C   UNL     1      -0.572  -1.017 -24.305  0.00  0.00    +0.000 A 
ATOM     60  C   UNL     1      -0.479   1.718 -24.074  0.00  0.00    +0.000 A 
ATOM     61  C   UNL     1      -1.653  -0.197 -24.738  0.00  0.00    +0.000 A 
ATOM     62  C   UNL     1      -1.608   1.172 -24.626  0.00  0.00    +0.000 A 
ENDBRANCH  56  57
ENDBRANCH  54  56
ENDBRANCH   7  54
BRANCH   4  63
ATOM     63  O   UNL     1       2.979  -0.191 -25.712  0.00  0.00    +0.000 OA
BRANCH  63  65
ATOM     64  O   UNL     1       2.276   1.110 -27.389  0.00  0.00    +0.000 OA
ATOM     65  C   UNL     1       2.233   0.021 -26.820  0.00  0.00    +0.000 C 
ATOM     66  C   UNL     1       1.275  -1.034 -27.273  0.00  0.00    +0.000 C 
ENDBRANCH  63  65
ENDBRANCH   4  63
TORSDOF 17
ENDMDL
MODEL 9
REMARK VINA RESULT:      -5.8      2.730      5.663
REMARK  Name = 
REMARK  23 active torsions:
REMARK  status: ('A' for Active; 'I' for Inactive)
REMARK    1  A    between atoms: O_2  and  C_17
REMARK    2  A    between atoms: O_2  and  C_36
REMARK    3  A    between atoms: O_3  and  C_20
REMARK    4  A    between atoms: O_3  and  C_37
REMARK    5  A    between atoms: O_4  and  C_21
REMARK    6  A    between atoms: O_5  and  C_22
REMARK    7  A    between atoms: O_6  and  C_30
REMARK    8  A    between atoms: O_6  and  C_39
REMARK    9  A    between atoms: O_8  and  C_31
REMARK   10  A    between atoms: O_8  and  C_40
REMARK   11  A    between atoms: O_13  and  C_42
REMARK   12  A    between atoms: N_15  and  C_46
REMARK   13  A    between atoms: C_18  and  C_29
REMARK   14  A    between atoms: C_24  and  C_33
REMARK   15  A    between atoms: C_24  and  C_34
REMARK   16  A    between atoms: C_32  and  C_35
REMARK   17  A    between atoms: C_36  and  C_38
REMARK   18  A    between atoms: C_37  and  C_41
REMARK   19  A    between atoms: C_39  and  C_43
REMARK   20  A    between atoms: C_40  and  C_42
REMARK   21  A    between atoms: C_42  and  C_46
REMARK   22  A    between atoms: C_46  and  C_50
REMARK   23  A    between atoms: C_53  and  C_56
REMARK                            x       y       z     vdW  Elec       q    Type
REMARK                         _______ _______ _______ _____ _____    ______ ____
ROOT
ATOM      1  O   UNL     1      -9.911  -3.774 -19.175  0.00  0.00    +0.000 OA
ATOM      2  O   UNL     1      -9.019  -4.374 -25.755  0.00  0.00    +0.000 OA
ATOM      3  C   UNL     1      -7.663  -3.348 -21.745  0.00  0.00    +0.000 C 
ATOM      4  C   UNL     1      -8.567  -2.867 -20.573  0.00  0.00    +0.000 C 
ATOM      5  C   UNL     1      -8.735  -3.344 -23.310  0.00  0.00    +0.000 C 
ATOM      6  C   UNL     1      -9.533  -4.121 -20.536  0.00  0.00    +0.000 C 
ATOM      7  C   UNL     1      -5.978  -2.548 -21.699  0.00  0.00    +0.000 C 
ATOM      8  C   UNL     1      -4.350  -2.466 -22.663  0.00  0.00    +0.000 C 
ATOM      9  C   UNL     1      -9.906  -4.361 -22.979  0.00  0.00    +0.000 C 
ATOM     10  C   UNL     1     -10.605  -4.160 -21.600  0.00  0.00    +0.000 C 
ATOM     11  C   UNL     1      -3.999  -3.068 -24.295  0.00  0.00    +0.000 C 
ATOM     12  C   UNL     1      -8.537  -3.242 -19.038  0.00  0.00    +0.000 C 
ATOM     13  C   UNL     1      -8.193  -3.737 -25.068  0.00  0.00    +0.000 C 
ATOM     14  C   UNL     1      -4.049  -0.912 -22.877  0.00  0.00    +0.000 C 
ATOM     15  C   UNL     1      -5.037  -2.498 -25.378  0.00  0.00    +0.000 C 
ATOM     16  C   UNL     1      -9.506  -1.974 -23.516  0.00  0.00    +0.000 C 
ATOM     17  C   UNL     1      -6.534  -3.316 -25.942  0.00  0.00    +0.000 C 
ATOM     18  C   UNL     1      -4.485  -0.237 -24.255  0.00  0.00    +0.000 C 
ATOM     19  C   UNL     1      -4.988  -1.125 -25.451  0.00  0.00    +0.000 C 
ATOM     20  C   UNL     1      -2.544  -2.497 -24.684  0.00  0.00    +0.000 C 
ATOM     21  C   UNL     1      -3.611  -4.570 -24.486  0.00  0.00    +0.000 C 
ATOM     22  C   UNL     1      -5.659  -0.349 -26.557  0.00  0.00    +0.000 C 
ENDROOT
BRANCH   9  23
ATOM     23  O   UNL     1      -9.386  -5.690 -22.992  0.00  0.00    +0.000 OA
ATOM     24  H   UNL     1      -9.700  -6.101 -23.822  0.00  0.00    +0.000 HD
ENDBRANCH   9  23
BRANCH   8  25
ATOM     25  O   UNL     1      -3.341  -2.961 -21.762  0.00  0.00    +0.000 OA
ATOM     26  H   UNL     1      -3.779  -3.424 -21.026  0.00  0.00    +0.000 HD
ENDBRANCH   8  25
BRANCH  18  27
ATOM     27  O   UNL     1      -5.552   0.715 -23.971  0.00  0.00    +0.000 OA
BRANCH  27  29
ATOM     28  O   UNL     1      -5.415   2.724 -25.004  0.00  0.00    +0.000 OA
ATOM     29  C   UNL     1      -5.225   2.033 -24.009  0.00  0.00    +0.000 C 
BRANCH  29  30
ATOM     30  C   UNL     1      -4.463   2.533 -22.778  0.00  0.00    +0.000 C 
BRANCH  30  31
ATOM     31  O   UNL     1      -5.002   3.707 -22.159  0.00  0.00    +0.000 OA
ATOM     32  H   UNL     1      -4.406   3.918 -21.416  0.00  0.00    +0.000 HD
ENDBRANCH  30  31
BRANCH  30  33
ATOM     33  C   UNL     1      -2.982   2.765 -23.189  0.00  0.00    +0.000 C 
BRANCH  33  34
ATOM     34  C   UNL     1      -2.044   2.383 -22.053  0.00  0.00    +0.000 A 
ATOM     35  C   UNL     1      -1.330   1.174 -22.123  0.00  0.00    +0.000 A 
ATOM     36  C   UNL     1      -1.889   3.188 -20.913  0.00  0.00    +0.000 A 
ATOM     37  C   UNL     1      -0.473   0.791 -21.091  0.00  0.00    +0.000 A 
ATOM     38  C   UNL     1      -1.029   2.804 -19.883  0.00  0.00    +0.000 A 
ATOM     39  C   UNL     1      -0.320   1.607 -19.972  0.00  0.00    +0.000 A 
ENDBRANCH  33  34
BRANCH  33  41
ATOM     40  O   UNL     1      -1.915   5.746 -24.935  0.00  0.00    +0.000 OA
ATOM     41  N   UNL     1      -2.776   4.161 -23.596  0.00  0.00    +0.000 N 
ATOM     42  C   UNL     1      -1.742   4.707 -24.306  0.00  0.00    +0.000 C 
ATOM     43  H   UNL     1      -3.615   4.732 -23.593  0.00  0.00    +0.000 HD
BRANCH  42  44
ATOM     44  C   UNL     1      -0.427   4.029 -24.360  0.00  0.00    +0.000 A 
ATOM     45  C   UNL     1      -0.160   3.029 -25.301  0.00  0.00    +0.000 A 
ATOM     46  C   UNL     1       0.534   4.356 -23.396  0.00  0.00    +0.000 A 
ATOM     47  C   UNL     1       1.088   2.404 -25.315  0.00  0.00    +0.000 A 
ATOM     48  C   UNL     1       1.779   3.728 -23.411  0.00  0.00    +0.000 A 
ATOM     49  C   UNL     1       2.057   2.759 -24.377  0.00  0.00    +0.000 A 
ENDBRANCH  42  44
ENDBRANCH  33  41
ENDBRANCH  30  33
ENDBRANCH  29  30
ENDBRANCH  27  29
ENDBRANCH  18  27
BRANCH  17  50
ATOM     50  O   UNL     1      -6.040  -4.409 -26.745  0.00  0.00    +0.000 OA
BRANCH  50  52
ATOM     51  O   UNL     1      -7.227  -5.213 -28.464  0.00  0.00    +0.000 OA
ATOM     52  C   UNL     1      -6.290  -4.526 -28.069  0.00  0.00    +0.000 C 
ATOM     53  C   UNL     1      -5.339  -3.867 -29.023  0.00  0.00    +0.000 C 
ENDBRANCH  50  52
ENDBRANCH  17  50
BRANCH   7  54
ATOM     54  O   UNL     1      -6.479  -1.661 -22.532  0.00  0.00    +0.000 OA
BRANCH  54  56
ATOM     55  O   UNL     1      -7.373   0.059 -22.003  0.00  0.00    +0.000 OA
ATOM     56  C   UNL     1      -6.569  -0.733 -21.522  0.00  0.00    +0.000 C 
BRANCH  56  57
ATOM     57  C   UNL     1      -5.408  -0.683 -20.001  0.00  0.00    +0.000 A 
ATOM     58  C   UNL     1      -4.479   0.399 -19.684  0.00  0.00    +0.000 A 
ATOM     59  C   UNL     1      -5.369  -1.600 -18.908  0.00  0.00    +0.000 A 
ATOM     60  C   UNL     1      -3.685   0.533 -18.518  0.00  0.00    +0.000 A 
ATOM     61  C   UNL     1      -4.578  -1.484 -17.730  0.00  0.00    +0.000 A 
ATOM     62  C   UNL     1      -3.737  -0.416 -17.530  0.00  0.00    +0.000 A 
ENDBRANCH  56  57
ENDBRANCH  54  56
ENDBRANCH   7  54
BRANCH   4  63
ATOM     63  O   UNL     1      -9.228  -1.614 -20.867  0.00  0.00    +0.000 OA
BRANCH  63  65
ATOM     64  O   UNL     1      -9.423  -0.374 -19.017  0.00  0.00    +0.000 OA
ATOM     65  C   UNL     1      -9.967  -0.910 -19.980  0.00  0.00    +0.000 C 
ATOM     66  C   UNL     1     -11.456  -0.890 -20.118  0.00  0.00    +0.000 C 
ENDBRANCH  63  65
ENDBRANCH   4  63
TORSDOF 17
ENDMDL
