MODEL 1
REMARK VINA RESULT:      -7.7      0.000      0.000
REMARK  Name = 
REMARK  5 active torsions:
REMARK  status: ('A' for Active; 'I' for Inactive)
REMARK    1  A    between atoms: O_1  and  C_16
REMARK    2  A    between atoms: O_3  and  C_25
REMARK    3  A    between atoms: C_11  and  C_22
REMARK    4  A    between atoms: C_16  and  C_28
REMARK    5  A    between atoms: C_29  and  C_31
REMARK                            x       y       z     vdW  Elec       q    Type
REMARK                         _______ _______ _______ _____ _____    ______ ____
ROOT
ATOM      1  O   UNL     1       2.658   1.973 -18.467  0.00  0.00    +0.000 OA
ATOM      2  N   UNL     1      11.392  -0.512 -21.242  0.00  0.00    +0.000 NA
ATOM      3  C   UNL     1       8.282   0.141 -19.067  0.00  0.00    +0.000 C 
ATOM      4  C   UNL     1       7.523   1.400 -18.571  0.00  0.00    +0.000 C 
ATOM      5  C   UNL     1       5.954  -0.396 -18.882  0.00  0.00    +0.000 C 
ATOM      6  C   UNL     1       6.051   1.134 -18.926  0.00  0.00    +0.000 C 
ATOM      7  C   UNL     1       9.444   0.461 -20.027  0.00  0.00    +0.000 C 
ATOM      8  C   UNL     1       7.206  -0.795 -19.657  0.00  0.00    +0.000 C 
ATOM      9  C   UNL     1       4.568  -0.916 -19.347  0.00  0.00    +0.000 C 
ATOM     10  C   UNL     1      10.354   1.531 -19.386  0.00  0.00    +0.000 C 
ATOM     11  C   UNL     1       8.045   2.696 -19.182  0.00  0.00    +0.000 C 
ATOM     12  C   UNL     1       3.522  -0.290 -18.376  0.00  0.00    +0.000 C 
ATOM     13  C   UNL     1       9.563   2.827 -19.073  0.00  0.00    +0.000 C 
ATOM     14  C   UNL     1      11.627   1.777 -20.247  0.00  0.00    +0.000 C 
ATOM     15  C   UNL     1       5.014   1.795 -18.030  0.00  0.00    +0.000 C 
ATOM     16  C   UNL     1      10.243  -0.804 -20.367  0.00  0.00    +0.000 C 
ATOM     17  C   UNL     1      12.347   0.415 -20.572  0.00  0.00    +0.000 C 
ATOM     18  C   UNL     1       4.499  -2.457 -19.198  0.00  0.00    +0.000 C 
ATOM     19  C   UNL     1       3.635   1.236 -18.350  0.00  0.00    +0.000 C 
ATOM     20  C   UNL     1       4.276  -0.543 -20.822  0.00  0.00    +0.000 C 
ATOM     21  C   UNL     1       2.103  -0.795 -18.637  0.00  0.00    +0.000 C 
ATOM     22  C   UNL     1       3.088  -3.018 -19.394  0.00  0.00    +0.000 C 
ATOM     23  C   UNL     1       2.046  -2.320 -18.520  0.00  0.00    +0.000 C 
ATOM     24  C   UNL     1      13.594   0.640 -21.465  0.00  0.00    +0.000 C 
ATOM     25  C   UNL     1      12.038  -1.789 -21.606  0.00  0.00    +0.000 C 
ATOM     26  C   UNL     1      12.577   2.760 -19.547  0.00  0.00    +0.000 C 
ATOM     27  C   UNL     1      13.224  -1.607 -22.558  0.00  0.00    +0.000 C 
ATOM     28  C   UNL     1      14.241  -0.662 -21.922  0.00  0.00    +0.000 C 
ATOM     29  C   UNL     1      12.776  -1.124 -23.941  0.00  0.00    +0.000 C 
ENDROOT
BRANCH  14  30
ATOM     30  O   UNL     1      11.216   2.382 -21.485  0.00  0.00    +0.000 OA
ATOM     31  H   UNL     1      11.947   2.986 -21.728  0.00  0.00    +0.000 HD
ENDBRANCH  14  30
BRANCH  23  32
ATOM     32  O   UNL     1       0.756  -2.785 -18.900  0.00  0.00    +0.000 OA
ATOM     33  H   UNL     1       0.219  -2.865 -18.093  0.00  0.00    +0.000 HD
ENDBRANCH  23  32
TORSDOF 2
ENDMDL
MODEL 2
REMARK VINA RESULT:      -7.3      1.842      3.058
REMARK  Name = 
REMARK  5 active torsions:
REMARK  status: ('A' for Active; 'I' for Inactive)
REMARK    1  A    between atoms: O_1  and  C_16
REMARK    2  A    between atoms: O_3  and  C_25
REMARK    3  A    between atoms: C_11  and  C_22
REMARK    4  A    between atoms: C_16  and  C_28
REMARK    5  A    between atoms: C_29  and  C_31
REMARK                            x       y       z     vdW  Elec       q    Type
REMARK                         _______ _______ _______ _____ _____    ______ ____
ROOT
ATOM      1  O   UNL     1       0.620  -1.779 -18.893  0.00  0.00    +0.000 OA
ATOM      2  N   UNL     1       9.557   0.562 -21.087  0.00  0.00    +0.000 NA
ATOM      3  C   UNL     1       6.487  -0.898 -19.277  0.00  0.00    +0.000 C 
ATOM      4  C   UNL     1       5.278  -0.312 -18.500  0.00  0.00    +0.000 C 
ATOM      5  C   UNL     1       4.598  -2.334 -19.610  0.00  0.00    +0.000 C 
ATOM      6  C   UNL     1       4.047  -0.987 -19.126  0.00  0.00    +0.000 C 
ATOM      7  C   UNL     1       7.397   0.178 -19.902  0.00  0.00    +0.000 C 
ATOM      8  C   UNL     1       5.892  -1.898 -20.291  0.00  0.00    +0.000 C 
ATOM      9  C   UNL     1       3.549  -3.150 -20.412  0.00  0.00    +0.000 C 
ATOM     10  C   UNL     1       7.786   1.207 -18.818  0.00  0.00    +0.000 C 
ATOM     11  C   UNL     1       5.204   1.210 -18.562  0.00  0.00    +0.000 C 
ATOM     12  C   UNL     1       2.351  -3.384 -19.444  0.00  0.00    +0.000 C 
ATOM     13  C   UNL     1       6.530   1.877 -18.204  0.00  0.00    +0.000 C 
ATOM     14  C   UNL     1       8.828   2.228 -19.361  0.00  0.00    +0.000 C 
ATOM     15  C   UNL     1       2.841  -1.161 -18.215  0.00  0.00    +0.000 C 
ATOM     16  C   UNL     1       8.646  -0.453 -20.530  0.00  0.00    +0.000 C 
ATOM     17  C   UNL     1      10.047   1.478 -20.018  0.00  0.00    +0.000 C 
ATOM     18  C   UNL     1       4.132  -4.533 -20.798  0.00  0.00    +0.000 C 
ATOM     19  C   UNL     1       1.817  -2.060 -18.893  0.00  0.00    +0.000 C 
ATOM     20  C   UNL     1       3.109  -2.414 -21.703  0.00  0.00    +0.000 C 
ATOM     21  C   UNL     1       1.269  -4.274 -20.055  0.00  0.00    +0.000 C 
ATOM     22  C   UNL     1       3.081  -5.491 -21.366  0.00  0.00    +0.000 C 
ATOM     23  C   UNL     1       1.854  -5.627 -20.464  0.00  0.00    +0.000 C 
ATOM     24  C   UNL     1      11.074   2.481 -20.600  0.00  0.00    +0.000 C 
ATOM     25  C   UNL     1      10.671  -0.132 -21.763  0.00  0.00    +0.000 C 
ATOM     26  C   UNL     1       9.291   3.178 -18.247  0.00  0.00    +0.000 C 
ATOM     27  C   UNL     1      11.661   0.834 -22.423  0.00  0.00    +0.000 C 
ATOM     28  C   UNL     1      12.200   1.801 -21.371  0.00  0.00    +0.000 C 
ATOM     29  C   UNL     1      11.035   1.567 -23.612  0.00  0.00    +0.000 C 
ENDROOT
BRANCH  14  30
ATOM     30  O   UNL     1       8.187   3.026 -20.370  0.00  0.00    +0.000 OA
ATOM     31  H   UNL     1       8.908   3.544 -20.780  0.00  0.00    +0.000 HD
ENDBRANCH  14  30
BRANCH  23  32
ATOM     32  O   UNL     1       0.871  -6.390 -21.155  0.00  0.00    +0.000 OA
ATOM     33  H   UNL     1       1.088  -6.366 -22.103  0.00  0.00    +0.000 HD
ENDBRANCH  23  32
TORSDOF 2
ENDMDL
MODEL 3
REMARK VINA RESULT:      -7.2      2.356      4.558
REMARK  Name = 
REMARK  5 active torsions:
REMARK  status: ('A' for Active; 'I' for Inactive)
REMARK    1  A    between atoms: O_1  and  C_16
REMARK    2  A    between atoms: O_3  and  C_25
REMARK    3  A    between atoms: C_11  and  C_22
REMARK    4  A    between atoms: C_16  and  C_28
REMARK    5  A    between atoms: C_29  and  C_31
REMARK                            x       y       z     vdW  Elec       q    Type
REMARK                         _______ _______ _______ _____ _____    ______ ____
ROOT
ATOM      1  O   UNL     1       2.056  -5.093 -20.166  0.00  0.00    +0.000 OA
ATOM      2  N   UNL     1       9.318   0.759 -18.382  0.00  0.00    +0.000 NA
ATOM      3  C   UNL     1       6.414  -1.049 -20.151  0.00  0.00    +0.000 C 
ATOM      4  C   UNL     1       6.169  -2.483 -20.692  0.00  0.00    +0.000 C 
ATOM      5  C   UNL     1       4.084  -1.561 -19.927  0.00  0.00    +0.000 C 
ATOM      6  C   UNL     1       4.814  -2.899 -20.097  0.00  0.00    +0.000 C 
ATOM      7  C   UNL     1       7.761  -0.890 -19.419  0.00  0.00    +0.000 C 
ATOM      8  C   UNL     1       5.177  -0.704 -19.295  0.00  0.00    +0.000 C 
ATOM      9  C   UNL     1       2.721  -1.717 -19.202  0.00  0.00    +0.000 C 
ATOM     10  C   UNL     1       8.896  -1.424 -20.319  0.00  0.00    +0.000 C 
ATOM     11  C   UNL     1       7.286  -3.459 -20.338  0.00  0.00    +0.000 C 
ATOM     12  C   UNL     1       1.869  -2.677 -20.086  0.00  0.00    +0.000 C 
ATOM     13  C   UNL     1       8.672  -2.915 -20.681  0.00  0.00    +0.000 C 
ATOM     14  C   UNL     1      10.292  -1.145 -19.689  0.00  0.00    +0.000 C 
ATOM     15  C   UNL     1       3.999  -3.892 -20.913  0.00  0.00    +0.000 C 
ATOM     16  C   UNL     1       8.011   0.575 -19.036  0.00  0.00    +0.000 C 
ATOM     17  C   UNL     1      10.428   0.374 -19.298  0.00  0.00    +0.000 C 
ATOM     18  C   UNL     1       1.992  -0.351 -19.138  0.00  0.00    +0.000 C 
ATOM     19  C   UNL     1       2.598  -4.001 -20.327  0.00  0.00    +0.000 C 
ATOM     20  C   UNL     1       2.890  -2.262 -17.762  0.00  0.00    +0.000 C 
ATOM     21  C   UNL     1       0.444  -2.850 -19.560  0.00  0.00    +0.000 C 
ATOM     22  C   UNL     1       0.538  -0.466 -18.670  0.00  0.00    +0.000 C 
ATOM     23  C   UNL     1      -0.262  -1.496 -19.468  0.00  0.00    +0.000 C 
ATOM     24  C   UNL     1      11.798   0.660 -18.631  0.00  0.00    +0.000 C 
ATOM     25  C   UNL     1       9.430   2.167 -17.952  0.00  0.00    +0.000 C 
ATOM     26  C   UNL     1      11.416  -1.580 -20.641  0.00  0.00    +0.000 C 
ATOM     27  C   UNL     1      10.739   2.462 -17.213  0.00  0.00    +0.000 C 
ATOM     28  C   UNL     1      11.919   2.087 -18.107  0.00  0.00    +0.000 C 
ATOM     29  C   UNL     1      10.799   1.756 -15.855  0.00  0.00    +0.000 C 
ENDROOT
BRANCH  14  30
ATOM     30  O   UNL     1      10.408  -1.936 -18.494  0.00  0.00    +0.000 OA
ATOM     31  H   UNL     1      11.088  -2.608 -18.700  0.00  0.00    +0.000 HD
ENDBRANCH  14  30
BRANCH  23  32
ATOM     32  O   UNL     1      -1.533  -1.655 -18.848  0.00  0.00    +0.000 OA
ATOM     33  H   UNL     1      -1.980  -0.791 -18.861  0.00  0.00    +0.000 HD
ENDBRANCH  23  32
TORSDOF 2
ENDMDL
MODEL 4
REMARK VINA RESULT:      -7.0     18.367     19.257
REMARK  Name = 
REMARK  5 active torsions:
REMARK  status: ('A' for Active; 'I' for Inactive)
REMARK    1  A    between atoms: O_1  and  C_16
REMARK    2  A    between atoms: O_3  and  C_25
REMARK    3  A    between atoms: C_11  and  C_22
REMARK    4  A    between atoms: C_16  and  C_28
REMARK    5  A    between atoms: C_29  and  C_31
REMARK                            x       y       z     vdW  Elec       q    Type
REMARK                         _______ _______ _______ _____ _____    ______ ____
ROOT
ATOM      1  O   UNL     1       9.928 -11.672   0.397  0.00  0.00    +0.000 OA
ATOM      2  N   UNL     1      12.303  -6.990  -7.514  0.00  0.00    +0.000 NA
ATOM      3  C   UNL     1      12.143  -8.143  -3.844  0.00  0.00    +0.000 C 
ATOM      4  C   UNL     1      11.095  -8.062  -2.702  0.00  0.00    +0.000 C 
ATOM      5  C   UNL     1      12.373 -10.083  -2.456  0.00  0.00    +0.000 C 
ATOM      6  C   UNL     1      10.984  -9.500  -2.170  0.00  0.00    +0.000 C 
ATOM      7  C   UNL     1      11.633  -7.591  -5.189  0.00  0.00    +0.000 C 
ATOM      8  C   UNL     1      12.601  -9.616  -3.890  0.00  0.00    +0.000 C 
ATOM      9  C   UNL     1      12.461 -11.597  -2.122  0.00  0.00    +0.000 C 
ATOM     10  C   UNL     1      11.051  -6.177  -4.971  0.00  0.00    +0.000 C 
ATOM     11  C   UNL     1       9.751  -7.504  -3.160  0.00  0.00    +0.000 C 
ATOM     12  C   UNL     1      12.135 -11.723  -0.603  0.00  0.00    +0.000 C 
ATOM     13  C   UNL     1       9.891  -6.200  -3.942  0.00  0.00    +0.000 C 
ATOM     14  C   UNL     1      10.664  -5.514  -6.324  0.00  0.00    +0.000 C 
ATOM     15  C   UNL     1      10.598  -9.644  -0.705  0.00  0.00    +0.000 C 
ATOM     16  C   UNL     1      12.755  -7.565  -6.235  0.00  0.00    +0.000 C 
ATOM     17  C   UNL     1      11.868  -5.576  -7.336  0.00  0.00    +0.000 C 
ATOM     18  C   UNL     1      13.906 -12.109  -2.347  0.00  0.00    +0.000 C 
ATOM     19  C   UNL     1      10.780 -11.093  -0.273  0.00  0.00    +0.000 C 
ATOM     20  C   UNL     1      11.490 -12.437  -2.988  0.00  0.00    +0.000 C 
ATOM     21  C   UNL     1      12.287 -13.154  -0.088  0.00  0.00    +0.000 C 
ATOM     22  C   UNL     1      14.135 -13.521  -1.801  0.00  0.00    +0.000 C 
ATOM     23  C   UNL     1      13.705 -13.669  -0.341  0.00  0.00    +0.000 C 
ATOM     24  C   UNL     1      11.484  -4.956  -8.703  0.00  0.00    +0.000 C 
ATOM     25  C   UNL     1      13.405  -7.102  -8.491  0.00  0.00    +0.000 C 
ATOM     26  C   UNL     1      10.190  -4.069  -6.107  0.00  0.00    +0.000 C 
ATOM     27  C   UNL     1      13.027  -6.574  -9.878  0.00  0.00    +0.000 C 
ATOM     28  C   UNL     1      12.572  -5.121  -9.759  0.00  0.00    +0.000 C 
ATOM     29  C   UNL     1      11.972  -7.454 -10.555  0.00  0.00    +0.000 C 
ENDROOT
BRANCH  14  30
ATOM     30  O   UNL     1       9.562  -6.250  -6.882  0.00  0.00    +0.000 OA
ATOM     31  H   UNL     1       9.029  -5.584  -7.362  0.00  0.00    +0.000 HD
ENDBRANCH  14  30
BRANCH  23  32
ATOM     32  O   UNL     1      13.791 -15.044   0.016  0.00  0.00    +0.000 OA
ATOM     33  H   UNL     1      12.887 -15.403   0.037  0.00  0.00    +0.000 HD
ENDBRANCH  23  32
TORSDOF 2
ENDMDL
MODEL 5
REMARK VINA RESULT:      -6.6     15.075     17.564
REMARK  Name = 
REMARK  5 active torsions:
REMARK  status: ('A' for Active; 'I' for Inactive)
REMARK    1  A    between atoms: O_1  and  C_16
REMARK    2  A    between atoms: O_3  and  C_25
REMARK    3  A    between atoms: C_11  and  C_22
REMARK    4  A    between atoms: C_16  and  C_28
REMARK    5  A    between atoms: C_29  and  C_31
REMARK                            x       y       z     vdW  Elec       q    Type
REMARK                         _______ _______ _______ _____ _____    ______ ____
ROOT
ATOM      1  O   UNL     1      19.159  -5.842 -11.149  0.00  0.00    +0.000 OA
ATOM      2  N   UNL     1      11.500  -6.734  -5.609  0.00  0.00    +0.000 NA
ATOM      3  C   UNL     1      13.987  -7.139  -8.521  0.00  0.00    +0.000 C 
ATOM      4  C   UNL     1      14.506  -6.231  -9.668  0.00  0.00    +0.000 C 
ATOM      5  C   UNL     1      16.255  -7.742  -9.005  0.00  0.00    +0.000 C 
ATOM      6  C   UNL     1      16.037  -6.341  -9.592  0.00  0.00    +0.000 C 
ATOM      7  C   UNL     1      13.041  -6.415  -7.543  0.00  0.00    +0.000 C 
ATOM      8  C   UNL     1      15.244  -7.746  -7.863  0.00  0.00    +0.000 C 
ATOM      9  C   UNL     1      17.749  -8.033  -8.705  0.00  0.00    +0.000 C 
ATOM     10  C   UNL     1      11.922  -5.712  -8.343  0.00  0.00    +0.000 C 
ATOM     11  C   UNL     1      14.019  -4.789  -9.560  0.00  0.00    +0.000 C 
ATOM     12  C   UNL     1      18.497  -7.907 -10.066  0.00  0.00    +0.000 C 
ATOM     13  C   UNL     1      12.509  -4.693  -9.352  0.00  0.00    +0.000 C 
ATOM     14  C   UNL     1      10.854  -5.097  -7.393  0.00  0.00    +0.000 C 
ATOM     15  C   UNL     1      16.789  -6.151 -10.901  0.00  0.00    +0.000 C 
ATOM     16  C   UNL     1      12.449  -7.395  -6.521  0.00  0.00    +0.000 C 
ATOM     17  C   UNL     1      10.344  -6.172  -6.363  0.00  0.00    +0.000 C 
ATOM     18  C   UNL     1      17.917  -9.488  -8.198  0.00  0.00    +0.000 C 
ATOM     19  C   UNL     1      18.249  -6.540 -10.709  0.00  0.00    +0.000 C 
ATOM     20  C   UNL     1      18.325  -7.064  -7.642  0.00  0.00    +0.000 C 
ATOM     21  C   UNL     1      19.977  -8.273  -9.959  0.00  0.00    +0.000 C 
ATOM     22  C   UNL     1      19.381  -9.933  -8.123  0.00  0.00    +0.000 C 
ATOM     23  C   UNL     1      20.140  -9.699  -9.429  0.00  0.00    +0.000 C 
ATOM     24  C   UNL     1       9.309  -5.562  -5.383  0.00  0.00    +0.000 C 
ATOM     25  C   UNL     1      11.064  -7.717  -4.597  0.00  0.00    +0.000 C 
ATOM     26  C   UNL     1       9.691  -4.497  -8.197  0.00  0.00    +0.000 C 
ATOM     27  C   UNL     1      10.105  -7.122  -3.562  0.00  0.00    +0.000 C 
ATOM     28  C   UNL     1       8.894  -6.528  -4.278  0.00  0.00    +0.000 C 
ATOM     29  C   UNL     1      10.802  -6.096  -2.663  0.00  0.00    +0.000 C 
ENDROOT
BRANCH  14  30
ATOM     30  O   UNL     1      11.472  -4.023  -6.664  0.00  0.00    +0.000 OA
ATOM     31  H   UNL     1      10.729  -3.471  -6.346  0.00  0.00    +0.000 HD
ENDBRANCH  14  30
BRANCH  23  32
ATOM     32  O   UNL     1      21.517  -9.976  -9.203  0.00  0.00    +0.000 OA
ATOM     33  H   UNL     1      21.588 -10.475  -8.371  0.00  0.00    +0.000 HD
ENDBRANCH  23  32
TORSDOF 2
ENDMDL
MODEL 6
REMARK VINA RESULT:      -6.4     19.152     22.395
REMARK  Name = 
REMARK  5 active torsions:
REMARK  status: ('A' for Active; 'I' for Inactive)
REMARK    1  A    between atoms: O_1  and  C_16
REMARK    2  A    between atoms: O_3  and  C_25
REMARK    3  A    between atoms: C_11  and  C_22
REMARK    4  A    between atoms: C_16  and  C_28
REMARK    5  A    between atoms: C_29  and  C_31
REMARK                            x       y       z     vdW  Elec       q    Type
REMARK                         _______ _______ _______ _____ _____    ______ ____
ROOT
ATOM      1  O   UNL     1       1.309 -19.077  -3.230  0.00  0.00    +0.000 OA
ATOM      2  N   UNL     1       3.348 -16.941 -12.254  0.00  0.00    +0.000 NA
ATOM      3  C   UNL     1       2.819 -18.893  -8.977  0.00  0.00    +0.000 C 
ATOM      4  C   UNL     1       3.526 -18.951  -7.597  0.00  0.00    +0.000 C 
ATOM      5  C   UNL     1       1.177 -19.365  -7.298  0.00  0.00    +0.000 C 
ATOM      6  C   UNL     1       2.395 -18.781  -6.570  0.00  0.00    +0.000 C 
ATOM      7  C   UNL     1       3.405 -17.828  -9.924  0.00  0.00    +0.000 C 
ATOM      8  C   UNL     1       1.316 -18.721  -8.674  0.00  0.00    +0.000 C 
ATOM      9  C   UNL     1      -0.139 -19.177  -6.495  0.00  0.00    +0.000 C 
ATOM     10  C   UNL     1       4.936 -18.009 -10.010  0.00  0.00    +0.000 C 
ATOM     11  C   UNL     1       4.620 -17.900  -7.437  0.00  0.00    +0.000 C 
ATOM     12  C   UNL     1       0.073 -19.916  -5.139  0.00  0.00    +0.000 C 
ATOM     13  C   UNL     1       5.595 -17.884  -8.613  0.00  0.00    +0.000 C 
ATOM     14  C   UNL     1       5.556 -17.056 -11.073  0.00  0.00    +0.000 C 
ATOM     15  C   UNL     1       2.615 -19.437  -5.215  0.00  0.00    +0.000 C 
ATOM     16  C   UNL     1       2.765 -17.915 -11.316  0.00  0.00    +0.000 C 
ATOM     17  C   UNL     1       4.803 -17.197 -12.449  0.00  0.00    +0.000 C 
ATOM     18  C   UNL     1      -1.316 -19.861  -7.235  0.00  0.00    +0.000 C 
ATOM     19  C   UNL     1       1.319 -19.400  -4.416  0.00  0.00    +0.000 C 
ATOM     20  C   UNL     1      -0.480 -17.681  -6.286  0.00  0.00    +0.000 C 
ATOM     21  C   UNL     1      -1.184 -19.917  -4.269  0.00  0.00    +0.000 C 
ATOM     22  C   UNL     1      -2.591 -19.942  -6.391  0.00  0.00    +0.000 C 
ATOM     23  C   UNL     1      -2.353 -20.564  -5.015  0.00  0.00    +0.000 C 
ATOM     24  C   UNL     1       5.383 -16.224 -13.507  0.00  0.00    +0.000 C 
ATOM     25  C   UNL     1       2.606 -17.018 -13.528  0.00  0.00    +0.000 C 
ATOM     26  C   UNL     1       7.061 -17.321 -11.231  0.00  0.00    +0.000 C 
ATOM     27  C   UNL     1       3.101 -16.007 -14.568  0.00  0.00    +0.000 C 
ATOM     28  C   UNL     1       4.593 -16.223 -14.811  0.00  0.00    +0.000 C 
ATOM     29  C   UNL     1       2.787 -14.566 -14.157  0.00  0.00    +0.000 C 
ENDROOT
BRANCH  14  30
ATOM     30  O   UNL     1       5.402 -15.706 -10.606  0.00  0.00    +0.000 OA
ATOM     31  H   UNL     1       4.540 -15.411 -10.961  0.00  0.00    +0.000 HD
ENDBRANCH  14  30
BRANCH  23  32
ATOM     32  O   UNL     1      -3.546 -20.432  -4.250  0.00  0.00    +0.000 OA
ATOM     33  H   UNL     1      -4.069 -21.243  -4.374  0.00  0.00    +0.000 HD
ENDBRANCH  23  32
TORSDOF 2
ENDMDL
MODEL 7
REMARK VINA RESULT:      -6.2     17.821     21.336
REMARK  Name = 
REMARK  5 active torsions:
REMARK  status: ('A' for Active; 'I' for Inactive)
REMARK    1  A    between atoms: O_1  and  C_16
REMARK    2  A    between atoms: O_3  and  C_25
REMARK    3  A    between atoms: C_11  and  C_22
REMARK    4  A    between atoms: C_16  and  C_28
REMARK    5  A    between atoms: C_29  and  C_31
REMARK                            x       y       z     vdW  Elec       q    Type
REMARK                         _______ _______ _______ _____ _____    ______ ____
ROOT
ATOM      1  O   UNL     1     -16.821   4.107 -23.666  0.00  0.00    +0.000 OA
ATOM      2  N   UNL     1     -10.336  -1.902 -20.202  0.00  0.00    +0.000 NA
ATOM      3  C   UNL     1     -12.005   0.962 -22.162  0.00  0.00    +0.000 C 
ATOM      4  C   UNL     1     -12.999   1.058 -23.350  0.00  0.00    +0.000 C 
ATOM      5  C   UNL     1     -13.354   2.921 -21.872  0.00  0.00    +0.000 C 
ATOM      6  C   UNL     1     -14.097   2.018 -22.865  0.00  0.00    +0.000 C 
ATOM      7  C   UNL     1     -11.739  -0.483 -21.697  0.00  0.00    +0.000 C 
ATOM      8  C   UNL     1     -12.567   1.892 -21.066  0.00  0.00    +0.000 C 
ATOM      9  C   UNL     1     -14.305   3.903 -21.137  0.00  0.00    +0.000 C 
ATOM     10  C   UNL     1     -11.346  -1.346 -22.917  0.00  0.00    +0.000 C 
ATOM     11  C   UNL     1     -13.556  -0.296 -23.778  0.00  0.00    +0.000 C 
ATOM     12  C   UNL     1     -14.972   4.771 -22.247  0.00  0.00    +0.000 C 
ATOM     13  C   UNL     1     -12.463  -1.340 -23.992  0.00  0.00    +0.000 C 
ATOM     14  C   UNL     1     -10.917  -2.776 -22.478  0.00  0.00    +0.000 C 
ATOM     15  C   UNL     1     -14.808   2.824 -23.942  0.00  0.00    +0.000 C 
ATOM     16  C   UNL     1     -10.645  -0.525 -20.623  0.00  0.00    +0.000 C 
ATOM     17  C   UNL     1      -9.824  -2.704 -21.348  0.00  0.00    +0.000 C 
ATOM     18  C   UNL     1     -13.489   4.846 -20.216  0.00  0.00    +0.000 C 
ATOM     19  C   UNL     1     -15.670   3.896 -23.289  0.00  0.00    +0.000 C 
ATOM     20  C   UNL     1     -15.359   3.156 -20.282  0.00  0.00    +0.000 C 
ATOM     21  C   UNL     1     -15.865   5.871 -21.673  0.00  0.00    +0.000 C 
ATOM     22  C   UNL     1     -14.320   6.003 -19.654  0.00  0.00    +0.000 C 
ATOM     23  C   UNL     1     -15.064   6.780 -20.739  0.00  0.00    +0.000 C 
ATOM     24  C   UNL     1      -9.416  -4.122 -20.872  0.00  0.00    +0.000 C 
ATOM     25  C   UNL     1      -9.359  -1.844 -19.097  0.00  0.00    +0.000 C 
ATOM     26  C   UNL     1     -10.423  -3.590 -23.683  0.00  0.00    +0.000 C 
ATOM     27  C   UNL     1      -9.000  -3.228 -18.546  0.00  0.00    +0.000 C 
ATOM     28  C   UNL     1      -8.465  -4.100 -19.681  0.00  0.00    +0.000 C 
ATOM     29  C   UNL     1     -10.184  -3.881 -17.829  0.00  0.00    +0.000 C 
ENDROOT
BRANCH  14  30
ATOM     30  O   UNL     1     -12.075  -3.446 -21.950  0.00  0.00    +0.000 OA
ATOM     31  H   UNL     1     -12.222  -4.207 -22.548  0.00  0.00    +0.000 HD
ENDBRANCH  14  30
BRANCH  23  32
ATOM     32  O   UNL     1     -15.936   7.711 -20.107  0.00  0.00    +0.000 OA
ATOM     33  H   UNL     1     -16.175   7.350 -19.236  0.00  0.00    +0.000 HD
ENDBRANCH  23  32
TORSDOF 2
ENDMDL
MODEL 8
REMARK VINA RESULT:      -6.2     17.747     21.846
REMARK  Name = 
REMARK  5 active torsions:
REMARK  status: ('A' for Active; 'I' for Inactive)
REMARK    1  A    between atoms: O_1  and  C_16
REMARK    2  A    between atoms: O_3  and  C_25
REMARK    3  A    between atoms: C_11  and  C_22
REMARK    4  A    between atoms: C_16  and  C_28
REMARK    5  A    between atoms: C_29  and  C_31
REMARK                            x       y       z     vdW  Elec       q    Type
REMARK                         _______ _______ _______ _____ _____    ______ ____
ROOT
ATOM      1  O   UNL     1     -17.487   2.027 -25.541  0.00  0.00    +0.000 OA
ATOM      2  N   UNL     1     -10.527  -1.673 -20.247  0.00  0.00    +0.000 NA
ATOM      3  C   UNL     1     -12.433   0.042 -23.120  0.00  0.00    +0.000 C 
ATOM      4  C   UNL     1     -13.456  -0.411 -24.196  0.00  0.00    +0.000 C 
ATOM      5  C   UNL     1     -13.908   1.871 -23.588  0.00  0.00    +0.000 C 
ATOM      6  C   UNL     1     -14.608   0.602 -24.091  0.00  0.00    +0.000 C 
ATOM      7  C   UNL     1     -12.057  -1.070 -22.121  0.00  0.00    +0.000 C 
ATOM      8  C   UNL     1     -13.035   1.306 -22.472  0.00  0.00    +0.000 C 
ATOM      9  C   UNL     1     -14.909   3.014 -23.272  0.00  0.00    +0.000 C 
ATOM     10  C   UNL     1     -11.630  -2.333 -22.901  0.00  0.00    +0.000 C 
ATOM     11  C   UNL     1     -13.926  -1.850 -24.009  0.00  0.00    +0.000 C 
ATOM     12  C   UNL     1     -15.658   3.314 -24.606  0.00  0.00    +0.000 C 
ATOM     13  C   UNL     1     -12.767  -2.829 -23.831  0.00  0.00    +0.000 C 
ATOM     14  C   UNL     1     -11.094  -3.433 -21.940  0.00  0.00    +0.000 C 
ATOM     15  C   UNL     1     -15.396   0.855 -25.368  0.00  0.00    +0.000 C 
ATOM     16  C   UNL     1     -10.940  -0.608 -21.176  0.00  0.00    +0.000 C 
ATOM     17  C   UNL     1      -9.984  -2.845 -20.990  0.00  0.00    +0.000 C 
ATOM     18  C   UNL     1     -14.142   4.294 -22.854  0.00  0.00    +0.000 C 
ATOM     19  C   UNL     1     -16.316   2.051 -25.167  0.00  0.00    +0.000 C 
ATOM     20  C   UNL     1     -15.890   2.625 -22.138  0.00  0.00    +0.000 C 
ATOM     21  C   UNL     1     -16.614   4.501 -24.487  0.00  0.00    +0.000 C 
ATOM     22  C   UNL     1     -15.039   5.532 -22.772  0.00  0.00    +0.000 C 
ATOM     23  C   UNL     1     -15.859   5.756 -24.043  0.00  0.00    +0.000 C 
ATOM     24  C   UNL     1      -9.469  -3.919 -19.999  0.00  0.00    +0.000 C 
ATOM     25  C   UNL     1      -9.533  -1.115 -19.309  0.00  0.00    +0.000 C 
ATOM     26  C   UNL     1     -10.570  -4.640 -22.732  0.00  0.00    +0.000 C 
ATOM     27  C   UNL     1      -9.066  -2.131 -18.261  0.00  0.00    +0.000 C 
ATOM     28  C   UNL     1      -8.496  -3.359 -18.967  0.00  0.00    +0.000 C 
ATOM     29  C   UNL     1     -10.187  -2.497 -17.284  0.00  0.00    +0.000 C 
ENDROOT
BRANCH  14  30
ATOM     30  O   UNL     1     -12.190  -3.891 -21.130  0.00  0.00    +0.000 OA
ATOM     31  H   UNL     1     -12.137  -4.867 -21.160  0.00  0.00    +0.000 HD
ENDBRANCH  14  30
BRANCH  23  32
ATOM     32  O   UNL     1     -16.779   6.814 -23.804  0.00  0.00    +0.000 OA
ATOM     33  H   UNL     1     -16.773   7.396 -24.583  0.00  0.00    +0.000 HD
ENDBRANCH  23  32
TORSDOF 2
ENDMDL
MODEL 9
REMARK VINA RESULT:      -6.2     21.171     24.221
REMARK  Name = 
REMARK  5 active torsions:
REMARK  status: ('A' for Active; 'I' for Inactive)
REMARK    1  A    between atoms: O_1  and  C_16
REMARK    2  A    between atoms: O_3  and  C_25
REMARK    3  A    between atoms: C_11  and  C_22
REMARK    4  A    between atoms: C_16  and  C_28
REMARK    5  A    between atoms: C_29  and  C_31
REMARK                            x       y       z     vdW  Elec       q    Type
REMARK                         _______ _______ _______ _____ _____    ______ ____
ROOT
ATOM      1  O   UNL     1     -10.357 -13.276 -23.471  0.00  0.00    +0.000 OA
ATOM      2  N   UNL     1     -11.613 -11.794 -14.177  0.00  0.00    +0.000 NA
ATOM      3  C   UNL     1     -11.576 -13.446 -17.655  0.00  0.00    +0.000 C 
ATOM      4  C   UNL     1     -12.337 -13.233 -18.990  0.00  0.00    +0.000 C 
ATOM      5  C   UNL     1     -10.114 -14.014 -19.466  0.00  0.00    +0.000 C 
ATOM      6  C   UNL     1     -11.236 -13.154 -20.060  0.00  0.00    +0.000 C 
ATOM      7  C   UNL     1     -11.922 -12.403 -16.575  0.00  0.00    +0.000 C 
ATOM      8  C   UNL     1     -10.079 -13.507 -18.028  0.00  0.00    +0.000 C 
ATOM      9  C   UNL     1      -8.820 -13.974 -20.322  0.00  0.00    +0.000 C 
ATOM     10  C   UNL     1     -13.456 -12.323 -16.417  0.00  0.00    +0.000 C 
ATOM     11  C   UNL     1     -13.231 -11.997 -18.981  0.00  0.00    +0.000 C 
ATOM     12  C   UNL     1      -9.215 -14.516 -21.729  0.00  0.00    +0.000 C 
ATOM     13  C   UNL     1     -14.139 -11.938 -17.755  0.00  0.00    +0.000 C 
ATOM     14  C   UNL     1     -13.852 -11.397 -15.231  0.00  0.00    +0.000 C 
ATOM     15  C   UNL     1     -11.625 -13.613 -21.458  0.00  0.00    +0.000 C 
ATOM     16  C   UNL     1     -11.253 -12.749 -15.239  0.00  0.00    +0.000 C 
ATOM     17  C   UNL     1     -13.081 -11.812 -13.923  0.00  0.00    +0.000 C 
ATOM     18  C   UNL     1      -7.755 -14.928 -19.723  0.00  0.00    +0.000 C 
ATOM     19  C   UNL     1     -10.377 -13.716 -22.324  0.00  0.00    +0.000 C 
ATOM     20  C   UNL     1      -8.225 -12.546 -20.403  0.00  0.00    +0.000 C 
ATOM     21  C   UNL     1      -8.015 -14.642 -22.668  0.00  0.00    +0.000 C 
ATOM     22  C   UNL     1      -6.550 -15.138 -20.645  0.00  0.00    +0.000 C 
ATOM     23  C   UNL     1      -6.952 -15.558 -22.059  0.00  0.00    +0.000 C 
ATOM     24  C   UNL     1     -13.434 -10.872 -12.742  0.00  0.00    +0.000 C 
ATOM     25  C   UNL     1     -10.846 -12.134 -12.962  0.00  0.00    +0.000 C 
ATOM     26  C   UNL     1     -15.373 -11.411 -15.013  0.00  0.00    +0.000 C 
ATOM     27  C   UNL     1     -11.109 -11.170 -11.801  0.00  0.00    +0.000 C 
ATOM     28  C   UNL     1     -12.605 -11.148 -11.493  0.00  0.00    +0.000 C 
ATOM     29  C   UNL     1     -10.560  -9.770 -12.087  0.00  0.00    +0.000 C 
ENDROOT
BRANCH  14  30
ATOM     30  O   UNL     1     -13.478 -10.051 -15.573  0.00  0.00    +0.000 OA
ATOM     31  H   UNL     1     -14.323  -9.591 -15.752  0.00  0.00    +0.000 HD
ENDBRANCH  14  30
BRANCH  23  32
ATOM     32  O   UNL     1      -5.787 -15.555 -22.876  0.00  0.00    +0.000 OA
ATOM     33  H   UNL     1      -5.064 -15.155 -22.362  0.00  0.00    +0.000 HD
ENDBRANCH  23  32
TORSDOF 2
ENDMDL
