MODEL 1
REMARK VINA RESULT:      -5.5      0.000      0.000
REMARK  Name = PhIP.pdbqt.pdb
REMARK  2 active torsions:
REMARK  status: ('A' for Active; 'I' for Inactive)
REMARK    1  A    between atoms: N_4  and  C_9
REMARK    2  A    between atoms: C_7  and  C_10
REMARK                            x       y       z     vdW  Elec       q    Type
REMARK                         _______ _______ _______ _____ _____    ______ ____
ROOT
ATOM      1  N   UNL     1       8.236   5.602   1.469  0.00  0.00    +0.000 N 
ATOM      2  N   UNL     1       8.325   6.177  -0.841  0.00  0.00    +0.000 NA
ATOM      3  N   UNL     1       6.229   5.134  -1.482  0.00  0.00    +0.000 NA
ATOM      4  C   UNL     1       7.088   5.134   0.904  0.00  0.00    +0.000 C 
ATOM      5  C   UNL     1       7.218   5.533  -0.573  0.00  0.00    +0.000 C 
ATOM      6  C   UNL     1       5.159   3.778   0.298  0.00  0.00    +0.000 C 
ATOM      7  C   UNL     1       6.151   4.283   1.195  0.00  0.00    +0.000 C 
ATOM      8  C   UNL     1       8.933   6.176   0.404  0.00  0.00    +0.000 C 
ATOM      9  C   UNL     1       8.905   4.915   2.560  0.00  0.00    +0.000 C 
ATOM     10  C   UNL     1       5.470   4.397  -0.960  0.00  0.00    +0.000 C 
ENDROOT
BRANCH   6  11
ATOM     11  C   UNL     1       4.044   2.903   0.605  0.00  0.00    +0.000 A 
ATOM     12  C   UNL     1       2.736   3.394   0.616  0.00  0.00    +0.000 A 
ATOM     13  C   UNL     1       4.257   1.554   0.893  0.00  0.00    +0.000 A 
ATOM     14  C   UNL     1       1.663   2.556   0.911  0.00  0.00    +0.000 A 
ATOM     15  C   UNL     1       3.187   0.710   1.189  0.00  0.00    +0.000 A 
ATOM     16  C   UNL     1       1.889   1.213   1.197  0.00  0.00    +0.000 A 
ENDBRANCH   6  11
BRANCH   8  17
ATOM     17  N   UNL     1      10.247   6.671   0.469  0.00  0.00    +0.000 NA
ATOM     18  H   UNL     1      10.416   7.452  -0.156  0.00  0.00    +0.000 HD
ATOM     19  H   UNL     1      10.562   6.826   1.418  0.00  0.00    +0.000 HD
ENDBRANCH   8  17
TORSDOF 2
ENDMDL
MODEL 2
REMARK VINA RESULT:      -5.4     22.942     24.285
REMARK  Name = PhIP.pdbqt.pdb
REMARK  2 active torsions:
REMARK  status: ('A' for Active; 'I' for Inactive)
REMARK    1  A    between atoms: N_4  and  C_9
REMARK    2  A    between atoms: C_7  and  C_10
REMARK                            x       y       z     vdW  Elec       q    Type
REMARK                         _______ _______ _______ _____ _____    ______ ____
ROOT
ATOM      1  N   UNL     1       4.068 -18.076  -9.081  0.00  0.00    +0.000 N 
ATOM      2  N   UNL     1       6.097 -17.022  -8.412  0.00  0.00    +0.000 NA
ATOM      3  N   UNL     1       6.271 -15.501 -10.296  0.00  0.00    +0.000 NA
ATOM      4  C   UNL     1       4.337 -17.117 -10.010  0.00  0.00    +0.000 C 
ATOM      5  C   UNL     1       5.650 -16.490  -9.521  0.00  0.00    +0.000 C 
ATOM      6  C   UNL     1       4.601 -15.879 -12.091  0.00  0.00    +0.000 C 
ATOM      7  C   UNL     1       3.969 -16.821 -11.220  0.00  0.00    +0.000 C 
ATOM      8  C   UNL     1       5.138 -17.997  -8.187  0.00  0.00    +0.000 C 
ATOM      9  C   UNL     1       3.425 -19.334  -9.420  0.00  0.00    +0.000 C 
ATOM     10  C   UNL     1       5.719 -15.391 -11.332  0.00  0.00    +0.000 C 
ENDROOT
BRANCH   6  11
ATOM     11  C   UNL     1       4.168 -15.454 -13.408  0.00  0.00    +0.000 A 
ATOM     12  C   UNL     1       2.991 -14.719 -13.566  0.00  0.00    +0.000 A 
ATOM     13  C   UNL     1       4.921 -15.769 -14.541  0.00  0.00    +0.000 A 
ATOM     14  C   UNL     1       2.573 -14.308 -14.831  0.00  0.00    +0.000 A 
ATOM     15  C   UNL     1       4.507 -15.361 -15.808  0.00  0.00    +0.000 A 
ATOM     16  C   UNL     1       3.331 -14.630 -15.952  0.00  0.00    +0.000 A 
ENDBRANCH   6  11
BRANCH   8  17
ATOM     17  N   UNL     1       5.376 -18.889  -7.128  0.00  0.00    +0.000 NA
ATOM     18  H   UNL     1       5.499 -18.430  -6.232  0.00  0.00    +0.000 HD
ATOM     19  H   UNL     1       4.722 -19.661  -7.110  0.00  0.00    +0.000 HD
ENDBRANCH   8  17
TORSDOF 2
ENDMDL
MODEL 3
REMARK VINA RESULT:      -5.3     21.986     22.801
REMARK  Name = PhIP.pdbqt.pdb
REMARK  2 active torsions:
REMARK  status: ('A' for Active; 'I' for Inactive)
REMARK    1  A    between atoms: N_4  and  C_9
REMARK    2  A    between atoms: C_7  and  C_10
REMARK                            x       y       z     vdW  Elec       q    Type
REMARK                         _______ _______ _______ _____ _____    ______ ____
ROOT
ATOM      1  N   UNL     1      -4.529  18.347 -12.838  0.00  0.00    +0.000 N 
ATOM      2  N   UNL     1      -6.666  17.440 -12.305  0.00  0.00    +0.000 NA
ATOM      3  N   UNL     1      -6.616  15.615 -13.903  0.00  0.00    +0.000 NA
ATOM      4  C   UNL     1      -4.692  17.243 -13.618  0.00  0.00    +0.000 C 
ATOM      5  C   UNL     1      -6.082  16.719 -13.227  0.00  0.00    +0.000 C 
ATOM      6  C   UNL     1      -4.694  15.662 -15.471  0.00  0.00    +0.000 C 
ATOM      7  C   UNL     1      -4.163  16.738 -14.691  0.00  0.00    +0.000 C 
ATOM      8  C   UNL     1      -5.719  18.433 -12.112  0.00  0.00    +0.000 C 
ATOM      9  C   UNL     1      -3.804  19.522 -13.290  0.00  0.00    +0.000 C 
ATOM     10  C   UNL     1      -5.925  15.321 -14.813  0.00  0.00    +0.000 C 
ENDROOT
BRANCH   6  11
ATOM     11  C   UNL     1      -4.090  15.010 -16.616  0.00  0.00    +0.000 A 
ATOM     12  C   UNL     1      -2.923  14.255 -16.472  0.00  0.00    +0.000 A 
ATOM     13  C   UNL     1      -4.664  15.123 -17.884  0.00  0.00    +0.000 A 
ATOM     14  C   UNL     1      -2.341  13.627 -17.572  0.00  0.00    +0.000 A 
ATOM     15  C   UNL     1      -4.085  14.498 -18.987  0.00  0.00    +0.000 A 
ATOM     16  C   UNL     1      -2.922  13.749 -18.830  0.00  0.00    +0.000 A 
ENDBRANCH   6  11
BRANCH   8  17
ATOM     17  N   UNL     1      -6.078  19.498 -11.268  0.00  0.00    +0.000 NA
ATOM     18  H   UNL     1      -7.002  19.399 -10.863  0.00  0.00    +0.000 HD
ATOM     19  H   UNL     1      -5.356  19.729 -10.598  0.00  0.00    +0.000 HD
ENDBRANCH   8  17
TORSDOF 2
ENDMDL
MODEL 4
REMARK VINA RESULT:      -5.1     23.938     26.144
REMARK  Name = PhIP.pdbqt.pdb
REMARK  2 active torsions:
REMARK  status: ('A' for Active; 'I' for Inactive)
REMARK    1  A    between atoms: N_4  and  C_9
REMARK    2  A    between atoms: C_7  and  C_10
REMARK                            x       y       z     vdW  Elec       q    Type
REMARK                         _______ _______ _______ _____ _____    ______ ____
ROOT
ATOM      1  N   UNL     1      -9.500  -3.689 -21.919  0.00  0.00    +0.000 N 
ATOM      2  N   UNL     1     -11.005  -3.715 -20.073  0.00  0.00    +0.000 NA
ATOM      3  N   UNL     1      -9.561  -2.559 -18.502  0.00  0.00    +0.000 NA
ATOM      4  C   UNL     1      -8.885  -3.025 -20.901  0.00  0.00    +0.000 C 
ATOM      5  C   UNL     1      -9.903  -3.086 -19.754  0.00  0.00    +0.000 C 
ATOM      6  C   UNL     1      -7.249  -2.169 -19.312  0.00  0.00    +0.000 C 
ATOM      7  C   UNL     1      -7.682  -2.646 -20.590  0.00  0.00    +0.000 C 
ATOM      8  C   UNL     1     -10.721  -4.094 -21.375  0.00  0.00    +0.000 C 
ATOM      9  C   UNL     1      -8.768  -4.495 -22.880  0.00  0.00    +0.000 C 
ATOM     10  C   UNL     1      -8.424  -2.245 -18.489  0.00  0.00    +0.000 C 
ENDROOT
BRANCH   6  11
ATOM     11  C   UNL     1      -5.944  -1.651 -18.951  0.00  0.00    +0.000 A 
ATOM     12  C   UNL     1      -5.272  -2.136 -17.827  0.00  0.00    +0.000 A 
ATOM     13  C   UNL     1      -5.335  -0.658 -19.721  0.00  0.00    +0.000 A 
ATOM     14  C   UNL     1      -4.017  -1.640 -17.477  0.00  0.00    +0.000 A 
ATOM     15  C   UNL     1      -4.080  -0.158 -19.375  0.00  0.00    +0.000 A 
ATOM     16  C   UNL     1      -3.422  -0.650 -18.252  0.00  0.00    +0.000 A 
ENDBRANCH   6  11
BRANCH   8  17
ATOM     17  N   UNL     1     -11.649  -4.938 -22.007  0.00  0.00    +0.000 NA
ATOM     18  H   UNL     1     -11.218  -5.666 -22.568  0.00  0.00    +0.000 HD
ATOM     19  H   UNL     1     -12.368  -5.273 -21.379  0.00  0.00    +0.000 HD
ENDBRANCH   8  17
TORSDOF 2
ENDMDL
MODEL 5
REMARK VINA RESULT:      -5.1      1.299      1.695
REMARK  Name = PhIP.pdbqt.pdb
REMARK  2 active torsions:
REMARK  status: ('A' for Active; 'I' for Inactive)
REMARK    1  A    between atoms: N_4  and  C_9
REMARK    2  A    between atoms: C_7  and  C_10
REMARK                            x       y       z     vdW  Elec       q    Type
REMARK                         _______ _______ _______ _____ _____    ______ ____
ROOT
ATOM      1  N   UNL     1       7.395   4.425   3.102  0.00  0.00    +0.000 N 
ATOM      2  N   UNL     1       8.246   5.159   1.001  0.00  0.00    +0.000 NA
ATOM      3  N   UNL     1       6.257   4.677  -0.304  0.00  0.00    +0.000 NA
ATOM      4  C   UNL     1       6.387   4.279   2.197  0.00  0.00    +0.000 C 
ATOM      5  C   UNL     1       7.005   4.763   0.877  0.00  0.00    +0.000 C 
ATOM      6  C   UNL     1       4.484   3.452   0.923  0.00  0.00    +0.000 C 
ATOM      7  C   UNL     1       5.259   3.641   2.110  0.00  0.00    +0.000 C 
ATOM      8  C   UNL     1       8.464   4.915   2.347  0.00  0.00    +0.000 C 
ATOM      9  C   UNL     1       7.580   3.514   4.218  0.00  0.00    +0.000 C 
ATOM     10  C   UNL     1       5.253   4.090  -0.109  0.00  0.00    +0.000 C 
ENDROOT
BRANCH   6  11
ATOM     11  C   UNL     1       3.179   2.830   0.802  0.00  0.00    +0.000 A 
ATOM     12  C   UNL     1       2.047   3.599   0.524  0.00  0.00    +0.000 A 
ATOM     13  C   UNL     1       3.032   1.450   0.958  0.00  0.00    +0.000 A 
ATOM     14  C   UNL     1       0.792   3.003   0.406  0.00  0.00    +0.000 A 
ATOM     15  C   UNL     1       1.780   0.849   0.842  0.00  0.00    +0.000 A 
ATOM     16  C   UNL     1       0.659   1.627   0.565  0.00  0.00    +0.000 A 
ENDBRANCH   6  11
BRANCH   8  17
ATOM     17  N   UNL     1       9.775   5.092   2.821  0.00  0.00    +0.000 NA
ATOM     18  H   UNL     1      10.352   4.263   2.734  0.00  0.00    +0.000 HD
ATOM     19  H   UNL     1      10.209   5.936   2.469  0.00  0.00    +0.000 HD
ENDBRANCH   8  17
TORSDOF 2
ENDMDL
MODEL 6
REMARK VINA RESULT:      -5.1     19.936     22.462
REMARK  Name = PhIP.pdbqt.pdb
REMARK  2 active torsions:
REMARK  status: ('A' for Active; 'I' for Inactive)
REMARK    1  A    between atoms: N_4  and  C_9
REMARK    2  A    between atoms: C_7  and  C_10
REMARK                            x       y       z     vdW  Elec       q    Type
REMARK                         _______ _______ _______ _____ _____    ______ ____
ROOT
ATOM      1  N   UNL     1     -10.953   6.688  -8.330  0.00  0.00    +0.000 N 
ATOM      2  N   UNL     1     -11.426   4.437  -8.951  0.00  0.00    +0.000 NA
ATOM      3  N   UNL     1     -13.237   4.933 -10.488  0.00  0.00    +0.000 NA
ATOM      4  C   UNL     1     -11.949   6.738  -9.258  0.00  0.00    +0.000 C 
ATOM      5  C   UNL     1     -12.202   5.263  -9.604  0.00  0.00    +0.000 C 
ATOM      6  C   UNL     1     -13.959   7.306 -10.509  0.00  0.00    +0.000 C 
ATOM      7  C   UNL     1     -12.838   7.591  -9.669  0.00  0.00    +0.000 C 
ATOM      8  C   UNL     1     -10.705   5.323  -8.167  0.00  0.00    +0.000 C 
ATOM      9  C   UNL     1     -10.861   7.635  -7.232  0.00  0.00    +0.000 C 
ATOM     10  C   UNL     1     -13.875   5.891 -10.745  0.00  0.00    +0.000 C 
ENDROOT
BRANCH   6  11
ATOM     11  C   UNL     1     -14.917   8.242 -11.064  0.00  0.00    +0.000 A 
ATOM     12  C   UNL     1     -15.299   8.159 -12.405  0.00  0.00    +0.000 A 
ATOM     13  C   UNL     1     -15.477   9.243 -10.268  0.00  0.00    +0.000 A 
ATOM     14  C   UNL     1     -16.219   9.058 -12.941  0.00  0.00    +0.000 A 
ATOM     15  C   UNL     1     -16.398  10.145 -10.798  0.00  0.00    +0.000 A 
ATOM     16  C   UNL     1     -16.769  10.052 -12.137  0.00  0.00    +0.000 A 
ENDBRANCH   6  11
BRANCH   8  17
ATOM     17  N   UNL     1      -9.848   4.765  -7.203  0.00  0.00    +0.000 NA
ATOM     18  H   UNL     1      -9.226   4.056  -7.575  0.00  0.00    +0.000 HD
ATOM     19  H   UNL     1      -9.385   5.465  -6.637  0.00  0.00    +0.000 HD
ENDBRANCH   8  17
TORSDOF 2
ENDMDL
MODEL 7
REMARK VINA RESULT:      -5.1     21.041     22.562
REMARK  Name = PhIP.pdbqt.pdb
REMARK  2 active torsions:
REMARK  status: ('A' for Active; 'I' for Inactive)
REMARK    1  A    between atoms: N_4  and  C_9
REMARK    2  A    between atoms: C_7  and  C_10
REMARK                            x       y       z     vdW  Elec       q    Type
REMARK                         _______ _______ _______ _____ _____    ______ ____
ROOT
ATOM      1  N   UNL     1      12.562   0.011 -23.237  0.00  0.00    +0.000 N 
ATOM      2  N   UNL     1      14.219   1.722 -23.308  0.00  0.00    +0.000 NA
ATOM      3  N   UNL     1      14.159   2.285 -20.948  0.00  0.00    +0.000 NA
ATOM      4  C   UNL     1      12.727   0.453 -21.958  0.00  0.00    +0.000 C 
ATOM      5  C   UNL     1      13.795   1.548 -22.082  0.00  0.00    +0.000 C 
ATOM      6  C   UNL     1      12.353   1.173 -19.662  0.00  0.00    +0.000 C 
ATOM      7  C   UNL     1      12.082   0.396 -20.832  0.00  0.00    +0.000 C 
ATOM      8  C   UNL     1      13.435   0.803 -23.987  0.00  0.00    +0.000 C 
ATOM      9  C   UNL     1      11.279  -0.437 -23.749  0.00  0.00    +0.000 C 
ATOM     10  C   UNL     1      13.450   2.019 -20.045  0.00  0.00    +0.000 C 
ENDROOT
BRANCH   6  11
ATOM     11  C   UNL     1      11.721   1.074 -18.361  0.00  0.00    +0.000 A 
ATOM     12  C   UNL     1      11.590  -0.163 -17.726  0.00  0.00    +0.000 A 
ATOM     13  C   UNL     1      11.232   2.214 -17.719  0.00  0.00    +0.000 A 
ATOM     14  C   UNL     1      10.982  -0.261 -16.475  0.00  0.00    +0.000 A 
ATOM     15  C   UNL     1      10.623   2.122 -16.468  0.00  0.00    +0.000 A 
ATOM     16  C   UNL     1      10.499   0.882 -15.847  0.00  0.00    +0.000 A 
ENDBRANCH   6  11
BRANCH   8  17
ATOM     17  N   UNL     1      13.517   0.811 -25.390  0.00  0.00    +0.000 NA
ATOM     18  H   UNL     1      13.015   0.047 -25.829  0.00  0.00    +0.000 HD
ATOM     19  H   UNL     1      13.319   1.720 -25.789  0.00  0.00    +0.000 HD
ENDBRANCH   8  17
TORSDOF 2
ENDMDL
MODEL 8
REMARK VINA RESULT:      -5.1     14.037     15.203
REMARK  Name = PhIP.pdbqt.pdb
REMARK  2 active torsions:
REMARK  status: ('A' for Active; 'I' for Inactive)
REMARK    1  A    between atoms: N_4  and  C_9
REMARK    2  A    between atoms: C_7  and  C_10
REMARK                            x       y       z     vdW  Elec       q    Type
REMARK                         _______ _______ _______ _____ _____    ______ ____
ROOT
ATOM      1  N   UNL     1       9.574  -5.471  -6.370  0.00  0.00    +0.000 N 
ATOM      2  N   UNL     1      10.762  -5.001  -8.381  0.00  0.00    +0.000 NA
ATOM      3  N   UNL     1      12.409  -6.771  -8.167  0.00  0.00    +0.000 NA
ATOM      4  C   UNL     1      10.553  -6.411  -6.476  0.00  0.00    +0.000 C 
ATOM      5  C   UNL     1      11.275  -6.044  -7.781  0.00  0.00    +0.000 C 
ATOM      6  C   UNL     1      12.350  -7.985  -6.005  0.00  0.00    +0.000 C 
ATOM      7  C   UNL     1      11.151  -7.267  -5.703  0.00  0.00    +0.000 C 
ATOM      8  C   UNL     1       9.757  -4.657  -7.491  0.00  0.00    +0.000 C 
ATOM      9  C   UNL     1       9.128  -4.947  -5.090  0.00  0.00    +0.000 C 
ATOM     10  C   UNL     1      12.727  -7.515  -7.309  0.00  0.00    +0.000 C 
ENDROOT
BRANCH   6  11
ATOM     11  C   UNL     1      12.995  -9.014  -5.212  0.00  0.00    +0.000 A 
ATOM     12  C   UNL     1      14.388  -9.120  -5.181  0.00  0.00    +0.000 A 
ATOM     13  C   UNL     1      12.237  -9.916  -4.463  0.00  0.00    +0.000 A 
ATOM     14  C   UNL     1      15.010 -10.108  -4.419  0.00  0.00    +0.000 A 
ATOM     15  C   UNL     1      12.854 -10.905  -3.700  0.00  0.00    +0.000 A 
ATOM     16  C   UNL     1      14.243 -11.001  -3.679  0.00  0.00    +0.000 A 
ENDBRANCH   6  11
BRANCH   8  17
ATOM     17  N   UNL     1       9.067  -3.460  -7.744  0.00  0.00    +0.000 NA
ATOM     18  H   UNL     1       9.662  -2.639  -7.731  0.00  0.00    +0.000 HD
ATOM     19  H   UNL     1       8.462  -3.518  -8.554  0.00  0.00    +0.000 HD
ENDBRANCH   8  17
TORSDOF 2
ENDMDL
MODEL 9
REMARK VINA RESULT:      -4.9     24.556     26.285
REMARK  Name = PhIP.pdbqt.pdb
REMARK  2 active torsions:
REMARK  status: ('A' for Active; 'I' for Inactive)
REMARK    1  A    between atoms: N_4  and  C_9
REMARK    2  A    between atoms: C_7  and  C_10
REMARK                            x       y       z     vdW  Elec       q    Type
REMARK                         _______ _______ _______ _____ _____    ______ ____
ROOT
ATOM      1  N   UNL     1     -16.413  -5.292  -6.171  0.00  0.00    +0.000 N 
ATOM      2  N   UNL     1     -14.533  -5.841  -7.527  0.00  0.00    +0.000 NA
ATOM      3  N   UNL     1     -15.047  -4.338  -9.362  0.00  0.00    +0.000 NA
ATOM      4  C   UNL     1     -16.481  -4.499  -7.276  0.00  0.00    +0.000 C 
ATOM      5  C   UNL     1     -15.251  -4.909  -8.099  0.00  0.00    +0.000 C 
ATOM      6  C   UNL     1     -17.256  -3.222  -9.199  0.00  0.00    +0.000 C 
ATOM      7  C   UNL     1     -17.370  -3.772  -7.884  0.00  0.00    +0.000 C 
ATOM      8  C   UNL     1     -15.274  -6.074  -6.380  0.00  0.00    +0.000 C 
ATOM      9  C   UNL     1     -17.597  -5.800  -5.501  0.00  0.00    +0.000 C 
ATOM     10  C   UNL     1     -15.980  -3.685  -9.669  0.00  0.00    +0.000 C 
ENDROOT
BRANCH   6  11
ATOM     11  C   UNL     1     -18.181  -2.332  -9.875  0.00  0.00    +0.000 A 
ATOM     12  C   UNL     1     -18.295  -0.996  -9.487  0.00  0.00    +0.000 A 
ATOM     13  C   UNL     1     -18.973  -2.795 -10.928  0.00  0.00    +0.000 A 
ATOM     14  C   UNL     1     -19.183  -0.138 -10.135  0.00  0.00    +0.000 A 
ATOM     15  C   UNL     1     -19.863  -1.943 -11.579  0.00  0.00    +0.000 A 
ATOM     16  C   UNL     1     -19.967  -0.613 -11.181  0.00  0.00    +0.000 A 
ENDBRANCH   6  11
BRANCH   8  17
ATOM     17  N   UNL     1     -14.869  -7.147  -5.569  0.00  0.00    +0.000 NA
ATOM     18  H   UNL     1     -15.153  -8.053  -5.925  0.00  0.00    +0.000 HD
ATOM     19  H   UNL     1     -13.893  -7.094  -5.305  0.00  0.00    +0.000 HD
ENDBRANCH   8  17
TORSDOF 2
ENDMDL
