MODEL 1
REMARK VINA RESULT:      -6.0      0.000      0.000
REMARK  Name = Piroxicam.pdbqt.pdb
REMARK  3 active torsions:
REMARK  status: ('A' for Active; 'I' for Inactive)
REMARK    1  A    between atoms: C_7  and  C_14
REMARK    2  A    between atoms: C_8  and  O_24
REMARK    3  A    between atoms: N_16  and  C_18
REMARK                            x       y       z     vdW  Elec       q    Type
REMARK                         _______ _______ _______ _____ _____    ______ ____
ROOT
ATOM      1  S   UNL     1      11.138   0.343 -19.930  0.00  0.00    +0.000 S 
ATOM      2  O   UNL     1      12.543   0.064 -20.161  0.00  0.00    +0.000 OA
ATOM      3  O   UNL     1      10.385   1.169 -20.854  0.00  0.00    +0.000 OA
ATOM      4  N   UNL     1      10.321  -1.149 -19.656  0.00  0.00    +0.000 N 
ATOM      5  C   UNL     1      11.034   1.075 -18.343  0.00  0.00    +0.000 A 
ATOM      6  C   UNL     1      11.061   0.224 -17.239  0.00  0.00    +0.000 A 
ATOM      7  C   UNL     1      10.836  -1.886 -18.537  0.00  0.00    +0.000 C 
ATOM      8  C   UNL     1      11.188  -1.237 -17.403  0.00  0.00    +0.000 C 
ATOM      9  C   UNL     1      10.899   2.453 -18.226  0.00  0.00    +0.000 A 
ATOM     10  C   UNL     1       8.849  -1.166 -19.704  0.00  0.00    +0.000 C 
ATOM     11  C   UNL     1      10.989   0.808 -15.973  0.00  0.00    +0.000 A 
ATOM     12  C   UNL     1      10.816   3.010 -16.956  0.00  0.00    +0.000 A 
ATOM     13  C   UNL     1      10.866   2.191 -15.830  0.00  0.00    +0.000 A 
ENDROOT
BRANCH   7  14
ATOM     14  C   UNL     1      10.986  -3.373 -18.665  0.00  0.00    +0.000 C 
ATOM     15  O   UNL     1      10.442  -4.106 -17.841  0.00  0.00    +0.000 OA
ATOM     16  N   UNL     1      11.750  -3.790 -19.724  0.00  0.00    +0.000 N 
ATOM     17  H   UNL     1      12.108  -3.121 -20.396  0.00  0.00    +0.000 HD
BRANCH  16  18
ATOM     18  C   UNL     1      12.067  -5.110 -20.050  0.00  0.00    +0.000 A 
ATOM     19  N   UNL     1      11.130  -5.740 -20.787  0.00  0.00    +0.000 NA
ATOM     20  C   UNL     1      11.388  -7.021 -21.135  0.00  0.00    +0.000 A 
ATOM     21  C   UNL     1      12.537  -7.708 -20.786  0.00  0.00    +0.000 A 
ATOM     22  C   UNL     1      13.482  -7.030 -20.029  0.00  0.00    +0.000 A 
ATOM     23  C   UNL     1      13.252  -5.713 -19.652  0.00  0.00    +0.000 A 
ENDBRANCH  16  18
ENDBRANCH   7  14
BRANCH   8  24
ATOM     24  O   UNL     1      11.688  -1.872 -16.278  0.00  0.00    +0.000 OA
ATOM     25  H   UNL     1      11.013  -1.857 -15.562  0.00  0.00    +0.000 HD
ENDBRANCH   8  24
TORSDOF 3
ENDMDL
MODEL 2
REMARK VINA RESULT:      -6.0     11.814     14.254
REMARK  Name = Piroxicam.pdbqt.pdb
REMARK  3 active torsions:
REMARK  status: ('A' for Active; 'I' for Inactive)
REMARK    1  A    between atoms: C_7  and  C_14
REMARK    2  A    between atoms: C_8  and  O_24
REMARK    3  A    between atoms: N_16  and  C_18
REMARK                            x       y       z     vdW  Elec       q    Type
REMARK                         _______ _______ _______ _____ _____    ______ ____
ROOT
ATOM      1  S   UNL     1      -3.679  -1.978 -17.614  0.00  0.00    +0.000 S 
ATOM      2  O   UNL     1      -2.939  -3.216 -17.453  0.00  0.00    +0.000 OA
ATOM      3  O   UNL     1      -4.478  -1.447 -16.528  0.00  0.00    +0.000 OA
ATOM      4  N   UNL     1      -2.606  -0.773 -18.216  0.00  0.00    +0.000 N 
ATOM      5  C   UNL     1      -4.729  -2.208 -18.996  0.00  0.00    +0.000 A 
ATOM      6  C   UNL     1      -4.169  -2.055 -20.263  0.00  0.00    +0.000 A 
ATOM      7  C   UNL     1      -2.004  -1.117 -19.473  0.00  0.00    +0.000 C 
ATOM      8  C   UNL     1      -2.740  -1.725 -20.433  0.00  0.00    +0.000 C 
ATOM      9  C   UNL     1      -6.074  -2.502 -18.800  0.00  0.00    +0.000 A 
ATOM     10  C   UNL     1      -3.034   0.637 -18.173  0.00  0.00    +0.000 C 
ATOM     11  C   UNL     1      -5.004  -2.247 -21.365  0.00  0.00    +0.000 A 
ATOM     12  C   UNL     1      -6.888  -2.676 -19.912  0.00  0.00    +0.000 A 
ATOM     13  C   UNL     1      -6.354  -2.556 -21.193  0.00  0.00    +0.000 A 
ENDROOT
BRANCH   7  14
ATOM     14  C   UNL     1      -0.553  -0.805 -19.683  0.00  0.00    +0.000 C 
ATOM     15  O   UNL     1      -0.147  -0.563 -20.819  0.00  0.00    +0.000 OA
ATOM     16  N   UNL     1       0.216  -0.827 -18.548  0.00  0.00    +0.000 N 
ATOM     17  H   UNL     1      -0.211  -0.971 -17.640  0.00  0.00    +0.000 HD
BRANCH  16  18
ATOM     18  C   UNL     1       1.591  -0.601 -18.473  0.00  0.00    +0.000 A 
ATOM     19  N   UNL     1       1.949   0.693 -18.602  0.00  0.00    +0.000 NA
ATOM     20  C   UNL     1       3.271   0.970 -18.532  0.00  0.00    +0.000 A 
ATOM     21  C   UNL     1       4.258   0.020 -18.337  0.00  0.00    +0.000 A 
ATOM     22  C   UNL     1       3.856  -1.301 -18.205  0.00  0.00    +0.000 A 
ATOM     23  C   UNL     1       2.506  -1.625 -18.272  0.00  0.00    +0.000 A 
ENDBRANCH  16  18
ENDBRANCH   7  14
BRANCH   8  24
ATOM     24  O   UNL     1      -2.239  -2.088 -21.671  0.00  0.00    +0.000 OA
ATOM     25  H   UNL     1      -2.834  -2.753 -22.088  0.00  0.00    +0.000 HD
ENDBRANCH   8  24
TORSDOF 3
ENDMDL
MODEL 3
REMARK VINA RESULT:      -5.8     13.594     15.599
REMARK  Name = Piroxicam.pdbqt.pdb
REMARK  3 active torsions:
REMARK  status: ('A' for Active; 'I' for Inactive)
REMARK    1  A    between atoms: C_7  and  C_14
REMARK    2  A    between atoms: C_8  and  O_24
REMARK    3  A    between atoms: N_16  and  C_18
REMARK                            x       y       z     vdW  Elec       q    Type
REMARK                         _______ _______ _______ _____ _____    ______ ____
ROOT
ATOM      1  S   UNL     1      -2.197   1.660 -22.849  0.00  0.00    +0.000 S 
ATOM      2  O   UNL     1      -1.721   0.293 -22.752  0.00  0.00    +0.000 OA
ATOM      3  O   UNL     1      -2.451   2.266 -24.141  0.00  0.00    +0.000 OA
ATOM      4  N   UNL     1      -3.568   1.837 -21.822  0.00  0.00    +0.000 N 
ATOM      5  C   UNL     1      -1.023   2.651 -22.008  0.00  0.00    +0.000 A 
ATOM      6  C   UNL     1      -1.104   2.705 -20.618  0.00  0.00    +0.000 A 
ATOM      7  C   UNL     1      -3.295   1.539 -20.445  0.00  0.00    +0.000 C 
ATOM      8  C   UNL     1      -2.132   1.945 -19.882  0.00  0.00    +0.000 C 
ATOM      9  C   UNL     1      -0.078   3.367 -22.735  0.00  0.00    +0.000 A 
ATOM     10  C   UNL     1      -4.414   3.034 -21.975  0.00  0.00    +0.000 C 
ATOM     11  C   UNL     1      -0.163   3.488 -19.947  0.00  0.00    +0.000 A 
ATOM     12  C   UNL     1       0.841   4.149 -22.045  0.00  0.00    +0.000 A 
ATOM     13  C   UNL     1       0.804   4.205 -20.654  0.00  0.00    +0.000 A 
ENDROOT
BRANCH   7  14
ATOM     14  C   UNL     1      -4.311   0.762 -19.662  0.00  0.00    +0.000 C 
ATOM     15  O   UNL     1      -4.516   1.053 -18.485  0.00  0.00    +0.000 OA
ATOM     16  N   UNL     1      -4.935  -0.242 -20.358  0.00  0.00    +0.000 N 
ATOM     17  H   UNL     1      -4.754  -0.372 -21.346  0.00  0.00    +0.000 HD
BRANCH  16  18
ATOM     18  C   UNL     1      -5.894  -1.125 -19.859  0.00  0.00    +0.000 A 
ATOM     19  N   UNL     1      -7.167  -0.776 -20.135  0.00  0.00    +0.000 NA
ATOM     20  C   UNL     1      -8.137  -1.600 -19.678  0.00  0.00    +0.000 A 
ATOM     21  C   UNL     1      -7.903  -2.759 -18.960  0.00  0.00    +0.000 A 
ATOM     22  C   UNL     1      -6.582  -3.090 -18.695  0.00  0.00    +0.000 A 
ATOM     23  C   UNL     1      -5.558  -2.268 -19.148  0.00  0.00    +0.000 A 
ENDBRANCH  16  18
ENDBRANCH   7  14
BRANCH   8  24
ATOM     24  O   UNL     1      -1.792   1.702 -18.562  0.00  0.00    +0.000 OA
ATOM     25  H   UNL     1      -1.160   0.949 -18.516  0.00  0.00    +0.000 HD
ENDBRANCH   8  24
TORSDOF 3
ENDMDL
MODEL 4
REMARK VINA RESULT:      -5.8     26.213     28.077
REMARK  Name = Piroxicam.pdbqt.pdb
REMARK  3 active torsions:
REMARK  status: ('A' for Active; 'I' for Inactive)
REMARK    1  A    between atoms: C_7  and  C_14
REMARK    2  A    between atoms: C_8  and  O_24
REMARK    3  A    between atoms: N_16  and  C_18
REMARK                            x       y       z     vdW  Elec       q    Type
REMARK                         _______ _______ _______ _____ _____    ______ ____
ROOT
ATOM      1  S   UNL     1     -11.516   5.315  -9.582  0.00  0.00    +0.000 S 
ATOM      2  O   UNL     1     -11.917   4.084  -8.925  0.00  0.00    +0.000 OA
ATOM      3  O   UNL     1     -10.237   5.411 -10.258  0.00  0.00    +0.000 OA
ATOM      4  N   UNL     1     -12.788   5.816 -10.630  0.00  0.00    +0.000 N 
ATOM      5  C   UNL     1     -11.578   6.568  -8.361  0.00  0.00    +0.000 A 
ATOM      6  C   UNL     1     -12.825   7.116  -8.064  0.00  0.00    +0.000 A 
ATOM      7  C   UNL     1     -14.034   6.038  -9.953  0.00  0.00    +0.000 C 
ATOM      8  C   UNL     1     -14.048   6.646  -8.743  0.00  0.00    +0.000 C 
ATOM      9  C   UNL     1     -10.404   6.998  -7.753  0.00  0.00    +0.000 A 
ATOM     10  C   UNL     1     -12.506   6.858 -11.633  0.00  0.00    +0.000 C 
ATOM     11  C   UNL     1     -12.876   8.109  -7.084  0.00  0.00    +0.000 A 
ATOM     12  C   UNL     1     -10.479   7.997  -6.790  0.00  0.00    +0.000 A 
ATOM     13  C   UNL     1     -11.713   8.548  -6.450  0.00  0.00    +0.000 A 
ENDROOT
BRANCH   7  14
ATOM     14  C   UNL     1     -15.300   5.570 -10.606  0.00  0.00    +0.000 C 
ATOM     15  O   UNL     1     -16.357   6.145 -10.353  0.00  0.00    +0.000 OA
ATOM     16  N   UNL     1     -15.155   4.499 -11.451  0.00  0.00    +0.000 N 
ATOM     17  H   UNL     1     -14.236   4.125 -11.655  0.00  0.00    +0.000 HD
BRANCH  16  18
ATOM     18  C   UNL     1     -16.173   3.857 -12.157  0.00  0.00    +0.000 A 
ATOM     19  N   UNL     1     -16.389   4.352 -13.392  0.00  0.00    +0.000 NA
ATOM     20  C   UNL     1     -17.363   3.763 -14.124  0.00  0.00    +0.000 A 
ATOM     21  C   UNL     1     -18.132   2.700 -13.686  0.00  0.00    +0.000 A 
ATOM     22  C   UNL     1     -17.882   2.212 -12.411  0.00  0.00    +0.000 A 
ATOM     23  C   UNL     1     -16.890   2.792 -11.630  0.00  0.00    +0.000 A 
ENDBRANCH  16  18
ENDBRANCH   7  14
BRANCH   8  24
ATOM     24  O   UNL     1     -15.204   6.901  -8.025  0.00  0.00    +0.000 OA
ATOM     25  H   UNL     1     -15.980   6.888  -8.632  0.00  0.00    +0.000 HD
ENDBRANCH   8  24
TORSDOF 3
ENDMDL
MODEL 5
REMARK VINA RESULT:      -5.7      4.061      5.055
REMARK  Name = Piroxicam.pdbqt.pdb
REMARK  3 active torsions:
REMARK  status: ('A' for Active; 'I' for Inactive)
REMARK    1  A    between atoms: C_7  and  C_14
REMARK    2  A    between atoms: C_8  and  O_24
REMARK    3  A    between atoms: N_16  and  C_18
REMARK                            x       y       z     vdW  Elec       q    Type
REMARK                         _______ _______ _______ _____ _____    ______ ____
ROOT
ATOM      1  S   UNL     1       8.725   2.596 -19.124  0.00  0.00    +0.000 S 
ATOM      2  O   UNL     1       9.419   2.527 -20.397  0.00  0.00    +0.000 OA
ATOM      3  O   UNL     1       8.252   3.866 -18.607  0.00  0.00    +0.000 OA
ATOM      4  N   UNL     1       7.449   1.439 -19.132  0.00  0.00    +0.000 N 
ATOM      5  C   UNL     1       9.803   1.895 -17.936  0.00  0.00    +0.000 A 
ATOM      6  C   UNL     1       9.849   0.505 -17.851  0.00  0.00    +0.000 A 
ATOM      7  C   UNL     1       7.900   0.092 -19.340  0.00  0.00    +0.000 C 
ATOM      8  C   UNL     1       9.032  -0.344 -18.740  0.00  0.00    +0.000 C 
ATOM      9  C   UNL     1      10.546   2.725 -17.104  0.00  0.00    +0.000 A 
ATOM     10  C   UNL     1       6.413   1.524 -18.088  0.00  0.00    +0.000 C 
ATOM     11  C   UNL     1      10.716  -0.055 -16.910  0.00  0.00    +0.000 A 
ATOM     12  C   UNL     1      11.391   2.144 -16.167  0.00  0.00    +0.000 A 
ATOM     13  C   UNL     1      11.482   0.757 -16.073  0.00  0.00    +0.000 A 
ENDROOT
BRANCH   7  14
ATOM     14  C   UNL     1       7.101  -0.802 -20.241  0.00  0.00    +0.000 C 
ATOM     15  O   UNL     1       6.963  -0.496 -21.424  0.00  0.00    +0.000 OA
ATOM     16  N   UNL     1       6.575  -1.915 -19.637  0.00  0.00    +0.000 N 
ATOM     17  H   UNL     1       6.793  -2.128 -18.670  0.00  0.00    +0.000 HD
BRANCH  16  18
ATOM     18  C   UNL     1       5.776  -2.887 -20.240  0.00  0.00    +0.000 A 
ATOM     19  N   UNL     1       6.446  -3.987 -20.639  0.00  0.00    +0.000 NA
ATOM     20  C   UNL     1       5.718  -4.964 -21.227  0.00  0.00    +0.000 A 
ATOM     21  C   UNL     1       4.352  -4.901 -21.436  0.00  0.00    +0.000 A 
ATOM     22  C   UNL     1       3.692  -3.757 -21.011  0.00  0.00    +0.000 A 
ATOM     23  C   UNL     1       4.407  -2.731 -20.404  0.00  0.00    +0.000 A 
ENDBRANCH  16  18
ENDBRANCH   7  14
BRANCH   8  24
ATOM     24  O   UNL     1       9.534  -1.627 -18.884  0.00  0.00    +0.000 OA
ATOM     25  H   UNL     1       9.133  -2.217 -18.205  0.00  0.00    +0.000 HD
ENDBRANCH   8  24
TORSDOF 3
ENDMDL
MODEL 6
REMARK VINA RESULT:      -5.7      5.322      6.607
REMARK  Name = Piroxicam.pdbqt.pdb
REMARK  3 active torsions:
REMARK  status: ('A' for Active; 'I' for Inactive)
REMARK    1  A    between atoms: C_7  and  C_14
REMARK    2  A    between atoms: C_8  and  O_24
REMARK    3  A    between atoms: N_16  and  C_18
REMARK                            x       y       z     vdW  Elec       q    Type
REMARK                         _______ _______ _______ _____ _____    ______ ____
ROOT
ATOM      1  S   UNL     1      10.127   2.128 -22.211  0.00  0.00    +0.000 S 
ATOM      2  O   UNL     1      10.485   3.377 -22.857  0.00  0.00    +0.000 OA
ATOM      3  O   UNL     1       8.885   1.455 -22.537  0.00  0.00    +0.000 OA
ATOM      4  N   UNL     1      11.455   1.039 -22.352  0.00  0.00    +0.000 N 
ATOM      5  C   UNL     1      10.137   2.443 -20.489  0.00  0.00    +0.000 A 
ATOM      6  C   UNL     1      11.371   2.441 -19.842  0.00  0.00    +0.000 A 
ATOM      7  C   UNL     1      12.666   1.534 -21.762  0.00  0.00    +0.000 C 
ATOM      8  C   UNL     1      12.624   2.197 -20.583  0.00  0.00    +0.000 C 
ATOM      9  C   UNL     1       8.937   2.652 -19.819  0.00  0.00    +0.000 A 
ATOM     10  C   UNL     1      11.232  -0.386 -22.052  0.00  0.00    +0.000 C 
ATOM     11  C   UNL     1      11.380   2.701 -18.470  0.00  0.00    +0.000 A 
ATOM     12  C   UNL     1       8.970   2.896 -18.452  0.00  0.00    +0.000 A 
ATOM     13  C   UNL     1      10.189   2.927 -17.778  0.00  0.00    +0.000 A 
ENDROOT
BRANCH   7  14
ATOM     14  C   UNL     1      13.960   1.313 -22.486  0.00  0.00    +0.000 C 
ATOM     15  O   UNL     1      14.911   0.819 -21.884  0.00  0.00    +0.000 OA
ATOM     16  N   UNL     1      13.963   1.703 -23.801  0.00  0.00    +0.000 N 
ATOM     17  H   UNL     1      13.114   2.041 -24.240  0.00  0.00    +0.000 HD
BRANCH  16  18
ATOM     18  C   UNL     1      15.041   1.632 -24.685  0.00  0.00    +0.000 A 
ATOM     19  N   UNL     1      15.608   2.823 -24.964  0.00  0.00    +0.000 NA
ATOM     20  C   UNL     1      16.661   2.813 -25.813  0.00  0.00    +0.000 A 
ATOM     21  C   UNL     1      17.180   1.672 -26.399  0.00  0.00    +0.000 A 
ATOM     22  C   UNL     1      16.574   0.463 -26.089  0.00  0.00    +0.000 A 
ATOM     23  C   UNL     1      15.490   0.434 -25.221  0.00  0.00    +0.000 A 
ENDBRANCH  16  18
ENDBRANCH   7  14
BRANCH   8  24
ATOM     24  O   UNL     1      13.744   2.703 -19.945  0.00  0.00    +0.000 OA
ATOM     25  H   UNL     1      13.817   3.669 -20.121  0.00  0.00    +0.000 HD
ENDBRANCH   8  24
TORSDOF 3
ENDMDL
MODEL 7
REMARK VINA RESULT:      -5.4     21.321     23.968
REMARK  Name = Piroxicam.pdbqt.pdb
REMARK  3 active torsions:
REMARK  status: ('A' for Active; 'I' for Inactive)
REMARK    1  A    between atoms: C_7  and  C_14
REMARK    2  A    between atoms: C_8  and  O_24
REMARK    3  A    between atoms: N_16  and  C_18
REMARK                            x       y       z     vdW  Elec       q    Type
REMARK                         _______ _______ _______ _____ _____    ______ ____
ROOT
ATOM      1  S   UNL     1     -10.880  -1.056 -22.115  0.00  0.00    +0.000 S 
ATOM      2  O   UNL     1     -12.319  -0.930 -22.256  0.00  0.00    +0.000 OA
ATOM      3  O   UNL     1     -10.106  -1.818 -23.076  0.00  0.00    +0.000 OA
ATOM      4  N   UNL     1     -10.210   0.518 -21.916  0.00  0.00    +0.000 N 
ATOM      5  C   UNL     1     -10.598  -1.741 -20.529  0.00  0.00    +0.000 A 
ATOM      6  C   UNL     1     -10.643  -0.876 -19.437  0.00  0.00    +0.000 A 
ATOM      7  C   UNL     1     -10.725   1.219 -20.775  0.00  0.00    +0.000 C 
ATOM      8  C   UNL     1     -10.933   0.560 -19.611  0.00  0.00    +0.000 C 
ATOM      9  C   UNL     1     -10.311  -3.096 -20.404  0.00  0.00    +0.000 A 
ATOM     10  C   UNL     1      -8.753   0.687 -22.061  0.00  0.00    +0.000 C 
ATOM     11  C   UNL     1     -10.428  -1.424 -18.171  0.00  0.00    +0.000 A 
ATOM     12  C   UNL     1     -10.087  -3.615 -19.134  0.00  0.00    +0.000 A 
ATOM     13  C   UNL     1     -10.151  -2.783 -18.019  0.00  0.00    +0.000 A 
ENDROOT
BRANCH   7  14
ATOM     14  C   UNL     1     -11.040   2.679 -20.911  0.00  0.00    +0.000 C 
ATOM     15  O   UNL     1     -10.118   3.487 -21.008  0.00  0.00    +0.000 OA
ATOM     16  N   UNL     1     -12.376   2.988 -20.909  0.00  0.00    +0.000 N 
ATOM     17  H   UNL     1     -13.074   2.254 -20.892  0.00  0.00    +0.000 HD
BRANCH  16  18
ATOM     18  C   UNL     1     -12.932   4.265 -20.994  0.00  0.00    +0.000 A 
ATOM     19  N   UNL     1     -13.302   4.789 -19.808  0.00  0.00    +0.000 NA
ATOM     20  C   UNL     1     -13.845   6.028 -19.831  0.00  0.00    +0.000 A 
ATOM     21  C   UNL     1     -14.035   6.775 -20.980  0.00  0.00    +0.000 A 
ATOM     22  C   UNL     1     -13.641   6.208 -22.184  0.00  0.00    +0.000 A 
ATOM     23  C   UNL     1     -13.081   4.936 -22.199  0.00  0.00    +0.000 A 
ENDBRANCH  16  18
ENDBRANCH   7  14
BRANCH   8  24
ATOM     24  O   UNL     1     -11.424   1.161 -18.464  0.00  0.00    +0.000 OA
ATOM     25  H   UNL     1     -10.750   1.108 -17.748  0.00  0.00    +0.000 HD
ENDBRANCH   8  24
TORSDOF 3
ENDMDL
MODEL 8
REMARK VINA RESULT:      -5.4     16.536     17.637
REMARK  Name = Piroxicam.pdbqt.pdb
REMARK  3 active torsions:
REMARK  status: ('A' for Active; 'I' for Inactive)
REMARK    1  A    between atoms: C_7  and  C_14
REMARK    2  A    between atoms: C_8  and  O_24
REMARK    3  A    between atoms: N_16  and  C_18
REMARK                            x       y       z     vdW  Elec       q    Type
REMARK                         _______ _______ _______ _____ _____    ______ ____
ROOT
ATOM      1  S   UNL     1       6.312 -16.989 -14.049  0.00  0.00    +0.000 S 
ATOM      2  O   UNL     1       7.451 -16.119 -14.274  0.00  0.00    +0.000 OA
ATOM      3  O   UNL     1       5.743 -17.759 -15.139  0.00  0.00    +0.000 OA
ATOM      4  N   UNL     1       6.661 -18.013 -12.709  0.00  0.00    +0.000 N 
ATOM      5  C   UNL     1       5.047 -15.983 -13.379  0.00  0.00    +0.000 A 
ATOM      6  C   UNL     1       5.110 -15.691 -12.017  0.00  0.00    +0.000 A 
ATOM      7  C   UNL     1       6.939 -17.295 -11.497  0.00  0.00    +0.000 C 
ATOM      8  C   UNL     1       6.211 -16.200 -11.177  0.00  0.00    +0.000 C 
ATOM      9  C   UNL     1       4.016 -15.535 -14.196  0.00  0.00    +0.000 A 
ATOM     10  C   UNL     1       5.801 -19.186 -12.475  0.00  0.00    +0.000 C 
ATOM     11  C   UNL     1       4.106 -14.881 -11.484  0.00  0.00    +0.000 A 
ATOM     12  C   UNL     1       3.021 -14.740 -13.640  0.00  0.00    +0.000 A 
ATOM     13  C   UNL     1       3.068 -14.408 -12.287  0.00  0.00    +0.000 A 
ENDROOT
BRANCH   7  14
ATOM     14  C   UNL     1       8.055 -17.775 -10.618  0.00  0.00    +0.000 C 
ATOM     15  O   UNL     1       7.814 -18.074  -9.449  0.00  0.00    +0.000 OA
ATOM     16  N   UNL     1       9.285 -17.833 -11.220  0.00  0.00    +0.000 N 
ATOM     17  H   UNL     1       9.384 -17.631 -12.208  0.00  0.00    +0.000 HD
BRANCH  16  18
ATOM     18  C   UNL     1      10.486 -18.216 -10.620  0.00  0.00    +0.000 A 
ATOM     19  N   UNL     1      11.155 -17.208 -10.025  0.00  0.00    +0.000 NA
ATOM     20  C   UNL     1      12.325 -17.525  -9.424  0.00  0.00    +0.000 A 
ATOM     21  C   UNL     1      12.862 -18.799  -9.384  0.00  0.00    +0.000 A 
ATOM     22  C   UNL     1      12.146 -19.814 -10.003  0.00  0.00    +0.000 A 
ATOM     23  C   UNL     1      10.941 -19.527 -10.632  0.00  0.00    +0.000 A 
ENDBRANCH  16  18
ENDBRANCH   7  14
BRANCH   8  24
ATOM     24  O   UNL     1       6.411 -15.454 -10.028  0.00  0.00    +0.000 OA
ATOM     25  H   UNL     1       6.688 -16.047  -9.292  0.00  0.00    +0.000 HD
ENDBRANCH   8  24
TORSDOF 3
ENDMDL
MODEL 9
REMARK VINA RESULT:      -5.3     21.158     22.173
REMARK  Name = Piroxicam.pdbqt.pdb
REMARK  3 active torsions:
REMARK  status: ('A' for Active; 'I' for Inactive)
REMARK    1  A    between atoms: C_7  and  C_14
REMARK    2  A    between atoms: C_8  and  O_24
REMARK    3  A    between atoms: N_16  and  C_18
REMARK                            x       y       z     vdW  Elec       q    Type
REMARK                         _______ _______ _______ _____ _____    ______ ____
ROOT
ATOM      1  S   UNL     1       9.268   3.548   0.642  0.00  0.00    +0.000 S 
ATOM      2  O   UNL     1       8.910   2.497  -0.292  0.00  0.00    +0.000 OA
ATOM      3  O   UNL     1       9.913   4.761   0.180  0.00  0.00    +0.000 OA
ATOM      4  N   UNL     1       7.884   3.929   1.595  0.00  0.00    +0.000 N 
ATOM      5  C   UNL     1      10.304   2.808   1.844  0.00  0.00    +0.000 A 
ATOM      6  C   UNL     1       9.690   2.088   2.867  0.00  0.00    +0.000 A 
ATOM      7  C   UNL     1       7.371   2.810   2.333  0.00  0.00    +0.000 C 
ATOM      8  C   UNL     1       8.223   1.942   2.926  0.00  0.00    +0.000 C 
ATOM      9  C   UNL     1      11.682   2.979   1.766  0.00  0.00    +0.000 A 
ATOM     10  C   UNL     1       7.899   5.165   2.397  0.00  0.00    +0.000 C 
ATOM     11  C   UNL     1      10.517   1.489   3.820  0.00  0.00    +0.000 A 
ATOM     12  C   UNL     1      12.483   2.384   2.734  0.00  0.00    +0.000 A 
ATOM     13  C   UNL     1      11.903   1.635   3.756  0.00  0.00    +0.000 A 
ENDROOT
BRANCH   7  14
ATOM     14  C   UNL     1       5.885   2.623   2.412  0.00  0.00    +0.000 C 
ATOM     15  O   UNL     1       5.339   2.605   3.514  0.00  0.00    +0.000 OA
ATOM     16  N   UNL     1       5.253   2.477   1.204  0.00  0.00    +0.000 N 
ATOM     17  H   UNL     1       5.771   2.571   0.338  0.00  0.00    +0.000 HD
BRANCH  16  18
ATOM     18  C   UNL     1       3.889   2.263   1.002  0.00  0.00    +0.000 A 
ATOM     19  N   UNL     1       3.172   3.389   0.814  0.00  0.00    +0.000 NA
ATOM     20  C   UNL     1       1.843   3.239   0.609  0.00  0.00    +0.000 A 
ATOM     21  C   UNL     1       1.192   2.019   0.578  0.00  0.00    +0.000 A 
ATOM     22  C   UNL     1       1.959   0.880   0.772  0.00  0.00    +0.000 A 
ATOM     23  C   UNL     1       3.327   0.994   0.986  0.00  0.00    +0.000 A 
ENDBRANCH  16  18
ENDBRANCH   7  14
BRANCH   8  24
ATOM     24  O   UNL     1       7.812   0.841   3.659  0.00  0.00    +0.000 OA
ATOM     25  H   UNL     1       8.094   0.943   4.596  0.00  0.00    +0.000 HD
ENDBRANCH   8  24
TORSDOF 3
ENDMDL
