MODEL 1
REMARK VINA RESULT:      -5.9      0.000      0.000
REMARK  Name = PKR_Inhibitor.pdbqt.pdb
REMARK  0 active torsions:
REMARK  status: ('A' for Active; 'I' for Inactive)
REMARK                            x       y       z     vdW  Elec       q    Type
REMARK                         _______ _______ _______ _____ _____    ______ ____
ROOT
ATOM      1  S   UNL     1     -14.045   8.658  -9.315  0.00  0.00    +0.000 S 
ATOM      2  O   UNL     1     -10.169   4.649  -7.788  0.00  0.00    +0.000 OA
ATOM      3  N   UNL     1     -10.982   4.877  -9.977  0.00  0.00    +0.000 N 
ATOM      4  N   UNL     1     -14.640   8.522 -11.845  0.00  0.00    +0.000 NA
ATOM      5  C   UNL     1     -12.422   6.632  -9.737  0.00  0.00    +0.000 A 
ATOM      6  C   UNL     1     -11.876   5.696 -10.651  0.00  0.00    +0.000 A 
ATOM      7  C   UNL     1     -11.803   6.345  -8.412  0.00  0.00    +0.000 C 
ATOM      8  C   UNL     1     -13.317   7.499 -10.267  0.00  0.00    +0.000 A 
ATOM      9  C   UNL     1     -10.869   5.190  -8.622  0.00  0.00    +0.000 C 
ATOM     10  C   UNL     1     -13.712   7.527 -11.587  0.00  0.00    +0.000 A 
ATOM     11  C   UNL     1     -12.195   5.625 -12.004  0.00  0.00    +0.000 A 
ATOM     12  C   UNL     1     -11.976   6.922  -7.266  0.00  0.00    +0.000 C 
ATOM     13  C   UNL     1     -13.138   6.573 -12.461  0.00  0.00    +0.000 A 
ATOM     14  C   UNL     1     -14.881   9.169 -10.723  0.00  0.00    +0.000 A 
ATOM     15  H   UNL     1     -10.455   4.126 -10.400  0.00  0.00    +0.000 HD
ATOM     16  C   UNL     1     -12.110   7.498  -5.980  0.00  0.00    +0.000 C 
ATOM     17  N   UNL     1     -11.439   7.086  -4.863  0.00  0.00    +0.000 N 
ATOM     18  C   UNL     1     -11.834   7.884  -3.825  0.00  0.00    +0.000 C 
ATOM     19  H   UNL     1     -10.771   6.329  -4.806  0.00  0.00    +0.000 HD
ATOM     20  N   UNL     1     -12.715   8.778  -4.217  0.00  0.00    +0.000 NA
ATOM     21  C   UNL     1     -12.895   8.546  -5.559  0.00  0.00    +0.000 C 
ENDROOT
TORSDOF 0
ENDMDL
MODEL 2
REMARK VINA RESULT:      -5.8     25.848     27.872
REMARK  Name = PKR_Inhibitor.pdbqt.pdb
REMARK  0 active torsions:
REMARK  status: ('A' for Active; 'I' for Inactive)
REMARK                            x       y       z     vdW  Elec       q    Type
REMARK                         _______ _______ _______ _____ _____    ______ ____
ROOT
ATOM      1  S   UNL     1      13.195  -7.955  -5.761  0.00  0.00    +0.000 S 
ATOM      2  O   UNL     1       9.154  -3.824  -5.940  0.00  0.00    +0.000 OA
ATOM      3  N   UNL     1      10.337  -4.543  -7.834  0.00  0.00    +0.000 N 
ATOM      4  N   UNL     1      14.227  -8.409  -8.106  0.00  0.00    +0.000 NA
ATOM      5  C   UNL     1      11.693  -6.142  -6.933  0.00  0.00    +0.000 A 
ATOM      6  C   UNL     1      11.326  -5.470  -8.126  0.00  0.00    +0.000 A 
ATOM      7  C   UNL     1      10.854  -5.567  -5.843  0.00  0.00    +0.000 C 
ATOM      8  C   UNL     1      12.658  -7.081  -7.075  0.00  0.00    +0.000 A 
ATOM      9  C   UNL     1       9.984  -4.526  -6.484  0.00  0.00    +0.000 C 
ATOM     10  C   UNL     1      13.279  -7.411  -8.261  0.00  0.00    +0.000 A 
ATOM     11  C   UNL     1      11.879  -5.714  -9.380  0.00  0.00    +0.000 A 
ATOM     12  C   UNL     1      10.817  -5.847  -4.580  0.00  0.00    +0.000 C 
ATOM     13  C   UNL     1      12.878  -6.713  -9.424  0.00  0.00    +0.000 A 
ATOM     14  C   UNL     1      14.259  -8.761  -6.837  0.00  0.00    +0.000 A 
ATOM     15  H   UNL     1       9.900  -3.932  -8.511  0.00  0.00    +0.000 HD
ATOM     16  C   UNL     1      10.716  -6.094  -3.190  0.00  0.00    +0.000 C 
ATOM     17  N   UNL     1       9.864  -5.449  -2.339  0.00  0.00    +0.000 N 
ATOM     18  C   UNL     1      10.061  -5.962  -1.087  0.00  0.00    +0.000 C 
ATOM     19  H   UNL     1       9.204  -4.722  -2.583  0.00  0.00    +0.000 HD
ATOM     20  N   UNL     1      10.988  -6.895  -1.093  0.00  0.00    +0.000 NA
ATOM     21  C   UNL     1      11.403  -6.986  -2.400  0.00  0.00    +0.000 C 
ENDROOT
TORSDOF 0
ENDMDL
MODEL 3
REMARK VINA RESULT:      -5.7      2.396      3.915
REMARK  Name = PKR_Inhibitor.pdbqt.pdb
REMARK  0 active torsions:
REMARK  status: ('A' for Active; 'I' for Inactive)
REMARK                            x       y       z     vdW  Elec       q    Type
REMARK                         _______ _______ _______ _____ _____    ______ ____
ROOT
ATOM      1  S   UNL     1     -11.006   6.263  -7.722  0.00  0.00    +0.000 S 
ATOM      2  O   UNL     1     -14.611  10.152 -10.025  0.00  0.00    +0.000 OA
ATOM      3  N   UNL     1     -13.777   8.313 -11.219  0.00  0.00    +0.000 N 
ATOM      4  N   UNL     1     -10.357   4.408  -9.427  0.00  0.00    +0.000 NA
ATOM      5  C   UNL     1     -12.472   7.310  -9.638  0.00  0.00    +0.000 A 
ATOM      6  C   UNL     1     -12.933   7.240 -10.977  0.00  0.00    +0.000 A 
ATOM      7  C   UNL     1     -13.092   8.524  -9.036  0.00  0.00    +0.000 C 
ATOM      8  C   UNL     1     -11.632   6.315  -9.266  0.00  0.00    +0.000 A 
ATOM      9  C   UNL     1     -13.937   9.144 -10.110  0.00  0.00    +0.000 C 
ATOM     10  C   UNL     1     -11.215   5.280 -10.075  0.00  0.00    +0.000 A 
ATOM     11  C   UNL     1     -12.585   6.247 -11.888  0.00  0.00    +0.000 A 
ATOM     12  C   UNL     1     -12.982   9.015  -7.843  0.00  0.00    +0.000 C 
ATOM     13  C   UNL     1     -11.704   5.253 -11.403  0.00  0.00    +0.000 A 
ATOM     14  C   UNL     1     -10.184   4.834  -8.192  0.00  0.00    +0.000 A 
ATOM     15  H   UNL     1     -14.241   8.496 -12.098  0.00  0.00    +0.000 HD
ATOM     16  C   UNL     1     -12.913   9.615  -6.563  0.00  0.00    +0.000 C 
ATOM     17  N   UNL     1     -13.573  10.754  -6.195  0.00  0.00    +0.000 N 
ATOM     18  C   UNL     1     -13.255  11.013  -4.890  0.00  0.00    +0.000 C 
ATOM     19  H   UNL     1     -14.186  11.310  -6.776  0.00  0.00    +0.000 HD
ATOM     20  N   UNL     1     -12.434  10.106  -4.409  0.00  0.00    +0.000 NA
ATOM     21  C   UNL     1     -12.213   9.229  -5.444  0.00  0.00    +0.000 C 
ENDROOT
TORSDOF 0
ENDMDL
MODEL 4
REMARK VINA RESULT:      -5.7      1.930      5.392
REMARK  Name = PKR_Inhibitor.pdbqt.pdb
REMARK  0 active torsions:
REMARK  status: ('A' for Active; 'I' for Inactive)
REMARK                            x       y       z     vdW  Elec       q    Type
REMARK                         _______ _______ _______ _____ _____    ______ ____
ROOT
ATOM      1  S   UNL     1     -14.079   9.063  -9.034  0.00  0.00    +0.000 S 
ATOM      2  O   UNL     1     -10.814   4.307  -9.420  0.00  0.00    +0.000 OA
ATOM      3  N   UNL     1     -10.638   5.843  -7.655  0.00  0.00    +0.000 N 
ATOM      4  N   UNL     1     -13.523  10.454  -6.906  0.00  0.00    +0.000 NA
ATOM      5  C   UNL     1     -12.223   7.377  -8.239  0.00  0.00    +0.000 A 
ATOM      6  C   UNL     1     -11.243   7.032  -7.276  0.00  0.00    +0.000 A 
ATOM      7  C   UNL     1     -12.200   6.306  -9.276  0.00  0.00    +0.000 C 
ATOM      8  C   UNL     1     -12.895   8.527  -7.990  0.00  0.00    +0.000 A 
ATOM      9  C   UNL     1     -11.147   5.327  -8.848  0.00  0.00    +0.000 C 
ATOM     10  C   UNL     1     -12.692   9.347  -6.901  0.00  0.00    +0.000 A 
ATOM     11  C   UNL     1     -10.947   7.777  -6.138  0.00  0.00    +0.000 A 
ATOM     12  C   UNL     1     -12.905   6.169 -10.353  0.00  0.00    +0.000 C 
ATOM     13  C   UNL     1     -11.703   8.959  -5.967  0.00  0.00    +0.000 A 
ATOM     14  C   UNL     1     -14.286  10.399  -7.979  0.00  0.00    +0.000 A 
ATOM     15  H   UNL     1      -9.904   5.377  -7.139  0.00  0.00    +0.000 HD
ATOM     16  C   UNL     1     -13.633   5.948 -11.546  0.00  0.00    +0.000 C 
ATOM     17  N   UNL     1     -13.463   4.879 -12.381  0.00  0.00    +0.000 N 
ATOM     18  C   UNL     1     -14.344   5.020 -13.417  0.00  0.00    +0.000 C 
ATOM     19  H   UNL     1     -12.807   4.119 -12.262  0.00  0.00    +0.000 HD
ATOM     20  N   UNL     1     -15.063   6.113 -13.289  0.00  0.00    +0.000 NA
ATOM     21  C   UNL     1     -14.628   6.700 -12.126  0.00  0.00    +0.000 C 
ENDROOT
TORSDOF 0
ENDMDL
MODEL 5
REMARK VINA RESULT:      -5.6     26.087     28.585
REMARK  Name = PKR_Inhibitor.pdbqt.pdb
REMARK  0 active torsions:
REMARK  status: ('A' for Active; 'I' for Inactive)
REMARK                            x       y       z     vdW  Elec       q    Type
REMARK                         _______ _______ _______ _____ _____    ______ ____
ROOT
ATOM      1  S   UNL     1      13.123  -8.335  -5.725  0.00  0.00    +0.000 S 
ATOM      2  O   UNL     1       9.957  -3.699  -7.107  0.00  0.00    +0.000 OA
ATOM      3  N   UNL     1       9.584  -4.976  -5.175  0.00  0.00    +0.000 N 
ATOM      4  N   UNL     1      12.336  -9.422  -3.497  0.00  0.00    +0.000 NA
ATOM      5  C   UNL     1      11.209  -6.567  -5.371  0.00  0.00    +0.000 A 
ATOM      6  C   UNL     1      10.135  -6.098  -4.574  0.00  0.00    +0.000 A 
ATOM      7  C   UNL     1      11.303  -5.650  -6.542  0.00  0.00    +0.000 C 
ATOM      8  C   UNL     1      11.840  -7.666  -4.896  0.00  0.00    +0.000 A 
ATOM      9  C   UNL     1      10.219  -4.627  -6.367  0.00  0.00    +0.000 C 
ATOM     10  C   UNL     1      11.518  -8.330  -3.732  0.00  0.00    +0.000 A 
ATOM     11  C   UNL     1       9.715  -6.680  -3.381  0.00  0.00    +0.000 A 
ATOM     12  C   UNL     1      12.119  -5.658  -7.548  0.00  0.00    +0.000 C 
ATOM     13  C   UNL     1      10.439  -7.823  -2.970  0.00  0.00    +0.000 A 
ATOM     14  C   UNL     1      13.207  -9.510  -4.480  0.00  0.00    +0.000 A 
ATOM     15  H   UNL     1       8.803  -4.449  -4.808  0.00  0.00    +0.000 HD
ATOM     16  C   UNL     1      12.970  -5.599  -8.676  0.00  0.00    +0.000 C 
ATOM     17  N   UNL     1      12.898  -4.658  -9.665  0.00  0.00    +0.000 N 
ATOM     18  C   UNL     1      13.882  -4.935 -10.573  0.00  0.00    +0.000 C 
ATOM     19  H   UNL     1      12.239  -3.893  -9.721  0.00  0.00    +0.000 HD
ATOM     20  N   UNL     1      14.574  -5.995 -10.220  0.00  0.00    +0.000 NA
ATOM     21  C   UNL     1      14.014  -6.418  -9.039  0.00  0.00    +0.000 C 
ENDROOT
TORSDOF 0
ENDMDL
MODEL 6
REMARK VINA RESULT:      -5.5      2.815      6.176
REMARK  Name = PKR_Inhibitor.pdbqt.pdb
REMARK  0 active torsions:
REMARK  status: ('A' for Active; 'I' for Inactive)
REMARK                            x       y       z     vdW  Elec       q    Type
REMARK                         _______ _______ _______ _____ _____    ______ ____
ROOT
ATOM      1  S   UNL     1     -11.680   7.134  -4.938  0.00  0.00    +0.000 S 
ATOM      2  O   UNL     1     -12.822   9.244 -10.199  0.00  0.00    +0.000 OA
ATOM      3  N   UNL     1     -13.485  10.312  -8.218  0.00  0.00    +0.000 N 
ATOM      4  N   UNL     1     -12.613   8.666  -3.053  0.00  0.00    +0.000 NA
ATOM      5  C   UNL     1     -12.670   8.876  -6.643  0.00  0.00    +0.000 A 
ATOM      6  C   UNL     1     -13.377  10.086  -6.854  0.00  0.00    +0.000 A 
ATOM      7  C   UNL     1     -12.331   8.338  -7.991  0.00  0.00    +0.000 C 
ATOM      8  C   UNL     1     -12.493   8.532  -5.345  0.00  0.00    +0.000 A 
ATOM      9  C   UNL     1     -12.885   9.314  -8.987  0.00  0.00    +0.000 C 
ATOM     10  C   UNL     1     -12.938   9.258  -4.261  0.00  0.00    +0.000 A 
ATOM     11  C   UNL     1     -13.875  10.905  -5.844  0.00  0.00    +0.000 A 
ATOM     12  C   UNL     1     -11.694   7.262  -8.326  0.00  0.00    +0.000 C 
ATOM     13  C   UNL     1     -13.638  10.460  -4.524  0.00  0.00    +0.000 A 
ATOM     14  C   UNL     1     -11.954   7.551  -3.298  0.00  0.00    +0.000 A 
ATOM     15  H   UNL     1     -13.944  11.109  -8.637  0.00  0.00    +0.000 HD
ATOM     16  C   UNL     1     -11.009   6.108  -8.774  0.00  0.00    +0.000 C 
ATOM     17  N   UNL     1     -10.793   5.783 -10.084  0.00  0.00    +0.000 N 
ATOM     18  C   UNL     1     -10.101   4.604 -10.109  0.00  0.00    +0.000 C 
ATOM     19  H   UNL     1     -11.088   6.313 -10.893  0.00  0.00    +0.000 HD
ATOM     20  N   UNL     1      -9.865   4.161  -8.894  0.00  0.00    +0.000 NA
ATOM     21  C   UNL     1     -10.427   5.091  -8.053  0.00  0.00    +0.000 C 
ENDROOT
TORSDOF 0
ENDMDL
MODEL 7
REMARK VINA RESULT:      -5.2      2.278      5.415
REMARK  Name = PKR_Inhibitor.pdbqt.pdb
REMARK  0 active torsions:
REMARK  status: ('A' for Active; 'I' for Inactive)
REMARK                            x       y       z     vdW  Elec       q    Type
REMARK                         _______ _______ _______ _____ _____    ______ ____
ROOT
ATOM      1  S   UNL     1     -14.509   7.898  -7.336  0.00  0.00    +0.000 S 
ATOM      2  O   UNL     1     -11.575   5.231 -11.545  0.00  0.00    +0.000 OA
ATOM      3  N   UNL     1     -10.538   6.221  -9.688  0.00  0.00    +0.000 N 
ATOM      4  N   UNL     1     -12.929   8.835  -5.493  0.00  0.00    +0.000 NA
ATOM      5  C   UNL     1     -12.342   7.025  -8.545  0.00  0.00    +0.000 A 
ATOM      6  C   UNL     1     -10.929   6.909  -8.550  0.00  0.00    +0.000 A 
ATOM      7  C   UNL     1     -12.830   6.351  -9.782  0.00  0.00    +0.000 C 
ATOM      8  C   UNL     1     -12.862   7.682  -7.481  0.00  0.00    +0.000 A 
ATOM      9  C   UNL     1     -11.612   5.841 -10.494  0.00  0.00    +0.000 C 
ATOM     10  C   UNL     1     -12.132   8.222  -6.444  0.00  0.00    +0.000 A 
ATOM     11  C   UNL     1     -10.085   7.411  -7.563  0.00  0.00    +0.000 A 
ATOM     12  C   UNL     1     -14.035   6.191 -10.227  0.00  0.00    +0.000 C 
ATOM     13  C   UNL     1     -10.725   8.080  -6.494  0.00  0.00    +0.000 A 
ATOM     14  C   UNL     1     -14.187   8.721  -5.867  0.00  0.00    +0.000 A 
ATOM     15  H   UNL     1      -9.581   6.003  -9.931  0.00  0.00    +0.000 HD
ATOM     16  C   UNL     1     -15.319   5.975 -10.780  0.00  0.00    +0.000 C 
ATOM     17  N   UNL     1     -15.568   5.316 -11.952  0.00  0.00    +0.000 N 
ATOM     18  C   UNL     1     -16.921   5.314 -12.146  0.00  0.00    +0.000 C 
ATOM     19  H   UNL     1     -14.881   4.904 -12.569  0.00  0.00    +0.000 HD
ATOM     20  N   UNL     1     -17.546   5.931 -11.168  0.00  0.00    +0.000 NA
ATOM     21  C   UNL     1     -16.557   6.348 -10.311  0.00  0.00    +0.000 C 
ENDROOT
TORSDOF 0
ENDMDL
MODEL 8
REMARK VINA RESULT:      -5.0      2.952      4.411
REMARK  Name = PKR_Inhibitor.pdbqt.pdb
REMARK  0 active torsions:
REMARK  status: ('A' for Active; 'I' for Inactive)
REMARK                            x       y       z     vdW  Elec       q    Type
REMARK                         _______ _______ _______ _____ _____    ______ ____
ROOT
ATOM      1  S   UNL     1     -14.360   5.037 -11.718  0.00  0.00    +0.000 S 
ATOM      2  O   UNL     1     -13.050   9.864  -8.817  0.00  0.00    +0.000 OA
ATOM      3  N   UNL     1     -14.727   9.768 -10.456  0.00  0.00    +0.000 N 
ATOM      4  N   UNL     1     -16.283   5.421 -13.428  0.00  0.00    +0.000 NA
ATOM      5  C   UNL     1     -14.608   7.579 -11.088  0.00  0.00    +0.000 A 
ATOM      6  C   UNL     1     -15.270   8.814 -11.302  0.00  0.00    +0.000 A 
ATOM      7  C   UNL     1     -13.587   7.820 -10.029  0.00  0.00    +0.000 C 
ATOM      8  C   UNL     1     -15.043   6.552 -11.856  0.00  0.00    +0.000 A 
ATOM      9  C   UNL     1     -13.705   9.266  -9.649  0.00  0.00    +0.000 C 
ATOM     10  C   UNL     1     -16.050   6.630 -12.793  0.00  0.00    +0.000 A 
ATOM     11  C   UNL     1     -16.299   9.018 -12.217  0.00  0.00    +0.000 A 
ATOM     12  C   UNL     1     -12.735   7.008  -9.489  0.00  0.00    +0.000 C 
ATOM     13  C   UNL     1     -16.682   7.884 -12.970  0.00  0.00    +0.000 A 
ATOM     14  C   UNL     1     -15.451   4.525 -12.937  0.00  0.00    +0.000 A 
ATOM     15  H   UNL     1     -15.022  10.734 -10.409  0.00  0.00    +0.000 HD
ATOM     16  C   UNL     1     -11.776   6.186  -8.851  0.00  0.00    +0.000 C 
ATOM     17  N   UNL     1     -10.910   6.601  -7.878  0.00  0.00    +0.000 N 
ATOM     18  C   UNL     1     -10.148   5.525  -7.516  0.00  0.00    +0.000 C 
ATOM     19  H   UNL     1     -10.840   7.533  -7.492  0.00  0.00    +0.000 HD
ATOM     20  N   UNL     1     -10.478   4.452  -8.200  0.00  0.00    +0.000 NA
ATOM     21  C   UNL     1     -11.493   4.853  -9.036  0.00  0.00    +0.000 C 
ENDROOT
TORSDOF 0
ENDMDL
MODEL 9
REMARK VINA RESULT:      -5.0     26.642     28.248
REMARK  Name = PKR_Inhibitor.pdbqt.pdb
REMARK  0 active torsions:
REMARK  status: ('A' for Active; 'I' for Inactive)
REMARK                            x       y       z     vdW  Elec       q    Type
REMARK                         _______ _______ _______ _____ _____    ______ ____
ROOT
ATOM      1  S   UNL     1      15.414  11.363 -17.447  0.00  0.00    +0.000 S 
ATOM      2  O   UNL     1       9.981   9.878 -18.752  0.00  0.00    +0.000 OA
ATOM      3  N   UNL     1      10.839   9.809 -16.570  0.00  0.00    +0.000 N 
ATOM      4  N   UNL     1      15.902  11.124 -14.902  0.00  0.00    +0.000 NA
ATOM      5  C   UNL     1      12.979  10.525 -16.910  0.00  0.00    +0.000 A 
ATOM      6  C   UNL     1      12.043  10.086 -15.940  0.00  0.00    +0.000 A 
ATOM      7  C   UNL     1      12.274  10.508 -18.223  0.00  0.00    +0.000 C 
ATOM      8  C   UNL     1      14.207  10.831 -16.427  0.00  0.00    +0.000 A 
ATOM      9  C   UNL     1      10.878  10.032 -17.947  0.00  0.00    +0.000 C 
ATOM     10  C   UNL     1      14.586  10.746 -15.104  0.00  0.00    +0.000 A 
ATOM     11  C   UNL     1      12.306   9.958 -14.579  0.00  0.00    +0.000 A 
ATOM     12  C   UNL     1      12.699  10.822 -19.405  0.00  0.00    +0.000 C 
ATOM     13  C   UNL     1      13.616  10.303 -14.175  0.00  0.00    +0.000 A 
ATOM     14  C   UNL     1      16.423  11.464 -16.064  0.00  0.00    +0.000 A 
ATOM     15  H   UNL     1      10.005   9.479 -16.104  0.00  0.00    +0.000 HD
ATOM     16  C   UNL     1      13.088  11.145 -20.726  0.00  0.00    +0.000 C 
ATOM     17  N   UNL     1      12.277  11.063 -21.824  0.00  0.00    +0.000 N 
ATOM     18  C   UNL     1      13.009  11.457 -22.909  0.00  0.00    +0.000 C 
ATOM     19  H   UNL     1      11.311  10.767 -21.838  0.00  0.00    +0.000 HD
ATOM     20  N   UNL     1      14.236  11.783 -22.567  0.00  0.00    +0.000 NA
ATOM     21  C   UNL     1      14.296  11.592 -21.207  0.00  0.00    +0.000 C 
ENDROOT
TORSDOF 0
ENDMDL
