MODEL 1
REMARK VINA RESULT:      -7.5      0.000      0.000
REMARK  Name = 
REMARK  14 active torsions:
REMARK  status: ('A' for Active; 'I' for Inactive)
REMARK    1  A    between atoms: O_1  and  C_14
REMARK    2  A    between atoms: O_1  and  C_15
REMARK    3  A    between atoms: O_4  and  C_16
REMARK    4  A    between atoms: O_5  and  C_18
REMARK    5  A    between atoms: O_6  and  C_26
REMARK    6  A    between atoms: O_7  and  C_29
REMARK    7  A    between atoms: O_8  and  C_35
REMARK    8  A    between atoms: O_9  and  C_36
REMARK    9  A    between atoms: O_10  and  C_39
REMARK   10  A    between atoms: O_11  and  C_40
REMARK   11  A    between atoms: O_12  and  C_41
REMARK   12  A    between atoms: O_13  and  C_43
REMARK   13  A    between atoms: C_14  and  C_20
REMARK   14  A    between atoms: C_17  and  C_24
REMARK                            x       y       z     vdW  Elec       q    Type
REMARK                         _______ _______ _______ _____ _____    ______ ____
ROOT
ATOM      1  O   UNL     1      10.616   1.153 -22.365  0.00  0.00    +0.000 OA
ATOM      2  C   UNL     1      10.852   1.031 -20.956  0.00  0.00    +0.000 C 
ATOM      3  C   UNL     1      12.227   1.651 -20.561  0.00  0.00    +0.000 C 
ATOM      4  C   UNL     1      13.351   1.020 -21.377  0.00  0.00    +0.000 C 
ATOM      5  C   UNL     1      13.008   0.978 -22.836  0.00  0.00    +0.000 A 
ATOM      6  C   UNL     1      11.668   1.036 -23.230  0.00  0.00    +0.000 A 
ATOM      7  C   UNL     1      13.986   0.841 -23.832  0.00  0.00    +0.000 A 
ATOM      8  C   UNL     1      11.323   0.975 -24.582  0.00  0.00    +0.000 A 
ATOM      9  C   UNL     1      13.651   0.759 -25.180  0.00  0.00    +0.000 A 
ATOM     10  C   UNL     1      12.315   0.832 -25.545  0.00  0.00    +0.000 A 
ENDROOT
BRANCH   2  11
ATOM     11  C   UNL     1      10.734  -0.419 -20.450  0.00  0.00    +0.000 A 
ATOM     12  C   UNL     1      11.323  -0.804 -19.225  0.00  0.00    +0.000 A 
ATOM     13  C   UNL     1      10.028  -1.397 -21.182  0.00  0.00    +0.000 A 
ATOM     14  C   UNL     1      11.211  -2.115 -18.773  0.00  0.00    +0.000 A 
ATOM     15  C   UNL     1       9.933  -2.716 -20.726  0.00  0.00    +0.000 A 
ATOM     16  C   UNL     1      10.532  -3.063 -19.529  0.00  0.00    +0.000 A 
BRANCH  14  17
ATOM     17  O   UNL     1      11.746  -2.530 -17.586  0.00  0.00    +0.000 OA
ATOM     18  H   UNL     1      12.594  -2.067 -17.430  0.00  0.00    +0.000 HD
ENDBRANCH  14  17
BRANCH  16  19
ATOM     19  O   UNL     1      10.436  -4.350 -19.082  0.00  0.00    +0.000 OA
ATOM     20  H   UNL     1      11.317  -4.540 -18.700  0.00  0.00    +0.000 HD
ENDBRANCH  16  19
ENDBRANCH   2  11
BRANCH   3  21
ATOM     21  O   UNL     1      12.258   3.091 -20.773  0.00  0.00    +0.000 OA
ATOM     22  H   UNL     1      13.068   3.394 -20.314  0.00  0.00    +0.000 HD
ENDBRANCH   3  21
BRANCH   4  23
ATOM     23  O   UNL     1      14.560   1.778 -21.193  0.00  0.00    +0.000 OA
ATOM     24  H   UNL     1      15.257   1.093 -21.083  0.00  0.00    +0.000 HD
ENDBRANCH   4  23
BRANCH   7  25
ATOM     25  O   UNL     1      15.321   0.799 -23.526  0.00  0.00    +0.000 OA
ATOM     26  H   UNL     1      15.416   0.237 -22.725  0.00  0.00    +0.000 HD
ENDBRANCH   7  25
BRANCH  10  27
ATOM     27  O   UNL     1      11.930   0.765 -26.853  0.00  0.00    +0.000 OA
ATOM     28  H   UNL     1      12.697   0.980 -27.409  0.00  0.00    +0.000 HD
ENDBRANCH  10  27
BRANCH   2  29
ATOM     29  O   UNL     1       9.896   1.881 -20.261  0.00  0.00    +0.000 OA
BRANCH  29  31
ATOM     30  O   UNL     1       7.137   1.324 -17.851  0.00  0.00    +0.000 OA
ATOM     31  C   UNL     1       8.694   1.254 -19.772  0.00  0.00    +0.000 C 
ATOM     32  C   UNL     1       8.287   1.943 -18.446  0.00  0.00    +0.000 C 
ATOM     33  C   UNL     1       7.529   1.419 -20.753  0.00  0.00    +0.000 C 
ATOM     34  C   UNL     1       6.192   1.226 -20.093  0.00  0.00    +0.000 A 
ATOM     35  C   UNL     1       6.074   1.187 -18.701  0.00  0.00    +0.000 A 
ATOM     36  C   UNL     1       5.031   1.087 -20.864  0.00  0.00    +0.000 A 
ATOM     37  C   UNL     1       4.836   0.968 -18.093  0.00  0.00    +0.000 A 
ATOM     38  C   UNL     1       3.788   0.885 -20.270  0.00  0.00    +0.000 A 
ATOM     39  C   UNL     1       3.703   0.822 -18.885  0.00  0.00    +0.000 A 
BRANCH  32  40
ATOM     40  C   UNL     1       9.417   1.884 -17.426  0.00  0.00    +0.000 A 
ATOM     41  C   UNL     1       9.725   0.689 -16.757  0.00  0.00    +0.000 A 
ATOM     42  C   UNL     1      10.222   3.016 -17.206  0.00  0.00    +0.000 A 
ATOM     43  C   UNL     1      10.842   0.625 -15.927  0.00  0.00    +0.000 A 
ATOM     44  C   UNL     1      11.330   2.951 -16.357  0.00  0.00    +0.000 A 
ATOM     45  C   UNL     1      11.644   1.748 -15.733  0.00  0.00    +0.000 A 
BRANCH  43  46
ATOM     46  O   UNL     1      11.201  -0.559 -15.349  0.00  0.00    +0.000 OA
ATOM     47  H   UNL     1      12.171  -0.623 -15.331  0.00  0.00    +0.000 HD
ENDBRANCH  43  46
BRANCH  45  48
ATOM     48  O   UNL     1      12.758   1.644 -14.949  0.00  0.00    +0.000 OA
ATOM     49  H   UNL     1      13.313   0.920 -15.282  0.00  0.00    +0.000 HD
ENDBRANCH  45  48
ENDBRANCH  32  40
BRANCH  36  50
ATOM     50  O   UNL     1       5.139   1.149 -22.226  0.00  0.00    +0.000 OA
ATOM     51  H   UNL     1       4.247   1.141 -22.613  0.00  0.00    +0.000 HD
ENDBRANCH  36  50
BRANCH  39  52
ATOM     52  O   UNL     1       2.472   0.615 -18.333  0.00  0.00    +0.000 OA
ATOM     53  H   UNL     1       2.585   0.167 -17.477  0.00  0.00    +0.000 HD
ENDBRANCH  39  52
ENDBRANCH  29  31
ENDBRANCH   2  29
TORSDOF 14
ENDMDL
MODEL 2
REMARK VINA RESULT:      -7.4      2.026      6.195
REMARK  Name = 
REMARK  14 active torsions:
REMARK  status: ('A' for Active; 'I' for Inactive)
REMARK    1  A    between atoms: O_1  and  C_14
REMARK    2  A    between atoms: O_1  and  C_15
REMARK    3  A    between atoms: O_4  and  C_16
REMARK    4  A    between atoms: O_5  and  C_18
REMARK    5  A    between atoms: O_6  and  C_26
REMARK    6  A    between atoms: O_7  and  C_29
REMARK    7  A    between atoms: O_8  and  C_35
REMARK    8  A    between atoms: O_9  and  C_36
REMARK    9  A    between atoms: O_10  and  C_39
REMARK   10  A    between atoms: O_11  and  C_40
REMARK   11  A    between atoms: O_12  and  C_41
REMARK   12  A    between atoms: O_13  and  C_43
REMARK   13  A    between atoms: C_14  and  C_20
REMARK   14  A    between atoms: C_17  and  C_24
REMARK                            x       y       z     vdW  Elec       q    Type
REMARK                         _______ _______ _______ _____ _____    ______ ____
ROOT
ATOM      1  O   UNL     1       9.062  -0.239 -19.259  0.00  0.00    +0.000 OA
ATOM      2  C   UNL     1       9.237  -1.028 -20.444  0.00  0.00    +0.000 C 
ATOM      3  C   UNL     1       9.726  -2.466 -20.094  0.00  0.00    +0.000 C 
ATOM      4  C   UNL     1      11.003  -2.408 -19.262  0.00  0.00    +0.000 C 
ATOM      5  C   UNL     1      10.873  -1.431 -18.132  0.00  0.00    +0.000 A 
ATOM      6  C   UNL     1       9.923  -0.409 -18.212  0.00  0.00    +0.000 A 
ATOM      7  C   UNL     1      11.705  -1.476 -17.004  0.00  0.00    +0.000 A 
ATOM      8  C   UNL     1       9.799   0.527 -17.182  0.00  0.00    +0.000 A 
ATOM      9  C   UNL     1      11.603  -0.536 -15.982  0.00  0.00    +0.000 A 
ATOM     10  C   UNL     1      10.642   0.460 -16.080  0.00  0.00    +0.000 A 
ENDROOT
BRANCH   2  11
ATOM     11  C   UNL     1      10.169  -0.364 -21.476  0.00  0.00    +0.000 A 
ATOM     12  C   UNL     1      10.790   0.873 -21.193  0.00  0.00    +0.000 A 
ATOM     13  C   UNL     1      10.440  -0.972 -22.720  0.00  0.00    +0.000 A 
ATOM     14  C   UNL     1      11.633   1.466 -22.128  0.00  0.00    +0.000 A 
ATOM     15  C   UNL     1      11.277  -0.361 -23.658  0.00  0.00    +0.000 A 
ATOM     16  C   UNL     1      11.860   0.856 -23.356  0.00  0.00    +0.000 A 
BRANCH  14  17
ATOM     17  O   UNL     1      12.272   2.650 -21.891  0.00  0.00    +0.000 OA
ATOM     18  H   UNL     1      13.146   2.644 -22.332  0.00  0.00    +0.000 HD
ENDBRANCH  14  17
BRANCH  16  19
ATOM     19  O   UNL     1      12.680   1.451 -24.271  0.00  0.00    +0.000 OA
ATOM     20  H   UNL     1      13.435   1.781 -23.741  0.00  0.00    +0.000 HD
ENDBRANCH  16  19
ENDBRANCH   2  11
BRANCH   3  21
ATOM     21  O   UNL     1       8.726  -3.217 -19.349  0.00  0.00    +0.000 OA
ATOM     22  H   UNL     1       9.240  -3.770 -18.726  0.00  0.00    +0.000 HD
ENDBRANCH   3  21
BRANCH   4  23
ATOM     23  O   UNL     1      11.289  -3.714 -18.732  0.00  0.00    +0.000 OA
ATOM     24  H   UNL     1      11.724  -3.532 -17.869  0.00  0.00    +0.000 HD
ENDBRANCH   4  23
BRANCH   7  25
ATOM     25  O   UNL     1      12.645  -2.458 -16.844  0.00  0.00    +0.000 OA
ATOM     26  H   UNL     1      12.171  -3.268 -16.554  0.00  0.00    +0.000 HD
ENDBRANCH   7  25
BRANCH  10  27
ATOM     27  O   UNL     1      10.493   1.402 -15.104  0.00  0.00    +0.000 OA
ATOM     28  H   UNL     1      11.370   1.609 -14.740  0.00  0.00    +0.000 HD
ENDBRANCH  10  27
BRANCH   2  29
ATOM     29  O   UNL     1       7.926  -1.261 -21.033  0.00  0.00    +0.000 OA
BRANCH  29  31
ATOM     30  O   UNL     1       4.894   0.855 -21.279  0.00  0.00    +0.000 OA
ATOM     31  C   UNL     1       6.827  -0.486 -20.514  0.00  0.00    +0.000 C 
ATOM     32  C   UNL     1       5.970   0.008 -21.706  0.00  0.00    +0.000 C 
ATOM     33  C   UNL     1       5.918  -1.326 -19.611  0.00  0.00    +0.000 C 
ATOM     34  C   UNL     1       4.548  -0.724 -19.457  0.00  0.00    +0.000 A 
ATOM     35  C   UNL     1       4.122   0.318 -20.285  0.00  0.00    +0.000 A 
ATOM     36  C   UNL     1       3.666  -1.203 -18.480  0.00  0.00    +0.000 A 
ATOM     37  C   UNL     1       2.864   0.900 -20.113  0.00  0.00    +0.000 A 
ATOM     38  C   UNL     1       2.403  -0.642 -18.309  0.00  0.00    +0.000 A 
ATOM     39  C   UNL     1       2.015   0.412 -19.127  0.00  0.00    +0.000 A 
BRANCH  32  40
ATOM     40  C   UNL     1       6.812   0.803 -22.696  0.00  0.00    +0.000 A 
ATOM     41  C   UNL     1       7.413   2.016 -22.322  0.00  0.00    +0.000 A 
ATOM     42  C   UNL     1       7.065   0.283 -23.978  0.00  0.00    +0.000 A 
ATOM     43  C   UNL     1       8.283   2.660 -23.200  0.00  0.00    +0.000 A 
ATOM     44  C   UNL     1       7.923   0.944 -24.860  0.00  0.00    +0.000 A 
ATOM     45  C   UNL     1       8.542   2.124 -24.460  0.00  0.00    +0.000 A 
BRANCH  43  46
ATOM     46  O   UNL     1       8.944   3.788 -22.807  0.00  0.00    +0.000 OA
ATOM     47  H   UNL     1       8.353   4.554 -22.905  0.00  0.00    +0.000 HD
ENDBRANCH  43  46
BRANCH  45  48
ATOM     48  O   UNL     1       9.433   2.753 -25.281  0.00  0.00    +0.000 OA
ATOM     49  H   UNL     1       9.092   2.735 -26.191  0.00  0.00    +0.000 HD
ENDBRANCH  45  48
ENDBRANCH  32  40
BRANCH  36  50
ATOM     50  O   UNL     1       4.071  -2.239 -17.685  0.00  0.00    +0.000 OA
ATOM     51  H   UNL     1       5.042  -2.251 -17.654  0.00  0.00    +0.000 HD
ENDBRANCH  36  50
BRANCH  39  52
ATOM     52  O   UNL     1       0.774   0.945 -18.929  0.00  0.00    +0.000 OA
ATOM     53  H   UNL     1       0.443   0.653 -18.063  0.00  0.00    +0.000 HD
ENDBRANCH  39  52
ENDBRANCH  29  31
ENDBRANCH   2  29
TORSDOF 14
ENDMDL
MODEL 3
REMARK VINA RESULT:      -7.4      2.649      6.852
REMARK  Name = 
REMARK  14 active torsions:
REMARK  status: ('A' for Active; 'I' for Inactive)
REMARK    1  A    between atoms: O_1  and  C_14
REMARK    2  A    between atoms: O_1  and  C_15
REMARK    3  A    between atoms: O_4  and  C_16
REMARK    4  A    between atoms: O_5  and  C_18
REMARK    5  A    between atoms: O_6  and  C_26
REMARK    6  A    between atoms: O_7  and  C_29
REMARK    7  A    between atoms: O_8  and  C_35
REMARK    8  A    between atoms: O_9  and  C_36
REMARK    9  A    between atoms: O_10  and  C_39
REMARK   10  A    between atoms: O_11  and  C_40
REMARK   11  A    between atoms: O_12  and  C_41
REMARK   12  A    between atoms: O_13  and  C_43
REMARK   13  A    between atoms: C_14  and  C_20
REMARK   14  A    between atoms: C_17  and  C_24
REMARK                            x       y       z     vdW  Elec       q    Type
REMARK                         _______ _______ _______ _____ _____    ______ ____
ROOT
ATOM      1  O   UNL     1       7.079   1.084 -19.646  0.00  0.00    +0.000 OA
ATOM      2  C   UNL     1       8.054   0.085 -19.972  0.00  0.00    +0.000 C 
ATOM      3  C   UNL     1       7.371  -1.263 -20.355  0.00  0.00    +0.000 C 
ATOM      4  C   UNL     1       6.441  -1.727 -19.238  0.00  0.00    +0.000 C 
ATOM      5  C   UNL     1       5.553  -0.612 -18.771  0.00  0.00    +0.000 A 
ATOM      6  C   UNL     1       5.936   0.713 -18.995  0.00  0.00    +0.000 A 
ATOM      7  C   UNL     1       4.359  -0.849 -18.073  0.00  0.00    +0.000 A 
ATOM      8  C   UNL     1       5.136   1.768 -18.548  0.00  0.00    +0.000 A 
ATOM      9  C   UNL     1       3.566   0.196 -17.606  0.00  0.00    +0.000 A 
ATOM     10  C   UNL     1       3.962   1.502 -17.854  0.00  0.00    +0.000 A 
ENDROOT
BRANCH   2  11
ATOM     11  C   UNL     1       9.098  -0.123 -18.857  0.00  0.00    +0.000 A 
ATOM     12  C   UNL     1       9.899  -1.287 -18.829  0.00  0.00    +0.000 A 
ATOM     13  C   UNL     1       9.296   0.842 -17.847  0.00  0.00    +0.000 A 
ATOM     14  C   UNL     1      10.840  -1.467 -17.821  0.00  0.00    +0.000 A 
ATOM     15  C   UNL     1      10.235   0.646 -16.831  0.00  0.00    +0.000 A 
ATOM     16  C   UNL     1      10.993  -0.510 -16.823  0.00  0.00    +0.000 A 
BRANCH  14  17
ATOM     17  O   UNL     1      11.651  -2.565 -17.763  0.00  0.00    +0.000 OA
ATOM     18  H   UNL     1      11.653  -2.922 -16.852  0.00  0.00    +0.000 HD
ENDBRANCH  14  17
BRANCH  16  19
ATOM     19  O   UNL     1      11.914  -0.701 -15.833  0.00  0.00    +0.000 OA
ATOM     20  H   UNL     1      11.680  -0.037 -15.153  0.00  0.00    +0.000 HD
ENDBRANCH  16  19
ENDBRANCH   2  11
BRANCH   3  21
ATOM     21  O   UNL     1       6.595  -1.153 -21.582  0.00  0.00    +0.000 OA
ATOM     22  H   UNL     1       6.403  -2.077 -21.841  0.00  0.00    +0.000 HD
ENDBRANCH   3  21
BRANCH   4  23
ATOM     23  O   UNL     1       5.630  -2.816 -19.711  0.00  0.00    +0.000 OA
ATOM     24  H   UNL     1       5.203  -2.462 -20.523  0.00  0.00    +0.000 HD
ENDBRANCH   4  23
BRANCH   7  25
ATOM     25  O   UNL     1       3.907  -2.119 -17.834  0.00  0.00    +0.000 OA
ATOM     26  H   UNL     1       2.939  -2.118 -18.004  0.00  0.00    +0.000 HD
ENDBRANCH   7  25
BRANCH  10  27
ATOM     27  O   UNL     1       3.219   2.564 -17.427  0.00  0.00    +0.000 OA
ATOM     28  H   UNL     1       3.452   2.749 -16.501  0.00  0.00    +0.000 HD
ENDBRANCH  10  27
BRANCH   2  29
ATOM     29  O   UNL     1       8.715   0.481 -21.207  0.00  0.00    +0.000 OA
BRANCH  29  31
ATOM     30  O   UNL     1       9.382   3.548 -23.176  0.00  0.00    +0.000 OA
ATOM     31  C   UNL     1       8.423   1.798 -21.713  0.00  0.00    +0.000 C 
ATOM     32  C   UNL     1       9.557   2.212 -22.684  0.00  0.00    +0.000 C 
ATOM     33  C   UNL     1       7.110   1.825 -22.502  0.00  0.00    +0.000 C 
ATOM     34  C   UNL     1       7.021   3.006 -23.429  0.00  0.00    +0.000 A 
ATOM     35  C   UNL     1       8.144   3.790 -23.707  0.00  0.00    +0.000 A 
ATOM     36  C   UNL     1       5.806   3.340 -24.040  0.00  0.00    +0.000 A 
ATOM     37  C   UNL     1       8.048   4.909 -24.537  0.00  0.00    +0.000 A 
ATOM     38  C   UNL     1       5.701   4.444 -24.883  0.00  0.00    +0.000 A 
ATOM     39  C   UNL     1       6.826   5.224 -25.120  0.00  0.00    +0.000 A 
BRANCH  32  40
ATOM     40  C   UNL     1      10.916   2.152 -21.999  0.00  0.00    +0.000 A 
ATOM     41  C   UNL     1      12.074   1.822 -22.721  0.00  0.00    +0.000 A 
ATOM     42  C   UNL     1      11.036   2.510 -20.645  0.00  0.00    +0.000 A 
ATOM     43  C   UNL     1      13.322   1.899 -22.106  0.00  0.00    +0.000 A 
ATOM     44  C   UNL     1      12.288   2.566 -20.028  0.00  0.00    +0.000 A 
ATOM     45  C   UNL     1      13.430   2.275 -20.768  0.00  0.00    +0.000 A 
BRANCH  43  46
ATOM     46  O   UNL     1      14.459   1.672 -22.827  0.00  0.00    +0.000 OA
ATOM     47  H   UNL     1      14.385   2.121 -23.686  0.00  0.00    +0.000 HD
ENDBRANCH  43  46
BRANCH  45  48
ATOM     48  O   UNL     1      14.668   2.385 -20.204  0.00  0.00    +0.000 OA
ATOM     49  H   UNL     1      14.588   2.835 -19.347  0.00  0.00    +0.000 HD
ENDBRANCH  45  48
ENDBRANCH  32  40
BRANCH  36  50
ATOM     50  O   UNL     1       4.712   2.561 -23.790  0.00  0.00    +0.000 OA
ATOM     51  H   UNL     1       4.447   2.117 -24.614  0.00  0.00    +0.000 HD
ENDBRANCH  36  50
BRANCH  39  52
ATOM     52  O   UNL     1       6.689   6.302 -25.944  0.00  0.00    +0.000 OA
ATOM     53  H   UNL     1       5.742   6.455 -26.104  0.00  0.00    +0.000 HD
ENDBRANCH  39  52
ENDBRANCH  29  31
ENDBRANCH   2  29
TORSDOF 14
ENDMDL
MODEL 4
REMARK VINA RESULT:      -7.0     14.840     20.060
REMARK  Name = 
REMARK  14 active torsions:
REMARK  status: ('A' for Active; 'I' for Inactive)
REMARK    1  A    between atoms: O_1  and  C_14
REMARK    2  A    between atoms: O_1  and  C_15
REMARK    3  A    between atoms: O_4  and  C_16
REMARK    4  A    between atoms: O_5  and  C_18
REMARK    5  A    between atoms: O_6  and  C_26
REMARK    6  A    between atoms: O_7  and  C_29
REMARK    7  A    between atoms: O_8  and  C_35
REMARK    8  A    between atoms: O_9  and  C_36
REMARK    9  A    between atoms: O_10  and  C_39
REMARK   10  A    between atoms: O_11  and  C_40
REMARK   11  A    between atoms: O_12  and  C_41
REMARK   12  A    between atoms: O_13  and  C_43
REMARK   13  A    between atoms: C_14  and  C_20
REMARK   14  A    between atoms: C_17  and  C_24
REMARK                            x       y       z     vdW  Elec       q    Type
REMARK                         _______ _______ _______ _____ _____    ______ ____
ROOT
ATOM      1  O   UNL     1      -9.428  -1.927 -20.615  0.00  0.00    +0.000 OA
ATOM      2  C   UNL     1      -8.606  -3.088 -20.430  0.00  0.00    +0.000 C 
ATOM      3  C   UNL     1      -9.253  -4.077 -19.412  0.00  0.00    +0.000 C 
ATOM      4  C   UNL     1      -9.540  -3.372 -18.090  0.00  0.00    +0.000 C 
ATOM      5  C   UNL     1     -10.232  -2.060 -18.312  0.00  0.00    +0.000 A 
ATOM      6  C   UNL     1     -10.120  -1.423 -19.551  0.00  0.00    +0.000 A 
ATOM      7  C   UNL     1     -10.962  -1.418 -17.300  0.00  0.00    +0.000 A 
ATOM      8  C   UNL     1     -10.737  -0.189 -19.773  0.00  0.00    +0.000 A 
ATOM      9  C   UNL     1     -11.562  -0.180 -17.505  0.00  0.00    +0.000 A 
ATOM     10  C   UNL     1     -11.448   0.425 -18.748  0.00  0.00    +0.000 A 
ENDROOT
BRANCH   2  11
ATOM     11  C   UNL     1      -7.161  -2.743 -20.021  0.00  0.00    +0.000 A 
ATOM     12  C   UNL     1      -6.387  -3.657 -19.272  0.00  0.00    +0.000 A 
ATOM     13  C   UNL     1      -6.566  -1.518 -20.391  0.00  0.00    +0.000 A 
ATOM     14  C   UNL     1      -5.082  -3.339 -18.908  0.00  0.00    +0.000 A 
ATOM     15  C   UNL     1      -5.259  -1.202 -20.008  0.00  0.00    +0.000 A 
ATOM     16  C   UNL     1      -4.532  -2.113 -19.265  0.00  0.00    +0.000 A 
BRANCH  14  17
ATOM     17  O   UNL     1      -4.288  -4.199 -18.203  0.00  0.00    +0.000 OA
ATOM     18  H   UNL     1      -4.791  -4.563 -17.447  0.00  0.00    +0.000 HD
ENDBRANCH  14  17
BRANCH  16  19
ATOM     19  O   UNL     1      -3.254  -1.807 -18.894  0.00  0.00    +0.000 OA
ATOM     20  H   UNL     1      -2.996  -1.077 -19.492  0.00  0.00    +0.000 HD
ENDBRANCH  16  19
ENDBRANCH   2  11
BRANCH   3  21
ATOM     21  O   UNL     1     -10.500  -4.637 -19.913  0.00  0.00    +0.000 OA
ATOM     22  H   UNL     1     -11.201  -4.199 -19.389  0.00  0.00    +0.000 HD
ENDBRANCH   3  21
BRANCH   4  23
ATOM     23  O   UNL     1     -10.366  -4.214 -17.267  0.00  0.00    +0.000 OA
ATOM     24  H   UNL     1     -10.618  -4.956 -17.861  0.00  0.00    +0.000 HD
ENDBRANCH   4  23
BRANCH   7  25
ATOM     25  O   UNL     1     -11.133  -1.989 -16.067  0.00  0.00    +0.000 OA
ATOM     26  H   UNL     1     -10.354  -1.741 -15.523  0.00  0.00    +0.000 HD
ENDBRANCH   7  25
BRANCH  10  27
ATOM     27  O   UNL     1     -12.024   1.634 -19.007  0.00  0.00    +0.000 OA
ATOM     28  H   UNL     1     -11.636   2.293 -18.406  0.00  0.00    +0.000 HD
ENDBRANCH  10  27
BRANCH   2  29
ATOM     29  O   UNL     1      -8.606  -3.848 -21.671  0.00  0.00    +0.000 OA
BRANCH  29  31
ATOM     30  O   UNL     1      -8.992  -2.809 -25.207  0.00  0.00    +0.000 OA
ATOM     31  C   UNL     1      -9.297  -3.268 -22.795  0.00  0.00    +0.000 C 
ATOM     32  C   UNL     1      -8.408  -3.430 -24.054  0.00  0.00    +0.000 C 
ATOM     33  C   UNL     1     -10.624  -3.981 -23.074  0.00  0.00    +0.000 C 
ATOM     34  C   UNL     1     -11.117  -3.747 -24.475  0.00  0.00    +0.000 A 
ATOM     35  C   UNL     1     -10.287  -3.181 -25.447  0.00  0.00    +0.000 A 
ATOM     36  C   UNL     1     -12.422  -4.101 -24.839  0.00  0.00    +0.000 A 
ATOM     37  C   UNL     1     -10.761  -2.930 -26.736  0.00  0.00    +0.000 A 
ATOM     38  C   UNL     1     -12.902  -3.872 -26.126  0.00  0.00    +0.000 A 
ATOM     39  C   UNL     1     -12.065  -3.281 -27.064  0.00  0.00    +0.000 A 
BRANCH  32  40
ATOM     40  C   UNL     1      -7.036  -2.804 -23.842  0.00  0.00    +0.000 A 
ATOM     41  C   UNL     1      -5.936  -3.587 -23.457  0.00  0.00    +0.000 A 
ATOM     42  C   UNL     1      -6.839  -1.438 -24.113  0.00  0.00    +0.000 A 
ATOM     43  C   UNL     1      -4.666  -3.019 -23.395  0.00  0.00    +0.000 A 
ATOM     44  C   UNL     1      -5.565  -0.870 -24.031  0.00  0.00    +0.000 A 
ATOM     45  C   UNL     1      -4.480  -1.669 -23.687  0.00  0.00    +0.000 A 
BRANCH  43  46
ATOM     46  O   UNL     1      -3.578  -3.796 -23.115  0.00  0.00    +0.000 OA
ATOM     47  H   UNL     1      -3.043  -3.896 -23.920  0.00  0.00    +0.000 HD
ENDBRANCH  43  46
BRANCH  45  48
ATOM     48  O   UNL     1      -3.217  -1.149 -23.662  0.00  0.00    +0.000 OA
ATOM     49  H   UNL     1      -2.739  -1.515 -22.900  0.00  0.00    +0.000 HD
ENDBRANCH  45  48
ENDBRANCH  32  40
BRANCH  36  50
ATOM     50  O   UNL     1     -13.229  -4.679 -23.898  0.00  0.00    +0.000 OA
ATOM     51  H   UNL     1     -14.027  -5.022 -24.335  0.00  0.00    +0.000 HD
ENDBRANCH  36  50
BRANCH  39  52
ATOM     52  O   UNL     1     -12.567  -3.062 -28.314  0.00  0.00    +0.000 OA
ATOM     53  H   UNL     1     -13.311  -2.438 -28.246  0.00  0.00    +0.000 HD
ENDBRANCH  39  52
ENDBRANCH  29  31
ENDBRANCH   2  29
TORSDOF 14
ENDMDL
MODEL 5
REMARK VINA RESULT:      -6.7      4.202      7.798
REMARK  Name = 
REMARK  14 active torsions:
REMARK  status: ('A' for Active; 'I' for Inactive)
REMARK    1  A    between atoms: O_1  and  C_14
REMARK    2  A    between atoms: O_1  and  C_15
REMARK    3  A    between atoms: O_4  and  C_16
REMARK    4  A    between atoms: O_5  and  C_18
REMARK    5  A    between atoms: O_6  and  C_26
REMARK    6  A    between atoms: O_7  and  C_29
REMARK    7  A    between atoms: O_8  and  C_35
REMARK    8  A    between atoms: O_9  and  C_36
REMARK    9  A    between atoms: O_10  and  C_39
REMARK   10  A    between atoms: O_11  and  C_40
REMARK   11  A    between atoms: O_12  and  C_41
REMARK   12  A    between atoms: O_13  and  C_43
REMARK   13  A    between atoms: C_14  and  C_20
REMARK   14  A    between atoms: C_17  and  C_24
REMARK                            x       y       z     vdW  Elec       q    Type
REMARK                         _______ _______ _______ _____ _____    ______ ____
ROOT
ATOM      1  O   UNL     1       6.912   0.740 -22.411  0.00  0.00    +0.000 OA
ATOM      2  C   UNL     1       5.661   0.126 -22.072  0.00  0.00    +0.000 C 
ATOM      3  C   UNL     1       4.604   0.348 -23.196  0.00  0.00    +0.000 C 
ATOM      4  C   UNL     1       4.440   1.836 -23.489  0.00  0.00    +0.000 C 
ATOM      5  C   UNL     1       5.770   2.509 -23.652  0.00  0.00    +0.000 A 
ATOM      6  C   UNL     1       6.910   1.924 -23.094  0.00  0.00    +0.000 A 
ATOM      7  C   UNL     1       5.911   3.738 -24.313  0.00  0.00    +0.000 A 
ATOM      8  C   UNL     1       8.156   2.545 -23.212  0.00  0.00    +0.000 A 
ATOM      9  C   UNL     1       7.145   4.374 -24.419  0.00  0.00    +0.000 A 
ATOM     10  C   UNL     1       8.263   3.765 -23.868  0.00  0.00    +0.000 A 
ENDROOT
BRANCH   2  11
ATOM     11  C   UNL     1       5.118   0.583 -20.705  0.00  0.00    +0.000 A 
ATOM     12  C   UNL     1       3.734   0.530 -20.426  0.00  0.00    +0.000 A 
ATOM     13  C   UNL     1       5.980   1.052 -19.691  0.00  0.00    +0.000 A 
ATOM     14  C   UNL     1       3.250   0.943 -19.189  0.00  0.00    +0.000 A 
ATOM     15  C   UNL     1       5.483   1.478 -18.456  0.00  0.00    +0.000 A 
ATOM     16  C   UNL     1       4.122   1.426 -18.219  0.00  0.00    +0.000 A 
BRANCH  14  17
ATOM     17  O   UNL     1       1.924   0.891 -18.866  0.00  0.00    +0.000 OA
ATOM     18  H   UNL     1       1.752   0.098 -18.318  0.00  0.00    +0.000 HD
ENDBRANCH  14  17
BRANCH  16  19
ATOM     19  O   UNL     1       3.636   1.838 -17.012  0.00  0.00    +0.000 OA
ATOM     20  H   UNL     1       4.435   1.977 -16.463  0.00  0.00    +0.000 HD
ENDBRANCH  16  19
ENDBRANCH   2  11
BRANCH   3  21
ATOM     21  O   UNL     1       4.973  -0.325 -24.434  0.00  0.00    +0.000 OA
ATOM     22  H   UNL     1       5.792  -0.815 -24.218  0.00  0.00    +0.000 HD
ENDBRANCH   3  21
BRANCH   4  23
ATOM     23  O   UNL     1       3.669   2.005 -24.691  0.00  0.00    +0.000 OA
ATOM     24  H   UNL     1       4.306   1.806 -25.414  0.00  0.00    +0.000 HD
ENDBRANCH   4  23
BRANCH   7  25
ATOM     25  O   UNL     1       4.845   4.362 -24.903  0.00  0.00    +0.000 OA
ATOM     26  H   UNL     1       5.090   4.530 -25.840  0.00  0.00    +0.000 HD
ENDBRANCH   7  25
BRANCH  10  27
ATOM     27  O   UNL     1       9.498   4.340 -23.950  0.00  0.00    +0.000 OA
ATOM     28  H   UNL     1       9.574   4.783 -24.812  0.00  0.00    +0.000 HD
ENDBRANCH  10  27
BRANCH   2  29
ATOM     29  O   UNL     1       5.849  -1.318 -22.077  0.00  0.00    +0.000 OA
BRANCH  29  31
ATOM     30  O   UNL     1       7.290  -3.760 -19.692  0.00  0.00    +0.000 OA
ATOM     31  C   UNL     1       6.866  -1.850 -21.206  0.00  0.00    +0.000 C 
ATOM     32  C   UNL     1       6.364  -3.199 -20.633  0.00  0.00    +0.000 C 
ATOM     33  C   UNL     1       8.170  -2.129 -21.962  0.00  0.00    +0.000 C 
ATOM     34  C   UNL     1       9.055  -3.105 -21.237  0.00  0.00    +0.000 A 
ATOM     35  C   UNL     1       8.573  -3.852 -20.159  0.00  0.00    +0.000 A 
ATOM     36  C   UNL     1      10.385  -3.292 -21.636  0.00  0.00    +0.000 A 
ATOM     37  C   UNL     1       9.409  -4.729 -19.464  0.00  0.00    +0.000 A 
ATOM     38  C   UNL     1      11.224  -4.175 -20.962  0.00  0.00    +0.000 A 
ATOM     39  C   UNL     1      10.728  -4.884 -19.875  0.00  0.00    +0.000 A 
BRANCH  32  40
ATOM     40  C   UNL     1       5.031  -3.028 -19.916  0.00  0.00    +0.000 A 
ATOM     41  C   UNL     1       4.977  -2.570 -18.590  0.00  0.00    +0.000 A 
ATOM     42  C   UNL     1       3.828  -3.252 -20.610  0.00  0.00    +0.000 A 
ATOM     43  C   UNL     1       3.745  -2.298 -17.998  0.00  0.00    +0.000 A 
ATOM     44  C   UNL     1       2.595  -2.996 -20.004  0.00  0.00    +0.000 A 
ATOM     45  C   UNL     1       2.561  -2.504 -18.703  0.00  0.00    +0.000 A 
BRANCH  43  46
ATOM     46  O   UNL     1       3.690  -1.762 -16.743  0.00  0.00    +0.000 OA
ATOM     47  H   UNL     1       3.580  -0.799 -16.814  0.00  0.00    +0.000 HD
ENDBRANCH  43  46
BRANCH  45  48
ATOM     48  O   UNL     1       1.371  -2.187 -18.113  0.00  0.00    +0.000 OA
ATOM     49  H   UNL     1       0.644  -2.516 -18.668  0.00  0.00    +0.000 HD
ENDBRANCH  45  48
ENDBRANCH  32  40
BRANCH  36  50
ATOM     50  O   UNL     1      10.852  -2.581 -22.706  0.00  0.00    +0.000 OA
ATOM     51  H   UNL     1      11.540  -3.102 -23.154  0.00  0.00    +0.000 HD
ENDBRANCH  36  50
BRANCH  39  52
ATOM     52  O   UNL     1      11.578  -5.736 -19.232  0.00  0.00    +0.000 OA
ATOM     53  H   UNL     1      12.451  -5.312 -19.162  0.00  0.00    +0.000 HD
ENDBRANCH  39  52
ENDBRANCH  29  31
ENDBRANCH   2  29
TORSDOF 14
ENDMDL
MODEL 6
REMARK VINA RESULT:      -6.5      3.052      7.093
REMARK  Name = 
REMARK  14 active torsions:
REMARK  status: ('A' for Active; 'I' for Inactive)
REMARK    1  A    between atoms: O_1  and  C_14
REMARK    2  A    between atoms: O_1  and  C_15
REMARK    3  A    between atoms: O_4  and  C_16
REMARK    4  A    between atoms: O_5  and  C_18
REMARK    5  A    between atoms: O_6  and  C_26
REMARK    6  A    between atoms: O_7  and  C_29
REMARK    7  A    between atoms: O_8  and  C_35
REMARK    8  A    between atoms: O_9  and  C_36
REMARK    9  A    between atoms: O_10  and  C_39
REMARK   10  A    between atoms: O_11  and  C_40
REMARK   11  A    between atoms: O_12  and  C_41
REMARK   12  A    between atoms: O_13  and  C_43
REMARK   13  A    between atoms: C_14  and  C_20
REMARK   14  A    between atoms: C_17  and  C_24
REMARK                            x       y       z     vdW  Elec       q    Type
REMARK                         _______ _______ _______ _____ _____    ______ ____
ROOT
ATOM      1  O   UNL     1      10.436   1.044 -19.100  0.00  0.00    +0.000 OA
ATOM      2  C   UNL     1      10.753  -0.083 -19.929  0.00  0.00    +0.000 C 
ATOM      3  C   UNL     1      10.774  -1.402 -19.098  0.00  0.00    +0.000 C 
ATOM      4  C   UNL     1      11.738  -1.278 -17.922  0.00  0.00    +0.000 C 
ATOM      5  C   UNL     1      11.524   0.004 -17.175  0.00  0.00    +0.000 A 
ATOM      6  C   UNL     1      10.900   1.078 -17.815  0.00  0.00    +0.000 A 
ATOM      7  C   UNL     1      11.966   0.184 -15.856  0.00  0.00    +0.000 A 
ATOM      8  C   UNL     1      10.710   2.290 -17.146  0.00  0.00    +0.000 A 
ATOM      9  C   UNL     1      11.800   1.394 -15.188  0.00  0.00    +0.000 A 
ATOM     10  C   UNL     1      11.165   2.440 -15.841  0.00  0.00    +0.000 A 
ENDROOT
BRANCH   2  11
ATOM     11  C   UNL     1      12.068   0.097 -20.712  0.00  0.00    +0.000 A 
ATOM     12  C   UNL     1      12.540   1.388 -21.038  0.00  0.00    +0.000 A 
ATOM     13  C   UNL     1      12.842  -1.013 -21.111  0.00  0.00    +0.000 A 
ATOM     14  C   UNL     1      13.729   1.543 -21.743  0.00  0.00    +0.000 A 
ATOM     15  C   UNL     1      14.029  -0.847 -21.832  0.00  0.00    +0.000 A 
ATOM     16  C   UNL     1      14.457   0.430 -22.146  0.00  0.00    +0.000 A 
BRANCH  14  17
ATOM     17  O   UNL     1      14.237   2.771 -22.063  0.00  0.00    +0.000 OA
ATOM     18  H   UNL     1      15.186   2.804 -21.826  0.00  0.00    +0.000 HD
ENDBRANCH  14  17
BRANCH  16  19
ATOM     19  O   UNL     1      15.618   0.593 -22.847  0.00  0.00    +0.000 OA
ATOM     20  H   UNL     1      16.303   0.182 -22.281  0.00  0.00    +0.000 HD
ENDBRANCH  16  19
ENDBRANCH   2  11
BRANCH   3  21
ATOM     21  O   UNL     1       9.457  -1.741 -18.576  0.00  0.00    +0.000 OA
ATOM     22  H   UNL     1       8.840  -1.144 -19.047  0.00  0.00    +0.000 HD
ENDBRANCH   3  21
BRANCH   4  23
ATOM     23  O   UNL     1      11.550  -2.389 -17.029  0.00  0.00    +0.000 OA
ATOM     24  H   UNL     1      11.347  -3.144 -17.625  0.00  0.00    +0.000 HD
ENDBRANCH   4  23
BRANCH   7  25
ATOM     25  O   UNL     1      12.567  -0.828 -15.155  0.00  0.00    +0.000 OA
ATOM     26  H   UNL     1      12.191  -1.672 -15.489  0.00  0.00    +0.000 HD
ENDBRANCH   7  25
BRANCH  10  27
ATOM     27  O   UNL     1      10.968   3.645 -15.232  0.00  0.00    +0.000 OA
ATOM     28  H   UNL     1      10.345   3.518 -14.496  0.00  0.00    +0.000 HD
ENDBRANCH  10  27
BRANCH   2  29
ATOM     29  O   UNL     1       9.647  -0.293 -20.851  0.00  0.00    +0.000 OA
BRANCH  29  31
ATOM     30  O   UNL     1       9.469  -1.802 -24.231  0.00  0.00    +0.000 OA
ATOM     31  C   UNL     1       9.973  -0.407 -22.250  0.00  0.00    +0.000 C 
ATOM     32  C   UNL     1       9.146  -1.571 -22.852  0.00  0.00    +0.000 C 
ATOM     33  C   UNL     1       9.608   0.864 -23.023  0.00  0.00    +0.000 C 
ATOM     34  C   UNL     1       9.473   0.619 -24.501  0.00  0.00    +0.000 A 
ATOM     35  C   UNL     1       9.415  -0.681 -25.013  0.00  0.00    +0.000 A 
ATOM     36  C   UNL     1       9.394   1.692 -25.397  0.00  0.00    +0.000 A 
ATOM     37  C   UNL     1       9.328  -0.905 -26.389  0.00  0.00    +0.000 A 
ATOM     38  C   UNL     1       9.291   1.482 -26.770  0.00  0.00    +0.000 A 
ATOM     39  C   UNL     1       9.265   0.181 -27.255  0.00  0.00    +0.000 A 
BRANCH  32  40
ATOM     40  C   UNL     1       9.397  -2.871 -22.100  0.00  0.00    +0.000 A 
ATOM     41  C   UNL     1      10.667  -3.470 -22.097  0.00  0.00    +0.000 A 
ATOM     42  C   UNL     1       8.372  -3.443 -21.325  0.00  0.00    +0.000 A 
ATOM     43  C   UNL     1      10.907  -4.586 -21.298  0.00  0.00    +0.000 A 
ATOM     44  C   UNL     1       8.614  -4.573 -20.541  0.00  0.00    +0.000 A 
ATOM     45  C   UNL     1       9.888  -5.131 -20.519  0.00  0.00    +0.000 A 
BRANCH  43  46
ATOM     46  O   UNL     1      12.163  -5.116 -21.218  0.00  0.00    +0.000 OA
ATOM     47  H   UNL     1      12.809  -4.393 -21.150  0.00  0.00    +0.000 HD
ENDBRANCH  43  46
BRANCH  45  48
ATOM     48  O   UNL     1      10.164  -6.198 -19.712  0.00  0.00    +0.000 OA
ATOM     49  H   UNL     1      11.108  -6.415 -19.785  0.00  0.00    +0.000 HD
ENDBRANCH  45  48
ENDBRANCH  32  40
BRANCH  36  50
ATOM     50  O   UNL     1       9.425   2.964 -24.897  0.00  0.00    +0.000 OA
ATOM     51  H   UNL     1       9.193   3.587 -25.606  0.00  0.00    +0.000 HD
ENDBRANCH  36  50
BRANCH  39  52
ATOM     52  O   UNL     1       9.171   0.008 -28.605  0.00  0.00    +0.000 OA
ATOM     53  H   UNL     1       9.471  -0.890 -28.826  0.00  0.00    +0.000 HD
ENDBRANCH  39  52
ENDBRANCH  29  31
ENDBRANCH   2  29
TORSDOF 14
ENDMDL
MODEL 7
REMARK VINA RESULT:      -6.5     11.192     14.253
REMARK  Name = 
REMARK  14 active torsions:
REMARK  status: ('A' for Active; 'I' for Inactive)
REMARK    1  A    between atoms: O_1  and  C_14
REMARK    2  A    between atoms: O_1  and  C_15
REMARK    3  A    between atoms: O_4  and  C_16
REMARK    4  A    between atoms: O_5  and  C_18
REMARK    5  A    between atoms: O_6  and  C_26
REMARK    6  A    between atoms: O_7  and  C_29
REMARK    7  A    between atoms: O_8  and  C_35
REMARK    8  A    between atoms: O_9  and  C_36
REMARK    9  A    between atoms: O_10  and  C_39
REMARK   10  A    between atoms: O_11  and  C_40
REMARK   11  A    between atoms: O_12  and  C_41
REMARK   12  A    between atoms: O_13  and  C_43
REMARK   13  A    between atoms: C_14  and  C_20
REMARK   14  A    between atoms: C_17  and  C_24
REMARK                            x       y       z     vdW  Elec       q    Type
REMARK                         _______ _______ _______ _____ _____    ______ ____
ROOT
ATOM      1  O   UNL     1      12.686  13.430 -15.728  0.00  0.00    +0.000 OA
ATOM      2  C   UNL     1      12.573  12.115 -15.167  0.00  0.00    +0.000 C 
ATOM      3  C   UNL     1      11.230  11.948 -14.393  0.00  0.00    +0.000 C 
ATOM      4  C   UNL     1      11.090  13.030 -13.327  0.00  0.00    +0.000 C 
ATOM      5  C   UNL     1      11.399  14.388 -13.884  0.00  0.00    +0.000 A 
ATOM      6  C   UNL     1      12.183  14.496 -15.036  0.00  0.00    +0.000 A 
ATOM      7  C   UNL     1      10.964  15.569 -13.265  0.00  0.00    +0.000 A 
ATOM      8  C   UNL     1      12.504  15.751 -15.561  0.00  0.00    +0.000 A 
ATOM      9  C   UNL     1      11.296  16.823 -13.768  0.00  0.00    +0.000 A 
ATOM     10  C   UNL     1      12.063  16.903 -14.921  0.00  0.00    +0.000 A 
ENDROOT
BRANCH   2  11
ATOM     11  C   UNL     1      13.773  11.737 -14.277  0.00  0.00    +0.000 A 
ATOM     12  C   UNL     1      14.835  12.647 -14.077  0.00  0.00    +0.000 A 
ATOM     13  C   UNL     1      13.842  10.486 -13.629  0.00  0.00    +0.000 A 
ATOM     14  C   UNL     1      15.915  12.300 -13.271  0.00  0.00    +0.000 A 
ATOM     15  C   UNL     1      14.937  10.141 -12.832  0.00  0.00    +0.000 A 
ATOM     16  C   UNL     1      15.967  11.049 -12.666  0.00  0.00    +0.000 A 
BRANCH  14  17
ATOM     17  O   UNL     1      16.954  13.154 -13.030  0.00  0.00    +0.000 OA
ATOM     18  H   UNL     1      16.614  13.977 -12.624  0.00  0.00    +0.000 HD
ENDBRANCH  14  17
BRANCH  16  19
ATOM     19  O   UNL     1      17.035  10.715 -11.885  0.00  0.00    +0.000 OA
ATOM     20  H   UNL     1      16.666  10.101 -11.218  0.00  0.00    +0.000 HD
ENDBRANCH  16  19
ENDBRANCH   2  11
BRANCH   3  21
ATOM     21  O   UNL     1      10.077  12.024 -15.278  0.00  0.00    +0.000 OA
ATOM     22  H   UNL     1       9.427  12.576 -14.797  0.00  0.00    +0.000 HD
ENDBRANCH   3  21
BRANCH   4  23
ATOM     23  O   UNL     1       9.748  13.022 -12.810  0.00  0.00    +0.000 OA
ATOM     24  H   UNL     1       9.257  12.435 -13.427  0.00  0.00    +0.000 HD
ENDBRANCH   4  23
BRANCH   7  25
ATOM     25  O   UNL     1      10.176  15.543 -12.146  0.00  0.00    +0.000 OA
ATOM     26  H   UNL     1       9.645  14.717 -12.184  0.00  0.00    +0.000 HD
ENDBRANCH   7  25
BRANCH  10  27
ATOM     27  O   UNL     1      12.410  18.106 -15.463  0.00  0.00    +0.000 OA
ATOM     28  H   UNL     1      13.034  17.946 -16.191  0.00  0.00    +0.000 HD
ENDBRANCH  10  27
BRANCH   2  29
ATOM     29  O   UNL     1      12.443  11.164 -16.261  0.00  0.00    +0.000 OA
BRANCH  29  31
ATOM     30  O   UNL     1      14.074  11.250 -19.586  0.00  0.00    +0.000 OA
ATOM     31  C   UNL     1      12.667  11.663 -17.594  0.00  0.00    +0.000 C 
ATOM     32  C   UNL     1      13.736  10.774 -18.277  0.00  0.00    +0.000 C 
ATOM     33  C   UNL     1      11.396  11.591 -18.447  0.00  0.00    +0.000 C 
ATOM     34  C   UNL     1      11.691  11.630 -19.921  0.00  0.00    +0.000 A 
ATOM     35  C   UNL     1      12.994  11.463 -20.399  0.00  0.00    +0.000 A 
ATOM     36  C   UNL     1      10.661  11.829 -20.848  0.00  0.00    +0.000 A 
ATOM     37  C   UNL     1      13.270  11.539 -21.767  0.00  0.00    +0.000 A 
ATOM     38  C   UNL     1      10.921  11.890 -22.216  0.00  0.00    +0.000 A 
ATOM     39  C   UNL     1      12.228  11.750 -22.662  0.00  0.00    +0.000 A 
BRANCH  32  40
ATOM     40  C   UNL     1      15.020  10.733 -17.459  0.00  0.00    +0.000 A 
ATOM     41  C   UNL     1      15.391   9.577 -16.754  0.00  0.00    +0.000 A 
ATOM     42  C   UNL     1      15.895  11.834 -17.472  0.00  0.00    +0.000 A 
ATOM     43  C   UNL     1      16.630   9.517 -16.120  0.00  0.00    +0.000 A 
ATOM     44  C   UNL     1      17.128  11.775 -16.818  0.00  0.00    +0.000 A 
ATOM     45  C   UNL     1      17.497  10.608 -16.157  0.00  0.00    +0.000 A 
BRANCH  43  46
ATOM     46  O   UNL     1      17.037   8.363 -15.513  0.00  0.00    +0.000 OA
ATOM     47  H   UNL     1      16.860   8.426 -14.559  0.00  0.00    +0.000 HD
ENDBRANCH  43  46
BRANCH  45  48
ATOM     48  O   UNL     1      18.723  10.505 -15.564  0.00  0.00    +0.000 OA
ATOM     49  H   UNL     1      19.177   9.717 -15.908  0.00  0.00    +0.000 HD
ENDBRANCH  45  48
ENDBRANCH  32  40
BRANCH  36  50
ATOM     50  O   UNL     1       9.383  11.968 -20.385  0.00  0.00    +0.000 OA
ATOM     51  H   UNL     1       9.070  12.866 -20.587  0.00  0.00    +0.000 HD
ENDBRANCH  36  50
BRANCH  39  52
ATOM     52  O   UNL     1      12.451  11.822 -24.007  0.00  0.00    +0.000 OA
ATOM     53  H   UNL     1      12.721  10.944 -24.326  0.00  0.00    +0.000 HD
ENDBRANCH  39  52
ENDBRANCH  29  31
ENDBRANCH   2  29
TORSDOF 14
ENDMDL
MODEL 8
REMARK VINA RESULT:      -6.5     15.446     19.955
REMARK  Name = 
REMARK  14 active torsions:
REMARK  status: ('A' for Active; 'I' for Inactive)
REMARK    1  A    between atoms: O_1  and  C_14
REMARK    2  A    between atoms: O_1  and  C_15
REMARK    3  A    between atoms: O_4  and  C_16
REMARK    4  A    between atoms: O_5  and  C_18
REMARK    5  A    between atoms: O_6  and  C_26
REMARK    6  A    between atoms: O_7  and  C_29
REMARK    7  A    between atoms: O_8  and  C_35
REMARK    8  A    between atoms: O_9  and  C_36
REMARK    9  A    between atoms: O_10  and  C_39
REMARK   10  A    between atoms: O_11  and  C_40
REMARK   11  A    between atoms: O_12  and  C_41
REMARK   12  A    between atoms: O_13  and  C_43
REMARK   13  A    between atoms: C_14  and  C_20
REMARK   14  A    between atoms: C_17  and  C_24
REMARK                            x       y       z     vdW  Elec       q    Type
REMARK                         _______ _______ _______ _____ _____    ______ ____
ROOT
ATOM      1  O   UNL     1      12.438  -6.510  -2.421  0.00  0.00    +0.000 OA
ATOM      2  C   UNL     1      11.252  -7.313  -2.359  0.00  0.00    +0.000 C 
ATOM      3  C   UNL     1      10.034  -6.479  -1.857  0.00  0.00    +0.000 C 
ATOM      4  C   UNL     1      10.348  -5.833  -0.511  0.00  0.00    +0.000 C 
ATOM      5  C   UNL     1      11.685  -5.156  -0.531  0.00  0.00    +0.000 A 
ATOM      6  C   UNL     1      12.641  -5.546  -1.473  0.00  0.00    +0.000 A 
ATOM      7  C   UNL     1      12.036  -4.163   0.396  0.00  0.00    +0.000 A 
ATOM      8  C   UNL     1      13.902  -4.946  -1.496  0.00  0.00    +0.000 A 
ATOM      9  C   UNL     1      13.297  -3.573   0.394  0.00  0.00    +0.000 A 
ATOM     10  C   UNL     1      14.222  -3.969  -0.560  0.00  0.00    +0.000 A 
ENDROOT
BRANCH   2  11
ATOM     11  C   UNL     1      11.434  -8.589  -1.514  0.00  0.00    +0.000 A 
ATOM     12  C   UNL     1      10.377  -9.516  -1.373  0.00  0.00    +0.000 A 
ATOM     13  C   UNL     1      12.657  -8.876  -0.871  0.00  0.00    +0.000 A 
ATOM     14  C   UNL     1      10.549 -10.666  -0.610  0.00  0.00    +0.000 A 
ATOM     15  C   UNL     1      12.815 -10.027  -0.095  0.00  0.00    +0.000 A 
ATOM     16  C   UNL     1      11.757 -10.908   0.034  0.00  0.00    +0.000 A 
BRANCH  14  17
ATOM     17  O   UNL     1       9.564 -11.601  -0.462  0.00  0.00    +0.000 OA
ATOM     18  H   UNL     1       9.852 -12.281   0.181  0.00  0.00    +0.000 HD
ENDBRANCH  14  17
BRANCH  16  19
ATOM     19  O   UNL     1      11.912 -12.036   0.788  0.00  0.00    +0.000 OA
ATOM     20  H   UNL     1      11.525 -11.802   1.656  0.00  0.00    +0.000 HD
ENDBRANCH  16  19
ENDBRANCH   2  11
BRANCH   3  21
ATOM     21  O   UNL     1       9.667  -5.429  -2.796  0.00  0.00    +0.000 OA
ATOM     22  H   UNL     1      10.167  -4.642  -2.500  0.00  0.00    +0.000 HD
ENDBRANCH   3  21
BRANCH   4  23
ATOM     23  O   UNL     1       9.329  -4.868  -0.194  0.00  0.00    +0.000 OA
ATOM     24  H   UNL     1       8.564  -5.137  -0.749  0.00  0.00    +0.000 HD
ENDBRANCH   4  23
BRANCH   7  25
ATOM     25  O   UNL     1      11.147  -3.713   1.336  0.00  0.00    +0.000 OA
ATOM     26  H   UNL     1      10.971  -2.766   1.137  0.00  0.00    +0.000 HD
ENDBRANCH   7  25
BRANCH  10  27
ATOM     27  O   UNL     1      15.469  -3.418  -0.613  0.00  0.00    +0.000 OA
ATOM     28  H   UNL     1      15.579  -2.833   0.155  0.00  0.00    +0.000 HD
ENDBRANCH  10  27
BRANCH   2  29
ATOM     29  O   UNL     1      10.871  -7.666  -3.719  0.00  0.00    +0.000 OA
BRANCH  29  31
ATOM     30  O   UNL     1      13.149  -8.151  -6.601  0.00  0.00    +0.000 OA
ATOM     31  C   UNL     1      11.748  -7.236  -4.779  0.00  0.00    +0.000 C 
ATOM     32  C   UNL     1      12.208  -8.485  -5.571  0.00  0.00    +0.000 C 
ATOM     33  C   UNL     1      11.034  -6.304  -5.763  0.00  0.00    +0.000 C 
ATOM     34  C   UNL     1      11.730  -6.233  -7.094  0.00  0.00    +0.000 A 
ATOM     35  C   UNL     1      12.734  -7.145  -7.431  0.00  0.00    +0.000 A 
ATOM     36  C   UNL     1      11.378  -5.252  -8.030  0.00  0.00    +0.000 A 
ATOM     37  C   UNL     1      13.405  -7.052  -8.653  0.00  0.00    +0.000 A 
ATOM     38  C   UNL     1      12.028  -5.159  -9.258  0.00  0.00    +0.000 A 
ATOM     39  C   UNL     1      13.043  -6.060  -9.556  0.00  0.00    +0.000 A 
BRANCH  32  40
ATOM     40  C   UNL     1      12.875  -9.502  -4.655  0.00  0.00    +0.000 A 
ATOM     41  C   UNL     1      12.241 -10.713  -4.337  0.00  0.00    +0.000 A 
ATOM     42  C   UNL     1      14.179  -9.270  -4.182  0.00  0.00    +0.000 A 
ATOM     43  C   UNL     1      12.922 -11.683  -3.605  0.00  0.00    +0.000 A 
ATOM     44  C   UNL     1      14.849 -10.240  -3.431  0.00  0.00    +0.000 A 
ATOM     45  C   UNL     1      14.221 -11.451  -3.159  0.00  0.00    +0.000 A 
BRANCH  43  46
ATOM     46  O   UNL     1      12.346 -12.900  -3.374  0.00  0.00    +0.000 OA
ATOM     47  H   UNL     1      12.743 -13.295  -2.580  0.00  0.00    +0.000 HD
ENDBRANCH  43  46
BRANCH  45  48
ATOM     48  O   UNL     1      14.880 -12.436  -2.481  0.00  0.00    +0.000 OA
ATOM     49  H   UNL     1      14.256 -13.150  -2.272  0.00  0.00    +0.000 HD
ENDBRANCH  45  48
ENDBRANCH  32  40
BRANCH  36  50
ATOM     50  O   UNL     1      10.379  -4.375  -7.713  0.00  0.00    +0.000 OA
ATOM     51  H   UNL     1       9.717  -4.834  -7.169  0.00  0.00    +0.000 HD
ENDBRANCH  36  50
BRANCH  39  52
ATOM     52  O   UNL     1      13.665  -5.937 -10.765  0.00  0.00    +0.000 OA
ATOM     53  H   UNL     1      13.028  -5.584 -11.409  0.00  0.00    +0.000 HD
ENDBRANCH  39  52
ENDBRANCH  29  31
ENDBRANCH   2  29
TORSDOF 14
ENDMDL
MODEL 9
REMARK VINA RESULT:      -6.5     11.714     14.528
REMARK  Name = 
REMARK  14 active torsions:
REMARK  status: ('A' for Active; 'I' for Inactive)
REMARK    1  A    between atoms: O_1  and  C_14
REMARK    2  A    between atoms: O_1  and  C_15
REMARK    3  A    between atoms: O_4  and  C_16
REMARK    4  A    between atoms: O_5  and  C_18
REMARK    5  A    between atoms: O_6  and  C_26
REMARK    6  A    between atoms: O_7  and  C_29
REMARK    7  A    between atoms: O_8  and  C_35
REMARK    8  A    between atoms: O_9  and  C_36
REMARK    9  A    between atoms: O_10  and  C_39
REMARK   10  A    between atoms: O_11  and  C_40
REMARK   11  A    between atoms: O_12  and  C_41
REMARK   12  A    between atoms: O_13  and  C_43
REMARK   13  A    between atoms: C_14  and  C_20
REMARK   14  A    between atoms: C_17  and  C_24
REMARK                            x       y       z     vdW  Elec       q    Type
REMARK                         _______ _______ _______ _____ _____    ______ ____
ROOT
ATOM      1  O   UNL     1      13.105  12.785 -14.029  0.00  0.00    +0.000 OA
ATOM      2  C   UNL     1      13.348  11.372 -13.996  0.00  0.00    +0.000 C 
ATOM      3  C   UNL     1      12.234  10.629 -13.198  0.00  0.00    +0.000 C 
ATOM      4  C   UNL     1      12.104  11.212 -11.793  0.00  0.00    +0.000 C 
ATOM      5  C   UNL     1      12.045  12.710 -11.829  0.00  0.00    +0.000 A 
ATOM      6  C   UNL     1      12.558  13.393 -12.934  0.00  0.00    +0.000 A 
ATOM      7  C   UNL     1      11.527  13.463 -10.765  0.00  0.00    +0.000 A 
ATOM      8  C   UNL     1      12.535  14.790 -12.979  0.00  0.00    +0.000 A 
ATOM      9  C   UNL     1      11.518  14.855 -10.791  0.00  0.00    +0.000 A 
ATOM     10  C   UNL     1      12.021  15.509 -11.907  0.00  0.00    +0.000 A 
ENDROOT
BRANCH   2  11
ATOM     11  C   UNL     1      14.746  11.015 -13.456  0.00  0.00    +0.000 A 
ATOM     12  C   UNL     1      15.118   9.666 -13.259  0.00  0.00    +0.000 A 
ATOM     13  C   UNL     1      15.695  12.015 -13.158  0.00  0.00    +0.000 A 
ATOM     14  C   UNL     1      16.383   9.351 -12.773  0.00  0.00    +0.000 A 
ATOM     15  C   UNL     1      16.959  11.688 -12.657  0.00  0.00    +0.000 A 
ATOM     16  C   UNL     1      17.288  10.359 -12.463  0.00  0.00    +0.000 A 
BRANCH  14  17
ATOM     17  O   UNL     1      16.796   8.062 -12.586  0.00  0.00    +0.000 OA
ATOM     18  H   UNL     1      17.773   8.023 -12.625  0.00  0.00    +0.000 HD
ENDBRANCH  14  17
BRANCH  16  19
ATOM     19  O   UNL     1      18.523  10.040 -11.977  0.00  0.00    +0.000 OA
ATOM     20  H   UNL     1      19.018   9.722 -12.760  0.00  0.00    +0.000 HD
ENDBRANCH  16  19
ENDBRANCH   2  11
BRANCH   3  21
ATOM     21  O   UNL     1      10.937  10.722 -13.853  0.00  0.00    +0.000 OA
ATOM     22  H   UNL     1      10.854  11.661 -14.114  0.00  0.00    +0.000 HD
ENDBRANCH   3  21
BRANCH   4  23
ATOM     23  O   UNL     1      10.913  10.702 -11.171  0.00  0.00    +0.000 OA
ATOM     24  H   UNL     1      10.967  11.030 -10.245  0.00  0.00    +0.000 HD
ENDBRANCH   4  23
BRANCH   7  25
ATOM     25  O   UNL     1      10.988  12.865  -9.657  0.00  0.00    +0.000 OA
ATOM     26  H   UNL     1      11.585  12.125  -9.409  0.00  0.00    +0.000 HD
ENDBRANCH   7  25
BRANCH  10  27
ATOM     27  O   UNL     1      12.029  16.871 -11.989  0.00  0.00    +0.000 OA
ATOM     28  H   UNL     1      11.109  17.179 -12.053  0.00  0.00    +0.000 HD
ENDBRANCH  10  27
BRANCH   2  29
ATOM     29  O   UNL     1      13.186  10.852 -15.347  0.00  0.00    +0.000 OA
BRANCH  29  31
ATOM     30  O   UNL     1      14.496  12.090 -18.584  0.00  0.00    +0.000 OA
ATOM     31  C   UNL     1      13.314  11.792 -16.431  0.00  0.00    +0.000 C 
ATOM     32  C   UNL     1      14.254  11.182 -17.500  0.00  0.00    +0.000 C 
ATOM     33  C   UNL     1      11.966  12.066 -17.106  0.00  0.00    +0.000 C 
ATOM     34  C   UNL     1      12.122  12.627 -18.492  0.00  0.00    +0.000 A 
ATOM     35  C   UNL     1      13.360  12.610 -19.141  0.00  0.00    +0.000 A 
ATOM     36  C   UNL     1      11.023  13.174 -19.167  0.00  0.00    +0.000 A 
ATOM     37  C   UNL     1      13.509  13.167 -20.414  0.00  0.00    +0.000 A 
ATOM     38  C   UNL     1      11.156  13.717 -20.443  0.00  0.00    +0.000 A 
ATOM     39  C   UNL     1      12.403  13.714 -21.053  0.00  0.00    +0.000 A 
BRANCH  32  40
ATOM     40  C   UNL     1      15.605  10.816 -16.900  0.00  0.00    +0.000 A 
ATOM     41  C   UNL     1      15.935   9.479 -16.625  0.00  0.00    +0.000 A 
ATOM     42  C   UNL     1      16.574  11.814 -16.691  0.00  0.00    +0.000 A 
ATOM     43  C   UNL     1      17.220   9.154 -16.198  0.00  0.00    +0.000 A 
ATOM     44  C   UNL     1      17.855  11.483 -16.244  0.00  0.00    +0.000 A 
ATOM     45  C   UNL     1      18.178  10.149 -16.015  0.00  0.00    +0.000 A 
BRANCH  43  46
ATOM     46  O   UNL     1      17.576   7.847 -16.021  0.00  0.00    +0.000 OA
ATOM     47  H   UNL     1      17.137   7.304 -16.698  0.00  0.00    +0.000 HD
ENDBRANCH  43  46
BRANCH  45  48
ATOM     48  O   UNL     1      19.443   9.797 -15.639  0.00  0.00    +0.000 OA
ATOM     49  H   UNL     1      19.949  10.601 -15.436  0.00  0.00    +0.000 HD
ENDBRANCH  45  48
ENDBRANCH  32  40
BRANCH  36  50
ATOM     50  O   UNL     1       9.806  13.169 -18.545  0.00  0.00    +0.000 OA
ATOM     51  H   UNL     1       9.407  14.052 -18.628  0.00  0.00    +0.000 HD
ENDBRANCH  36  50
BRANCH  39  52
ATOM     52  O   UNL     1      12.501  14.261 -22.300  0.00  0.00    +0.000 OA
ATOM     53  H   UNL     1      12.580  15.226 -22.212  0.00  0.00    +0.000 HD
ENDBRANCH  39  52
ENDBRANCH  29  31
ENDBRANCH   2  29
TORSDOF 14
ENDMDL
