MODEL 1
REMARK VINA RESULT:      -6.6      0.000      0.000
REMARK  Name = Progesterone.pdbqt.pdb
REMARK  1 active torsions:
REMARK  status: ('A' for Active; 'I' for Inactive)
REMARK    1  A    between atoms: C_7  and  C_21
REMARK                            x       y       z     vdW  Elec       q    Type
REMARK                         _______ _______ _______ _____ _____    ______ ____
ROOT
ATOM      1  O   UNL     1       3.087   0.800 -17.454  0.00  0.00    +0.000 OA
ATOM      2  C   UNL     1      10.619  -0.185 -18.416  0.00  0.00    +0.000 C 
ATOM      3  C   UNL     1      11.225  -1.465 -19.210  0.00  0.00    +0.000 C 
ATOM      4  C   UNL     1       9.269   0.348 -18.686  0.00  0.00    +0.000 C 
ATOM      5  C   UNL     1       8.193  -0.331 -19.487  0.00  0.00    +0.000 C 
ATOM      6  C   UNL     1       6.838   0.321 -19.841  0.00  0.00    +0.000 C 
ATOM      7  C   UNL     1      11.893  -2.250 -18.120  0.00  0.00    +0.000 C 
ATOM      8  C   UNL     1      10.050  -2.102 -19.806  0.00  0.00    +0.000 C 
ATOM      9  C   UNL     1       8.641  -1.591 -19.972  0.00  0.00    +0.000 C 
ATOM     10  C   UNL     1      11.115  -0.245 -17.075  0.00  0.00    +0.000 C 
ATOM     11  C   UNL     1       8.814   1.535 -18.067  0.00  0.00    +0.000 C 
ATOM     12  C   UNL     1      11.874  -1.531 -16.891  0.00  0.00    +0.000 C 
ATOM     13  C   UNL     1       6.387   1.577 -18.859  0.00  0.00    +0.000 C 
ATOM     14  C   UNL     1      12.248  -0.909 -20.228  0.00  0.00    +0.000 C 
ATOM     15  C   UNL     1       7.450   2.155 -18.122  0.00  0.00    +0.000 C 
ATOM     16  C   UNL     1       5.721  -0.663 -19.652  0.00  0.00    +0.000 C 
ATOM     17  C   UNL     1       6.883   0.872 -21.291  0.00  0.00    +0.000 C 
ATOM     18  C   UNL     1       4.383  -0.597 -18.883  0.00  0.00    +0.000 C 
ATOM     19  C   UNL     1       5.203   1.514 -18.287  0.00  0.00    +0.000 C 
ATOM     20  C   UNL     1       4.077   0.606 -18.132  0.00  0.00    +0.000 C 
ENDROOT
BRANCH   7  21
ATOM     21  C   UNL     1      12.509  -3.539 -18.317  0.00  0.00    +0.000 C 
ATOM     22  O   UNL     1      11.926  -4.610 -18.287  0.00  0.00    +0.000 OA
ATOM     23  C   UNL     1      13.945  -3.730 -18.680  0.00  0.00    +0.000 C 
ENDBRANCH   7  21
TORSDOF 1
ENDMDL
MODEL 2
REMARK VINA RESULT:      -6.2     21.813     23.844
REMARK  Name = Progesterone.pdbqt.pdb
REMARK  1 active torsions:
REMARK  status: ('A' for Active; 'I' for Inactive)
REMARK    1  A    between atoms: C_7  and  C_21
REMARK                            x       y       z     vdW  Elec       q    Type
REMARK                         _______ _______ _______ _____ _____    ______ ____
ROOT
ATOM      1  O   UNL     1      -7.454   0.380   0.393  0.00  0.00    +0.000 OA
ATOM      2  C   UNL     1       0.002   1.763   1.449  0.00  0.00    +0.000 C 
ATOM      3  C   UNL     1       0.574   2.388   2.835  0.00  0.00    +0.000 C 
ATOM      4  C   UNL     1      -1.242   0.971   1.392  0.00  0.00    +0.000 C 
ATOM      5  C   UNL     1      -2.269   0.854   2.484  0.00  0.00    +0.000 C 
ATOM      6  C   UNL     1      -3.495  -0.083   2.420  0.00  0.00    +0.000 C 
ATOM      7  C   UNL     1       1.014   3.763   2.426  0.00  0.00    +0.000 C 
ATOM      8  C   UNL     1      -0.573   2.346   3.743  0.00  0.00    +0.000 C 
ATOM      9  C   UNL     1      -1.891   1.623   3.619  0.00  0.00    +0.000 C 
ATOM     10  C   UNL     1       0.313   2.692   0.406  0.00  0.00    +0.000 C 
ATOM     11  C   UNL     1      -1.652   0.338   0.195  0.00  0.00    +0.000 C 
ATOM     12  C   UNL     1       0.910   3.932   1.016  0.00  0.00    +0.000 C 
ATOM     13  C   UNL     1      -3.940  -0.552   0.895  0.00  0.00    +0.000 C 
ATOM     14  C   UNL     1       1.770   1.504   3.258  0.00  0.00    +0.000 C 
ATOM     15  C   UNL     1      -2.928  -0.397  -0.084  0.00  0.00    +0.000 C 
ATOM     16  C   UNL     1      -4.720   0.627   2.918  0.00  0.00    +0.000 C 
ATOM     17  C   UNL     1      -3.210  -1.377   3.227  0.00  0.00    +0.000 C 
ATOM     18  C   UNL     1      -6.133   0.824   2.324  0.00  0.00    +0.000 C 
ATOM     19  C   UNL     1      -5.188  -0.346   0.529  0.00  0.00    +0.000 C 
ATOM     20  C   UNL     1      -6.410   0.282   1.009  0.00  0.00    +0.000 C 
ENDROOT
BRANCH   7  21
ATOM     21  C   UNL     1       1.518   4.754   3.344  0.00  0.00    +0.000 C 
ATOM     22  O   UNL     1       0.937   5.778   3.664  0.00  0.00    +0.000 OA
ATOM     23  C   UNL     1       2.793   4.611   4.108  0.00  0.00    +0.000 C 
ENDBRANCH   7  21
TORSDOF 1
ENDMDL
MODEL 3
REMARK VINA RESULT:      -6.1     17.065     18.602
REMARK  Name = Progesterone.pdbqt.pdb
REMARK  1 active torsions:
REMARK  status: ('A' for Active; 'I' for Inactive)
REMARK    1  A    between atoms: C_7  and  C_21
REMARK                            x       y       z     vdW  Elec       q    Type
REMARK                         _______ _______ _______ _____ _____    ______ ____
ROOT
ATOM      1  O   UNL     1      -5.152 -16.886 -18.155  0.00  0.00    +0.000 OA
ATOM      2  C   UNL     1       2.271 -15.951 -16.530  0.00  0.00    +0.000 C 
ATOM      3  C   UNL     1       2.922 -16.484 -15.142  0.00  0.00    +0.000 C 
ATOM      4  C   UNL     1       1.076 -16.572 -17.135  0.00  0.00    +0.000 C 
ATOM      5  C   UNL     1       0.157 -17.557 -16.467  0.00  0.00    +0.000 C 
ATOM      6  C   UNL     1      -1.013 -18.269 -17.183  0.00  0.00    +0.000 C 
ATOM      7  C   UNL     1       3.242 -15.213 -14.412  0.00  0.00    +0.000 C 
ATOM      8  C   UNL     1       1.863 -17.297 -14.542  0.00  0.00    +0.000 C 
ATOM      9  C   UNL     1       0.584 -17.830 -15.139  0.00  0.00    +0.000 C 
ATOM     10  C   UNL     1       2.435 -14.530 -16.556  0.00  0.00    +0.000 C 
ATOM     11  C   UNL     1       0.603 -16.165 -18.404  0.00  0.00    +0.000 C 
ATOM     12  C   UNL     1       3.007 -14.079 -15.239  0.00  0.00    +0.000 C 
ATOM     13  C   UNL     1      -1.559 -17.515 -18.553  0.00  0.00    +0.000 C 
ATOM     14  C   UNL     1       4.201 -17.265 -15.524  0.00  0.00    +0.000 C 
ATOM     15  C   UNL     1      -0.646 -16.589 -19.116  0.00  0.00    +0.000 C 
ATOM     16  C   UNL     1      -2.230 -18.283 -16.306  0.00  0.00    +0.000 C 
ATOM     17  C   UNL     1      -0.582 -19.702 -17.595  0.00  0.00    +0.000 C 
ATOM     18  C   UNL     1      -3.698 -17.862 -16.541  0.00  0.00    +0.000 C 
ATOM     19  C   UNL     1      -2.844 -17.239 -18.631  0.00  0.00    +0.000 C 
ATOM     20  C   UNL     1      -4.055 -17.294 -17.826  0.00  0.00    +0.000 C 
ENDROOT
BRANCH   7  21
ATOM     21  C   UNL     1       3.764 -15.165 -13.068  0.00  0.00    +0.000 C 
ATOM     22  O   UNL     1       4.882 -15.520 -12.734  0.00  0.00    +0.000 OA
ATOM     23  C   UNL     1       3.028 -14.577 -11.909  0.00  0.00    +0.000 C 
ENDBRANCH   7  21
TORSDOF 1
ENDMDL
MODEL 4
REMARK VINA RESULT:      -6.0      2.957      6.971
REMARK  Name = Progesterone.pdbqt.pdb
REMARK  1 active torsions:
REMARK  status: ('A' for Active; 'I' for Inactive)
REMARK    1  A    between atoms: C_7  and  C_21
REMARK                            x       y       z     vdW  Elec       q    Type
REMARK                         _______ _______ _______ _____ _____    ______ ____
ROOT
ATOM      1  O   UNL     1      14.611   0.728 -23.647  0.00  0.00    +0.000 OA
ATOM      2  C   UNL     1       7.630   1.629 -20.635  0.00  0.00    +0.000 C 
ATOM      3  C   UNL     1       7.142   0.796 -19.329  0.00  0.00    +0.000 C 
ATOM      4  C   UNL     1       9.051   1.932 -20.896  0.00  0.00    +0.000 C 
ATOM      5  C   UNL     1      10.230   1.319 -20.191  0.00  0.00    +0.000 C 
ATOM      6  C   UNL     1      11.694   1.757 -20.418  0.00  0.00    +0.000 C 
ATOM      7  C   UNL     1       6.100  -0.125 -19.891  0.00  0.00    +0.000 C 
ATOM      8  C   UNL     1       8.359   0.141 -18.850  0.00  0.00    +0.000 C 
ATOM      9  C   UNL     1       9.804   0.380 -19.212  0.00  0.00    +0.000 C 
ATOM     10  C   UNL     1       6.760   1.274 -21.714  0.00  0.00    +0.000 C 
ATOM     11  C   UNL     1       9.437   2.761 -21.974  0.00  0.00    +0.000 C 
ATOM     12  C   UNL     1       5.839   0.174 -21.258  0.00  0.00    +0.000 C 
ATOM     13  C   UNL     1      11.978   2.543 -21.849  0.00  0.00    +0.000 C 
ATOM     14  C   UNL     1       6.531   1.826 -18.351  0.00  0.00    +0.000 C 
ATOM     15  C   UNL     1      10.818   3.078 -22.462  0.00  0.00    +0.000 C 
ATOM     16  C   UNL     1      12.588   0.556 -20.519  0.00  0.00    +0.000 C 
ATOM     17  C   UNL     1      12.139   2.713 -19.279  0.00  0.00    +0.000 C 
ATOM     18  C   UNL     1      13.641   0.116 -21.560  0.00  0.00    +0.000 C 
ATOM     19  C   UNL     1      12.927   2.073 -22.630  0.00  0.00    +0.000 C 
ATOM     20  C   UNL     1      13.848   0.950 -22.727  0.00  0.00    +0.000 C 
ENDROOT
BRANCH   7  21
ATOM     21  C   UNL     1       5.426  -1.143 -19.123  0.00  0.00    +0.000 C 
ATOM     22  O   UNL     1       5.859  -2.262 -18.904  0.00  0.00    +0.000 OA
ATOM     23  C   UNL     1       4.134  -0.928 -18.405  0.00  0.00    +0.000 C 
ENDBRANCH   7  21
TORSDOF 1
ENDMDL
MODEL 5
REMARK VINA RESULT:      -5.7     13.824     18.158
REMARK  Name = Progesterone.pdbqt.pdb
REMARK  1 active torsions:
REMARK  status: ('A' for Active; 'I' for Inactive)
REMARK    1  A    between atoms: C_7  and  C_21
REMARK                            x       y       z     vdW  Elec       q    Type
REMARK                         _______ _______ _______ _____ _____    ______ ____
ROOT
ATOM      1  O   UNL     1     -13.172  -2.388 -25.473  0.00  0.00    +0.000 OA
ATOM      2  C   UNL     1      -6.833  -3.363 -21.292  0.00  0.00    +0.000 C 
ATOM      3  C   UNL     1      -6.560  -2.517 -19.932  0.00  0.00    +0.000 C 
ATOM      4  C   UNL     1      -8.194  -3.644 -21.789  0.00  0.00    +0.000 C 
ATOM      5  C   UNL     1      -9.464  -3.001 -21.307  0.00  0.00    +0.000 C 
ATOM      6  C   UNL     1     -10.875  -3.417 -21.777  0.00  0.00    +0.000 C 
ATOM      7  C   UNL     1      -5.419  -1.623 -20.317  0.00  0.00    +0.000 C 
ATOM      8  C   UNL     1      -7.829  -1.834 -19.678  0.00  0.00    +0.000 C 
ATOM      9  C   UNL     1      -9.194  -2.054 -20.280  0.00  0.00    +0.000 C 
ATOM     10  C   UNL     1      -5.783  -3.039 -22.209  0.00  0.00    +0.000 C 
ATOM     11  C   UNL     1      -8.404  -4.484 -22.908  0.00  0.00    +0.000 C 
ATOM     12  C   UNL     1      -4.933  -1.948 -21.615  0.00  0.00    +0.000 C 
ATOM     13  C   UNL     1     -10.924  -4.220 -23.225  0.00  0.00    +0.000 C 
ATOM     14  C   UNL     1      -6.147  -3.542 -18.850  0.00  0.00    +0.000 C 
ATOM     15  C   UNL     1      -9.687  -4.785 -23.622  0.00  0.00    +0.000 C 
ATOM     16  C   UNL     1     -11.714  -2.202 -22.045  0.00  0.00    +0.000 C 
ATOM     17  C   UNL     1     -11.528  -4.347 -20.720  0.00  0.00    +0.000 C 
ATOM     18  C   UNL     1     -12.564  -1.760 -23.258  0.00  0.00    +0.000 C 
ATOM     19  C   UNL     1     -11.715  -3.746 -24.164  0.00  0.00    +0.000 C 
ATOM     20  C   UNL     1     -12.583  -2.610 -24.433  0.00  0.00    +0.000 C 
ENDROOT
BRANCH   7  21
ATOM     21  C   UNL     1      -4.868  -0.605 -19.457  0.00  0.00    +0.000 C 
ATOM     22  O   UNL     1      -5.024   0.596 -19.598  0.00  0.00    +0.000 OA
ATOM     23  C   UNL     1      -4.101  -0.894 -18.209  0.00  0.00    +0.000 C 
ENDBRANCH   7  21
TORSDOF 1
ENDMDL
MODEL 6
REMARK VINA RESULT:      -5.7      3.402      7.832
REMARK  Name = Progesterone.pdbqt.pdb
REMARK  1 active torsions:
REMARK  status: ('A' for Active; 'I' for Inactive)
REMARK    1  A    between atoms: C_7  and  C_21
REMARK                            x       y       z     vdW  Elec       q    Type
REMARK                         _______ _______ _______ _____ _____    ______ ____
ROOT
ATOM      1  O   UNL     1      17.909  -2.906 -22.257  0.00  0.00    +0.000 OA
ATOM      2  C   UNL     1      11.479  -1.026 -18.549  0.00  0.00    +0.000 C 
ATOM      3  C   UNL     1      10.922   0.499 -18.510  0.00  0.00    +0.000 C 
ATOM      4  C   UNL     1      12.317  -1.536 -19.653  0.00  0.00    +0.000 C 
ATOM      5  C   UNL     1      12.983  -0.706 -20.715  0.00  0.00    +0.000 C 
ATOM      6  C   UNL     1      13.750  -1.297 -21.918  0.00  0.00    +0.000 C 
ATOM      7  C   UNL     1      11.125   0.893 -17.077  0.00  0.00    +0.000 C 
ATOM      8  C   UNL     1      11.762   1.208 -19.476  0.00  0.00    +0.000 C 
ATOM      9  C   UNL     1      12.706   0.676 -20.526  0.00  0.00    +0.000 C 
ATOM     10  C   UNL     1      11.757  -1.410 -17.198  0.00  0.00    +0.000 C 
ATOM     11  C   UNL     1      12.686  -2.899 -19.721  0.00  0.00    +0.000 C 
ATOM     12  C   UNL     1      11.564  -0.217 -16.301  0.00  0.00    +0.000 C 
ATOM     13  C   UNL     1      14.280  -2.854 -21.715  0.00  0.00    +0.000 C 
ATOM     14  C   UNL     1       9.423   0.431 -18.881  0.00  0.00    +0.000 C 
ATOM     15  C   UNL     1      13.618  -3.568 -20.686  0.00  0.00    +0.000 C 
ATOM     16  C   UNL     1      15.027  -0.541 -22.144  0.00  0.00    +0.000 C 
ATOM     17  C   UNL     1      12.843  -1.286 -23.176  0.00  0.00    +0.000 C 
ATOM     18  C   UNL     1      16.497  -0.988 -22.304  0.00  0.00    +0.000 C 
ATOM     19  C   UNL     1      15.559  -3.097 -21.911  0.00  0.00    +0.000 C 
ATOM     20  C   UNL     1      16.805  -2.400 -22.189  0.00  0.00    +0.000 C 
ENDROOT
BRANCH   7  21
ATOM     21  C   UNL     1      10.861   2.213 -16.560  0.00  0.00    +0.000 C 
ATOM     22  O   UNL     1      10.311   3.113 -17.173  0.00  0.00    +0.000 OA
ATOM     23  C   UNL     1      11.143   2.629 -15.153  0.00  0.00    +0.000 C 
ENDBRANCH   7  21
TORSDOF 1
ENDMDL
MODEL 7
REMARK VINA RESULT:      -5.6     18.478     20.522
REMARK  Name = Progesterone.pdbqt.pdb
REMARK  1 active torsions:
REMARK  status: ('A' for Active; 'I' for Inactive)
REMARK    1  A    between atoms: C_7  and  C_21
REMARK                            x       y       z     vdW  Elec       q    Type
REMARK                         _______ _______ _______ _____ _____    ______ ____
ROOT
ATOM      1  O   UNL     1       6.333 -22.560  -7.373  0.00  0.00    +0.000 OA
ATOM      2  C   UNL     1       4.713 -16.026 -11.020  0.00  0.00    +0.000 C 
ATOM      3  C   UNL     1       3.355 -15.840 -11.891  0.00  0.00    +0.000 C 
ATOM      4  C   UNL     1       4.805 -16.968  -9.887  0.00  0.00    +0.000 C 
ATOM      5  C   UNL     1       3.811 -18.044  -9.548  0.00  0.00    +0.000 C 
ATOM      6  C   UNL     1       3.892 -18.926  -8.282  0.00  0.00    +0.000 C 
ATOM      7  C   UNL     1       3.867 -15.772 -13.299  0.00  0.00    +0.000 C 
ATOM      8  C   UNL     1       2.564 -17.029 -11.573  0.00  0.00    +0.000 C 
ATOM      9  C   UNL     1       2.736 -18.053 -10.478  0.00  0.00    +0.000 C 
ATOM     10  C   UNL     1       5.816 -15.870 -11.918  0.00  0.00    +0.000 C 
ATOM     11  C   UNL     1       5.959 -17.021  -9.072  0.00  0.00    +0.000 C 
ATOM     12  C   UNL     1       5.290 -15.743 -13.323  0.00  0.00    +0.000 C 
ATOM     13  C   UNL     1       5.393 -19.019  -7.587  0.00  0.00    +0.000 C 
ATOM     14  C   UNL     1       2.723 -14.501 -11.444  0.00  0.00    +0.000 C 
ATOM     15  C   UNL     1       6.280 -17.982  -7.967  0.00  0.00    +0.000 C 
ATOM     16  C   UNL     1       3.596 -20.357  -8.624  0.00  0.00    +0.000 C 
ATOM     17  C   UNL     1       2.924 -18.379  -7.199  0.00  0.00    +0.000 C 
ATOM     18  C   UNL     1       4.343 -21.679  -8.340  0.00  0.00    +0.000 C 
ATOM     19  C   UNL     1       5.899 -20.217  -7.378  0.00  0.00    +0.000 C 
ATOM     20  C   UNL     1       5.612 -21.619  -7.642  0.00  0.00    +0.000 C 
ENDROOT
BRANCH   7  21
ATOM     21  C   UNL     1       3.018 -15.698 -14.463  0.00  0.00    +0.000 C 
ATOM     22  O   UNL     1       2.462 -16.647 -14.990  0.00  0.00    +0.000 OA
ATOM     23  C   UNL     1       2.625 -14.421 -15.129  0.00  0.00    +0.000 C 
ENDBRANCH   7  21
TORSDOF 1
ENDMDL
MODEL 8
REMARK VINA RESULT:      -5.5     19.618     23.429
REMARK  Name = Progesterone.pdbqt.pdb
REMARK  1 active torsions:
REMARK  status: ('A' for Active; 'I' for Inactive)
REMARK    1  A    between atoms: C_7  and  C_21
REMARK                            x       y       z     vdW  Elec       q    Type
REMARK                         _______ _______ _______ _____ _____    ______ ____
ROOT
ATOM      1  O   UNL     1      -6.814  23.134 -12.957  0.00  0.00    +0.000 OA
ATOM      2  C   UNL     1      -4.830  15.935 -14.648  0.00  0.00    +0.000 C 
ATOM      3  C   UNL     1      -3.349  15.557 -15.195  0.00  0.00    +0.000 C 
ATOM      4  C   UNL     1      -5.083  17.115 -13.798  0.00  0.00    +0.000 C 
ATOM      5  C   UNL     1      -4.124  18.245 -13.545  0.00  0.00    +0.000 C 
ATOM      6  C   UNL     1      -4.391  19.398 -12.552  0.00  0.00    +0.000 C 
ATOM      7  C   UNL     1      -3.609  15.159 -16.618  0.00  0.00    +0.000 C 
ATOM      8  C   UNL     1      -2.581  16.790 -15.024  0.00  0.00    +0.000 C 
ATOM      9  C   UNL     1      -2.903  18.041 -14.244  0.00  0.00    +0.000 C 
ATOM     10  C   UNL     1      -5.765  15.569 -15.668  0.00  0.00    +0.000 C 
ATOM     11  C   UNL     1      -6.359  17.353 -13.237  0.00  0.00    +0.000 C 
ATOM     12  C   UNL     1      -5.006  15.119 -16.888  0.00  0.00    +0.000 C 
ATOM     13  C   UNL     1      -5.986  19.646 -12.177  0.00  0.00    +0.000 C 
ATOM     14  C   UNL     1      -2.856  14.362 -14.346  0.00  0.00    +0.000 C 
ATOM     15  C   UNL     1      -6.831  18.544 -12.459  0.00  0.00    +0.000 C 
ATOM     16  C   UNL     1      -3.986  20.711 -13.156  0.00  0.00    +0.000 C 
ATOM     17  C   UNL     1      -3.648  19.124 -11.217  0.00  0.00    +0.000 C 
ATOM     18  C   UNL     1      -4.721  22.060 -13.324  0.00  0.00    +0.000 C 
ATOM     19  C   UNL     1      -6.474  20.857 -12.344  0.00  0.00    +0.000 C 
ATOM     20  C   UNL     1      -6.094  22.160 -12.868  0.00  0.00    +0.000 C 
ENDROOT
BRANCH   7  21
ATOM     21  C   UNL     1      -2.573  14.819 -17.562  0.00  0.00    +0.000 C 
ATOM     22  O   UNL     1      -1.728  15.588 -17.988  0.00  0.00    +0.000 OA
ATOM     23  C   UNL     1      -2.337  13.438 -18.079  0.00  0.00    +0.000 C 
ENDBRANCH   7  21
TORSDOF 1
ENDMDL
MODEL 9
REMARK VINA RESULT:      -5.5     20.095     21.658
REMARK  Name = Progesterone.pdbqt.pdb
REMARK  1 active torsions:
REMARK  status: ('A' for Active; 'I' for Inactive)
REMARK    1  A    between atoms: C_7  and  C_21
REMARK                            x       y       z     vdW  Elec       q    Type
REMARK                         _______ _______ _______ _____ _____    ______ ____
ROOT
ATOM      1  O   UNL     1       0.928 -17.619  -2.573  0.00  0.00    +0.000 OA
ATOM      2  C   UNL     1       3.387 -18.232  -9.798  0.00  0.00    +0.000 C 
ATOM      3  C   UNL     1       4.897 -17.821 -10.231  0.00  0.00    +0.000 C 
ATOM      4  C   UNL     1       3.048 -18.676  -8.431  0.00  0.00    +0.000 C 
ATOM      5  C   UNL     1       3.930 -18.561  -7.219  0.00  0.00    +0.000 C 
ATOM      6  C   UNL     1       3.576 -19.149  -5.835  0.00  0.00    +0.000 C 
ATOM      7  C   UNL     1       4.684 -16.593 -11.065  0.00  0.00    +0.000 C 
ATOM      8  C   UNL     1       5.583 -17.598  -8.958  0.00  0.00    +0.000 C 
ATOM      9  C   UNL     1       5.172 -17.953  -7.551  0.00  0.00    +0.000 C 
ATOM     10  C   UNL     1       2.493 -17.381 -10.521  0.00  0.00    +0.000 C 
ATOM     11  C   UNL     1       1.751 -19.143  -8.115  0.00  0.00    +0.000 C 
ATOM     12  C   UNL     1       3.296 -16.357 -11.277  0.00  0.00    +0.000 C 
ATOM     13  C   UNL     1       1.963 -19.438  -5.587  0.00  0.00    +0.000 C 
ATOM     14  C   UNL     1       5.452 -18.997 -11.069  0.00  0.00    +0.000 C 
ATOM     15  C   UNL     1       1.193 -19.515  -6.774  0.00  0.00    +0.000 C 
ATOM     16  C   UNL     1       3.906 -18.166  -4.751  0.00  0.00    +0.000 C 
ATOM     17  C   UNL     1       4.314 -20.499  -5.634  0.00  0.00    +0.000 C 
ATOM     18  C   UNL     1       3.090 -17.592  -3.570  0.00  0.00    +0.000 C 
ATOM     19  C   UNL     1       1.401 -18.906  -4.522  0.00  0.00    +0.000 C 
ATOM     20  C   UNL     1       1.707 -18.002  -3.424  0.00  0.00    +0.000 C 
ENDROOT
BRANCH   7  21
ATOM     21  C   UNL     1       5.753 -15.795 -11.613  0.00  0.00    +0.000 C 
ATOM     22  O   UNL     1       6.353 -14.916 -11.017  0.00  0.00    +0.000 OA
ATOM     23  C   UNL     1       6.340 -16.007 -12.970  0.00  0.00    +0.000 C 
ENDBRANCH   7  21
TORSDOF 1
ENDMDL
