MODEL 1
REMARK VINA RESULT:      -6.5      0.000      0.000
REMARK  Name = Quercetin.pdbqt.pdb
REMARK  6 active torsions:
REMARK  status: ('A' for Active; 'I' for Inactive)
REMARK    1  A    between atoms: C_5  and  C_12
REMARK    2  A    between atoms: C_6  and  O_22
REMARK    3  A    between atoms: C_8  and  O_24
REMARK    4  A    between atoms: C_10  and  O_26
REMARK    5  A    between atoms: C_15  and  O_18
REMARK    6  A    between atoms: C_17  and  O_20
REMARK                            x       y       z     vdW  Elec       q    Type
REMARK                         _______ _______ _______ _____ _____    ______ ____
ROOT
ATOM      1  O   UNL     1      -5.238  -0.371 -19.354  0.00  0.00    +0.000 OA
ATOM      2  O   UNL     1      -2.689  -3.424 -18.512  0.00  0.00    +0.000 OA
ATOM      3  C   UNL     1      -2.978  -1.153 -18.948  0.00  0.00    +0.000 A 
ATOM      4  C   UNL     1      -3.893  -0.147 -19.238  0.00  0.00    +0.000 A 
ATOM      5  C   UNL     1      -5.722  -1.657 -19.157  0.00  0.00    +0.000 A 
ATOM      6  C   UNL     1      -4.950  -2.731 -18.883  0.00  0.00    +0.000 A 
ATOM      7  C   UNL     1      -3.480  -2.517 -18.760  0.00  0.00    +0.000 A 
ATOM      8  C   UNL     1      -1.614  -0.850 -18.846  0.00  0.00    +0.000 A 
ATOM      9  C   UNL     1      -3.456   1.163 -19.428  0.00  0.00    +0.000 A 
ATOM     10  C   UNL     1      -2.099   1.453 -19.323  0.00  0.00    +0.000 A 
ATOM     11  C   UNL     1      -1.173   0.456 -19.034  0.00  0.00    +0.000 A 
ENDROOT
BRANCH   5  12
ATOM     12  C   UNL     1      -7.184  -1.722 -19.293  0.00  0.00    +0.000 A 
ATOM     13  C   UNL     1      -7.997  -2.005 -18.191  0.00  0.00    +0.000 A 
ATOM     14  C   UNL     1      -7.779  -1.436 -20.529  0.00  0.00    +0.000 A 
ATOM     15  C   UNL     1      -9.378  -2.023 -18.340  0.00  0.00    +0.000 A 
ATOM     16  C   UNL     1      -9.166  -1.438 -20.671  0.00  0.00    +0.000 A 
ATOM     17  C   UNL     1      -9.958  -1.717 -19.566  0.00  0.00    +0.000 A 
BRANCH  15  18
ATOM     18  O   UNL     1     -10.148  -2.382 -17.273  0.00  0.00    +0.000 OA
ATOM     19  H   UNL     1      -9.807  -1.898 -16.498  0.00  0.00    +0.000 HD
ENDBRANCH  15  18
BRANCH  17  20
ATOM     20  O   UNL     1     -11.315  -1.663 -19.693  0.00  0.00    +0.000 OA
ATOM     21  H   UNL     1     -11.658  -1.289 -18.860  0.00  0.00    +0.000 HD
ENDBRANCH  17  20
ENDBRANCH   5  12
BRANCH   6  22
ATOM     22  O   UNL     1      -5.409  -4.025 -18.723  0.00  0.00    +0.000 OA
ATOM     23  H   UNL     1      -6.066  -4.062 -18.011  0.00  0.00    +0.000 HD
ENDBRANCH   6  22
BRANCH   8  24
ATOM     24  O   UNL     1      -0.659  -1.789 -18.566  0.00  0.00    +0.000 OA
ATOM     25  H   UNL     1      -0.749  -2.049 -17.620  0.00  0.00    +0.000 HD
ENDBRANCH   8  24
BRANCH  10  26
ATOM     26  O   UNL     1      -1.696   2.743 -19.513  0.00  0.00    +0.000 OA
ATOM     27  H   UNL     1      -1.326   3.071 -18.673  0.00  0.00    +0.000 HD
ENDBRANCH  10  26
TORSDOF 6
ENDMDL
MODEL 2
REMARK VINA RESULT:      -6.2     12.365     14.158
REMARK  Name = Quercetin.pdbqt.pdb
REMARK  6 active torsions:
REMARK  status: ('A' for Active; 'I' for Inactive)
REMARK    1  A    between atoms: C_5  and  C_12
REMARK    2  A    between atoms: C_6  and  O_22
REMARK    3  A    between atoms: C_8  and  O_24
REMARK    4  A    between atoms: C_10  and  O_26
REMARK    5  A    between atoms: C_15  and  O_18
REMARK    6  A    between atoms: C_17  and  O_20
REMARK                            x       y       z     vdW  Elec       q    Type
REMARK                         _______ _______ _______ _____ _____    ______ ____
ROOT
ATOM      1  O   UNL     1     -12.332 -10.537 -13.739  0.00  0.00    +0.000 OA
ATOM      2  O   UNL     1     -10.358 -13.961 -14.692  0.00  0.00    +0.000 OA
ATOM      3  C   UNL     1     -12.037 -12.433 -15.222  0.00  0.00    +0.000 A 
ATOM      4  C   UNL     1     -12.681 -11.259 -14.848  0.00  0.00    +0.000 A 
ATOM      5  C   UNL     1     -11.277 -10.982 -12.955  0.00  0.00    +0.000 A 
ATOM      6  C   UNL     1     -10.572 -12.109 -13.189  0.00  0.00    +0.000 A 
ATOM      7  C   UNL     1     -10.935 -12.920 -14.386  0.00  0.00    +0.000 A 
ATOM      8  C   UNL     1     -12.449 -13.121 -16.370  0.00  0.00    +0.000 A 
ATOM      9  C   UNL     1     -13.735 -10.764 -15.614  0.00  0.00    +0.000 A 
ATOM     10  C   UNL     1     -14.135 -11.455 -16.754  0.00  0.00    +0.000 A 
ATOM     11  C   UNL     1     -13.501 -12.631 -17.139  0.00  0.00    +0.000 A 
ENDROOT
BRANCH   5  12
ATOM     12  C   UNL     1     -11.017 -10.084 -11.820  0.00  0.00    +0.000 A 
ATOM     13  C   UNL     1     -11.454 -10.407 -10.532  0.00  0.00    +0.000 A 
ATOM     14  C   UNL     1     -10.268  -8.917 -12.018  0.00  0.00    +0.000 A 
ATOM     15  C   UNL     1     -11.162  -9.558  -9.472  0.00  0.00    +0.000 A 
ATOM     16  C   UNL     1      -9.962  -8.075 -10.949  0.00  0.00    +0.000 A 
ATOM     17  C   UNL     1     -10.399  -8.413  -9.676  0.00  0.00    +0.000 A 
BRANCH  15  18
ATOM     18  O   UNL     1     -11.667  -9.850  -8.239  0.00  0.00    +0.000 OA
ATOM     19  H   UNL     1     -12.619  -9.637  -8.262  0.00  0.00    +0.000 HD
ENDBRANCH  15  18
BRANCH  17  20
ATOM     20  O   UNL     1     -10.051  -7.619  -8.623  0.00  0.00    +0.000 OA
ATOM     21  H   UNL     1      -9.862  -8.216  -7.875  0.00  0.00    +0.000 HD
ENDBRANCH  17  20
ENDBRANCH   5  12
BRANCH   6  22
ATOM     22  O   UNL     1      -9.545 -12.589 -12.399  0.00  0.00    +0.000 OA
ATOM     23  H   UNL     1      -8.809 -12.892 -12.953  0.00  0.00    +0.000 HD
ENDBRANCH   6  22
BRANCH   8  24
ATOM     24  O   UNL     1     -11.864 -14.283 -16.796  0.00  0.00    +0.000 OA
ATOM     25  H   UNL     1     -11.639 -14.824 -16.004  0.00  0.00    +0.000 HD
ENDBRANCH   8  24
BRANCH  10  26
ATOM     26  O   UNL     1     -15.169 -10.951 -17.487  0.00  0.00    +0.000 OA
ATOM     27  H   UNL     1     -14.878 -10.882 -18.414  0.00  0.00    +0.000 HD
ENDBRANCH  10  26
TORSDOF 6
ENDMDL
MODEL 3
REMARK VINA RESULT:      -6.1     20.389     21.874
REMARK  Name = Quercetin.pdbqt.pdb
REMARK  6 active torsions:
REMARK  status: ('A' for Active; 'I' for Inactive)
REMARK    1  A    between atoms: C_5  and  C_12
REMARK    2  A    between atoms: C_6  and  O_22
REMARK    3  A    between atoms: C_8  and  O_24
REMARK    4  A    between atoms: C_10  and  O_26
REMARK    5  A    between atoms: C_15  and  O_18
REMARK    6  A    between atoms: C_17  and  O_20
REMARK                            x       y       z     vdW  Elec       q    Type
REMARK                         _______ _______ _______ _____ _____    ______ ____
ROOT
ATOM      1  O   UNL     1      13.383  -3.954  -7.173  0.00  0.00    +0.000 OA
ATOM      2  O   UNL     1      13.913  -5.279 -10.979  0.00  0.00    +0.000 OA
ATOM      3  C   UNL     1      14.713  -4.003  -9.199  0.00  0.00    +0.000 A 
ATOM      4  C   UNL     1      14.481  -3.576  -7.897  0.00  0.00    +0.000 A 
ATOM      5  C   UNL     1      12.462  -4.815  -7.751  0.00  0.00    +0.000 A 
ATOM      6  C   UNL     1      12.552  -5.297  -9.009  0.00  0.00    +0.000 A 
ATOM      7  C   UNL     1      13.734  -4.897  -9.825  0.00  0.00    +0.000 A 
ATOM      8  C   UNL     1      15.859  -3.575  -9.882  0.00  0.00    +0.000 A 
ATOM      9  C   UNL     1      15.386  -2.724  -7.268  0.00  0.00    +0.000 A 
ATOM     10  C   UNL     1      16.522  -2.306  -7.954  0.00  0.00    +0.000 A 
ATOM     11  C   UNL     1      16.766  -2.724  -9.258  0.00  0.00    +0.000 A 
ENDROOT
BRANCH   5  12
ATOM     12  C   UNL     1      11.359  -5.139  -6.835  0.00  0.00    +0.000 A 
ATOM     13  C   UNL     1      10.433  -4.163  -6.450  0.00  0.00    +0.000 A 
ATOM     14  C   UNL     1      11.193  -6.456  -6.389  0.00  0.00    +0.000 A 
ATOM     15  C   UNL     1       9.379  -4.506  -5.613  0.00  0.00    +0.000 A 
ATOM     16  C   UNL     1      10.124  -6.800  -5.562  0.00  0.00    +0.000 A 
ATOM     17  C   UNL     1       9.212  -5.821  -5.193  0.00  0.00    +0.000 A 
BRANCH  15  18
ATOM     18  O   UNL     1       8.536  -3.523  -5.184  0.00  0.00    +0.000 OA
ATOM     19  H   UNL     1       8.450  -3.622  -4.218  0.00  0.00    +0.000 HD
ENDBRANCH  15  18
BRANCH  17  20
ATOM     20  O   UNL     1       8.136  -6.171  -4.432  0.00  0.00    +0.000 OA
ATOM     21  H   UNL     1       8.261  -7.107  -4.187  0.00  0.00    +0.000 HD
ENDBRANCH  17  20
ENDBRANCH   5  12
BRANCH   6  22
ATOM     22  O   UNL     1      11.626  -6.124  -9.617  0.00  0.00    +0.000 OA
ATOM     23  H   UNL     1      11.900  -6.324 -10.526  0.00  0.00    +0.000 HD
ENDBRANCH   6  22
BRANCH   8  24
ATOM     24  O   UNL     1      16.150  -3.953 -11.165  0.00  0.00    +0.000 OA
ATOM     25  H   UNL     1      16.141  -4.938 -11.207  0.00  0.00    +0.000 HD
ENDBRANCH   8  24
BRANCH  10  26
ATOM     26  O   UNL     1      17.394  -1.471  -7.317  0.00  0.00    +0.000 OA
ATOM     27  H   UNL     1      17.262  -0.571  -7.666  0.00  0.00    +0.000 HD
ENDBRANCH  10  26
TORSDOF 6
ENDMDL
MODEL 4
REMARK VINA RESULT:      -6.1     12.889     15.124
REMARK  Name = Quercetin.pdbqt.pdb
REMARK  6 active torsions:
REMARK  status: ('A' for Active; 'I' for Inactive)
REMARK    1  A    between atoms: C_5  and  C_12
REMARK    2  A    between atoms: C_6  and  O_22
REMARK    3  A    between atoms: C_8  and  O_24
REMARK    4  A    between atoms: C_10  and  O_26
REMARK    5  A    between atoms: C_15  and  O_18
REMARK    6  A    between atoms: C_17  and  O_20
REMARK                            x       y       z     vdW  Elec       q    Type
REMARK                         _______ _______ _______ _____ _____    ______ ____
ROOT
ATOM      1  O   UNL     1     -14.266   4.555  -9.883  0.00  0.00    +0.000 OA
ATOM      2  O   UNL     1     -14.275   5.258 -13.886  0.00  0.00    +0.000 OA
ATOM      3  C   UNL     1     -15.297   4.242 -12.054  0.00  0.00    +0.000 A 
ATOM      4  C   UNL     1     -15.245   4.030 -10.681  0.00  0.00    +0.000 A 
ATOM      5  C   UNL     1     -13.286   5.351 -10.458  0.00  0.00    +0.000 A 
ATOM      6  C   UNL     1     -13.206   5.631 -11.777  0.00  0.00    +0.000 A 
ATOM      7  C   UNL     1     -14.254   5.065 -12.673  0.00  0.00    +0.000 A 
ATOM      8  C   UNL     1     -16.329   3.671 -12.811  0.00  0.00    +0.000 A 
ATOM      9  C   UNL     1     -16.216   3.250 -10.056  0.00  0.00    +0.000 A 
ATOM     10  C   UNL     1     -17.237   2.689 -10.816  0.00  0.00    +0.000 A 
ATOM     11  C   UNL     1     -17.301   2.892 -12.191  0.00  0.00    +0.000 A 
ENDROOT
BRANCH   5  12
ATOM     12  C   UNL     1     -12.329   5.854  -9.462  0.00  0.00    +0.000 A 
ATOM     13  C   UNL     1     -11.482   4.980  -8.773  0.00  0.00    +0.000 A 
ATOM     14  C   UNL     1     -12.217   7.233  -9.242  0.00  0.00    +0.000 A 
ATOM     15  C   UNL     1     -10.561   5.485  -7.865  0.00  0.00    +0.000 A 
ATOM     16  C   UNL     1     -11.280   7.738  -8.343  0.00  0.00    +0.000 A 
ATOM     17  C   UNL     1     -10.444   6.857  -7.670  0.00  0.00    +0.000 A 
BRANCH  15  18
ATOM     18  O   UNL     1      -9.802   4.610  -7.144  0.00  0.00    +0.000 OA
ATOM     19  H   UNL     1      -9.368   5.124  -6.437  0.00  0.00    +0.000 HD
ENDBRANCH  15  18
BRANCH  17  20
ATOM     20  O   UNL     1      -9.490   7.357  -6.833  0.00  0.00    +0.000 OA
ATOM     21  H   UNL     1      -9.830   8.209  -6.501  0.00  0.00    +0.000 HD
ENDBRANCH  17  20
ENDBRANCH   5  12
BRANCH   6  22
ATOM     22  O   UNL     1     -12.216   6.389 -12.374  0.00  0.00    +0.000 OA
ATOM     23  H   UNL     1     -11.504   6.570 -11.741  0.00  0.00    +0.000 HD
ENDBRANCH   6  22
BRANCH   8  24
ATOM     24  O   UNL     1     -16.442   3.836 -14.165  0.00  0.00    +0.000 OA
ATOM     25  H   UNL     1     -15.806   3.224 -14.605  0.00  0.00    +0.000 HD
ENDBRANCH   8  24
BRANCH  10  26
ATOM     26  O   UNL     1     -18.176   1.930 -10.181  0.00  0.00    +0.000 OA
ATOM     27  H   UNL     1     -18.790   1.583 -10.853  0.00  0.00    +0.000 HD
ENDBRANCH  10  26
TORSDOF 6
ENDMDL
MODEL 5
REMARK VINA RESULT:      -5.9      1.689      2.208
REMARK  Name = Quercetin.pdbqt.pdb
REMARK  6 active torsions:
REMARK  status: ('A' for Active; 'I' for Inactive)
REMARK    1  A    between atoms: C_5  and  C_12
REMARK    2  A    between atoms: C_6  and  O_22
REMARK    3  A    between atoms: C_8  and  O_24
REMARK    4  A    between atoms: C_10  and  O_26
REMARK    5  A    between atoms: C_15  and  O_18
REMARK    6  A    between atoms: C_17  and  O_20
REMARK                            x       y       z     vdW  Elec       q    Type
REMARK                         _______ _______ _______ _____ _____    ______ ____
ROOT
ATOM      1  O   UNL     1      -5.590  -0.490 -19.898  0.00  0.00    +0.000 OA
ATOM      2  O   UNL     1      -2.078  -0.977 -17.910  0.00  0.00    +0.000 OA
ATOM      3  C   UNL     1      -3.330   0.258 -19.441  0.00  0.00    +0.000 A 
ATOM      4  C   UNL     1      -4.550   0.376 -20.096  0.00  0.00    +0.000 A 
ATOM      5  C   UNL     1      -5.436  -1.527 -18.989  0.00  0.00    +0.000 A 
ATOM      6  C   UNL     1      -4.305  -1.770 -18.292  0.00  0.00    +0.000 A 
ATOM      7  C   UNL     1      -3.151  -0.847 -18.494  0.00  0.00    +0.000 A 
ATOM      8  C   UNL     1      -2.307   1.181 -19.694  0.00  0.00    +0.000 A 
ATOM      9  C   UNL     1      -4.758   1.411 -21.006  0.00  0.00    +0.000 A 
ATOM     10  C   UNL     1      -3.736   2.324 -21.250  0.00  0.00    +0.000 A 
ATOM     11  C   UNL     1      -2.510   2.217 -20.601  0.00  0.00    +0.000 A 
ENDROOT
BRANCH   5  12
ATOM     12  C   UNL     1      -6.650  -2.347 -18.877  0.00  0.00    +0.000 A 
ATOM     13  C   UNL     1      -7.863  -1.784 -18.467  0.00  0.00    +0.000 A 
ATOM     14  C   UNL     1      -6.610  -3.698 -19.243  0.00  0.00    +0.000 A 
ATOM     15  C   UNL     1      -9.004  -2.575 -18.405  0.00  0.00    +0.000 A 
ATOM     16  C   UNL     1      -7.760  -4.485 -19.196  0.00  0.00    +0.000 A 
ATOM     17  C   UNL     1      -8.957  -3.910 -18.792  0.00  0.00    +0.000 A 
BRANCH  15  18
ATOM     18  O   UNL     1     -10.157  -2.027 -17.926  0.00  0.00    +0.000 OA
ATOM     19  H   UNL     1      -9.915  -1.190 -17.486  0.00  0.00    +0.000 HD
ENDBRANCH  15  18
BRANCH  17  20
ATOM     20  O   UNL     1     -10.092  -4.666 -18.801  0.00  0.00    +0.000 OA
ATOM     21  H   UNL     1     -10.513  -4.546 -17.930  0.00  0.00    +0.000 HD
ENDBRANCH  17  20
ENDBRANCH   5  12
BRANCH   6  22
ATOM     22  O   UNL     1      -4.118  -2.820 -17.413  0.00  0.00    +0.000 OA
ATOM     23  H   UNL     1      -4.248  -2.519 -16.499  0.00  0.00    +0.000 HD
ENDBRANCH   6  22
BRANCH   8  24
ATOM     24  O   UNL     1      -1.081   1.125 -19.087  0.00  0.00    +0.000 OA
ATOM     25  H   UNL     1      -1.123   0.451 -18.369  0.00  0.00    +0.000 HD
ENDBRANCH   8  24
BRANCH  10  26
ATOM     26  O   UNL     1      -3.964   3.328 -22.144  0.00  0.00    +0.000 OA
ATOM     27  H   UNL     1      -3.253   3.308 -22.810  0.00  0.00    +0.000 HD
ENDBRANCH  10  26
TORSDOF 6
ENDMDL
MODEL 6
REMARK VINA RESULT:      -5.8     14.974     16.783
REMARK  Name = Quercetin.pdbqt.pdb
REMARK  6 active torsions:
REMARK  status: ('A' for Active; 'I' for Inactive)
REMARK    1  A    between atoms: C_5  and  C_12
REMARK    2  A    between atoms: C_6  and  O_22
REMARK    3  A    between atoms: C_8  and  O_24
REMARK    4  A    between atoms: C_10  and  O_26
REMARK    5  A    between atoms: C_15  and  O_18
REMARK    6  A    between atoms: C_17  and  O_20
REMARK                            x       y       z     vdW  Elec       q    Type
REMARK                         _______ _______ _______ _____ _____    ______ ____
ROOT
ATOM      1  O   UNL     1     -12.879   8.422  -8.303  0.00  0.00    +0.000 OA
ATOM      2  O   UNL     1     -12.922   7.080 -12.139  0.00  0.00    +0.000 OA
ATOM      3  C   UNL     1     -12.124   6.826  -9.964  0.00  0.00    +0.000 A 
ATOM      4  C   UNL     1     -12.142   7.329  -8.668  0.00  0.00    +0.000 A 
ATOM      5  C   UNL     1     -13.660   9.055  -9.259  0.00  0.00    +0.000 A 
ATOM      6  C   UNL     1     -13.729   8.684 -10.556  0.00  0.00    +0.000 A 
ATOM      7  C   UNL     1     -12.930   7.501 -10.985  0.00  0.00    +0.000 A 
ATOM      8  C   UNL     1     -11.344   5.702 -10.267  0.00  0.00    +0.000 A 
ATOM      9  C   UNL     1     -11.386   6.717  -7.669  0.00  0.00    +0.000 A 
ATOM     10  C   UNL     1     -10.616   5.601  -7.980  0.00  0.00    +0.000 A 
ATOM     11  C   UNL     1     -10.588   5.088  -9.273  0.00  0.00    +0.000 A 
ENDROOT
BRANCH   5  12
ATOM     12  C   UNL     1     -14.404  10.192  -8.699  0.00  0.00    +0.000 A 
ATOM     13  C   UNL     1     -15.776  10.101  -8.448  0.00  0.00    +0.000 A 
ATOM     14  C   UNL     1     -13.720  11.365  -8.354  0.00  0.00    +0.000 A 
ATOM     15  C   UNL     1     -16.447  11.178  -7.884  0.00  0.00    +0.000 A 
ATOM     16  C   UNL     1     -14.393  12.438  -7.772  0.00  0.00    +0.000 A 
ATOM     17  C   UNL     1     -15.754  12.329  -7.525  0.00  0.00    +0.000 A 
BRANCH  15  18
ATOM     18  O   UNL     1     -17.799  11.099  -7.724  0.00  0.00    +0.000 OA
ATOM     19  H   UNL     1     -18.149  10.602  -8.487  0.00  0.00    +0.000 HD
ENDBRANCH  15  18
BRANCH  17  20
ATOM     20  O   UNL     1     -16.400  13.359  -6.905  0.00  0.00    +0.000 OA
ATOM     21  H   UNL     1     -15.891  13.559  -6.097  0.00  0.00    +0.000 HD
ENDBRANCH  17  20
ENDBRANCH   5  12
BRANCH   6  22
ATOM     22  O   UNL     1     -14.469   9.324 -11.532  0.00  0.00    +0.000 OA
ATOM     23  H   UNL     1     -14.228  10.263 -11.574  0.00  0.00    +0.000 HD
ENDBRANCH   6  22
BRANCH   8  24
ATOM     24  O   UNL     1     -11.277   5.155 -11.520  0.00  0.00    +0.000 OA
ATOM     25  H   UNL     1     -11.080   4.193 -11.427  0.00  0.00    +0.000 HD
ENDBRANCH   8  24
BRANCH  10  26
ATOM     26  O   UNL     1      -9.886   5.020  -6.986  0.00  0.00    +0.000 OA
ATOM     27  H   UNL     1      -9.412   4.257  -7.364  0.00  0.00    +0.000 HD
ENDBRANCH  10  26
TORSDOF 6
ENDMDL
MODEL 7
REMARK VINA RESULT:      -5.7     21.002     23.450
REMARK  Name = Quercetin.pdbqt.pdb
REMARK  6 active torsions:
REMARK  status: ('A' for Active; 'I' for Inactive)
REMARK    1  A    between atoms: C_5  and  C_12
REMARK    2  A    between atoms: C_6  and  O_22
REMARK    3  A    between atoms: C_8  and  O_24
REMARK    4  A    between atoms: C_10  and  O_26
REMARK    5  A    between atoms: C_15  and  O_18
REMARK    6  A    between atoms: C_17  and  O_20
REMARK                            x       y       z     vdW  Elec       q    Type
REMARK                         _______ _______ _______ _____ _____    ______ ____
ROOT
ATOM      1  O   UNL     1      12.669  -6.996  -6.006  0.00  0.00    +0.000 OA
ATOM      2  O   UNL     1      10.334  -3.755  -6.760  0.00  0.00    +0.000 OA
ATOM      3  C   UNL     1      10.781  -5.597  -5.404  0.00  0.00    +0.000 A 
ATOM      4  C   UNL     1      11.609  -6.695  -5.194  0.00  0.00    +0.000 A 
ATOM      5  C   UNL     1      12.948  -6.164  -7.080  0.00  0.00    +0.000 A 
ATOM      6  C   UNL     1      12.224  -5.073  -7.411  0.00  0.00    +0.000 A 
ATOM      7  C   UNL     1      11.058  -4.725  -6.549  0.00  0.00    +0.000 A 
ATOM      8  C   UNL     1       9.713  -5.350  -4.533  0.00  0.00    +0.000 A 
ATOM      9  C   UNL     1      11.378  -7.550  -4.118  0.00  0.00    +0.000 A 
ATOM     10  C   UNL     1      10.314  -7.295  -3.258  0.00  0.00    +0.000 A 
ATOM     11  C   UNL     1       9.478  -6.201  -3.457  0.00  0.00    +0.000 A 
ENDROOT
BRANCH   5  12
ATOM     12  C   UNL     1      14.128  -6.613  -7.833  0.00  0.00    +0.000 A 
ATOM     13  C   UNL     1      14.188  -7.902  -8.374  0.00  0.00    +0.000 A 
ATOM     14  C   UNL     1      15.182  -5.721  -8.068  0.00  0.00    +0.000 A 
ATOM     15  C   UNL     1      15.299  -8.288  -9.113  0.00  0.00    +0.000 A 
ATOM     16  C   UNL     1      16.287  -6.105  -8.825  0.00  0.00    +0.000 A 
ATOM     17  C   UNL     1      16.330  -7.386  -9.358  0.00  0.00    +0.000 A 
BRANCH  15  18
ATOM     18  O   UNL     1      15.375  -9.573  -9.561  0.00  0.00    +0.000 OA
ATOM     19  H   UNL     1      14.488  -9.816  -9.887  0.00  0.00    +0.000 HD
ENDBRANCH  15  18
BRANCH  17  20
ATOM     20  O   UNL     1      17.386  -7.742 -10.145  0.00  0.00    +0.000 OA
ATOM     21  H   UNL     1      17.044  -7.805 -11.056  0.00  0.00    +0.000 HD
ENDBRANCH  17  20
ENDBRANCH   5  12
BRANCH   6  22
ATOM     22  O   UNL     1      12.462  -4.255  -8.499  0.00  0.00    +0.000 OA
ATOM     23  H   UNL     1      11.646  -3.801  -8.762  0.00  0.00    +0.000 HD
ENDBRANCH   6  22
BRANCH   8  24
ATOM     24  O   UNL     1       8.858  -4.292  -4.680  0.00  0.00    +0.000 OA
ATOM     25  H   UNL     1       8.557  -4.265  -5.618  0.00  0.00    +0.000 HD
ENDBRANCH   8  24
BRANCH  10  26
ATOM     26  O   UNL     1      10.108  -8.146  -2.212  0.00  0.00    +0.000 OA
ATOM     27  H   UNL     1       9.151  -8.309  -2.138  0.00  0.00    +0.000 HD
ENDBRANCH  10  26
TORSDOF 6
ENDMDL
MODEL 8
REMARK VINA RESULT:      -5.5     15.633     17.453
REMARK  Name = Quercetin.pdbqt.pdb
REMARK  6 active torsions:
REMARK  status: ('A' for Active; 'I' for Inactive)
REMARK    1  A    between atoms: C_5  and  C_12
REMARK    2  A    between atoms: C_6  and  O_22
REMARK    3  A    between atoms: C_8  and  O_24
REMARK    4  A    between atoms: C_10  and  O_26
REMARK    5  A    between atoms: C_15  and  O_18
REMARK    6  A    between atoms: C_17  and  O_20
REMARK                            x       y       z     vdW  Elec       q    Type
REMARK                         _______ _______ _______ _____ _____    ______ ____
ROOT
ATOM      1  O   UNL     1     -11.775   7.662  -6.984  0.00  0.00    +0.000 OA
ATOM      2  O   UNL     1     -12.747   8.613 -10.815  0.00  0.00    +0.000 OA
ATOM      3  C   UNL     1     -11.769   7.094  -9.341  0.00  0.00    +0.000 A 
ATOM      4  C   UNL     1     -11.457   6.820  -8.014  0.00  0.00    +0.000 A 
ATOM      5  C   UNL     1     -12.455   8.838  -7.265  0.00  0.00    +0.000 A 
ATOM      6  C   UNL     1     -12.810   9.239  -8.505  0.00  0.00    +0.000 A 
ATOM      7  C   UNL     1     -12.469   8.345  -9.648  0.00  0.00    +0.000 A 
ATOM      8  C   UNL     1     -11.411   6.186 -10.346  0.00  0.00    +0.000 A 
ATOM      9  C   UNL     1     -10.789   5.643  -7.681  0.00  0.00    +0.000 A 
ATOM     10  C   UNL     1     -10.439   4.747  -8.687  0.00  0.00    +0.000 A 
ATOM     11  C   UNL     1     -10.744   5.009 -10.018  0.00  0.00    +0.000 A 
ENDROOT
BRANCH   5  12
ATOM     12  C   UNL     1     -12.739   9.614  -6.049  0.00  0.00    +0.000 A 
ATOM     13  C   UNL     1     -11.944  10.707  -5.691  0.00  0.00    +0.000 A 
ATOM     14  C   UNL     1     -13.859   9.296  -5.270  0.00  0.00    +0.000 A 
ATOM     15  C   UNL     1     -12.258  11.446  -4.557  0.00  0.00    +0.000 A 
ATOM     16  C   UNL     1     -14.181  10.049  -4.142  0.00  0.00    +0.000 A 
ATOM     17  C   UNL     1     -13.384  11.134  -3.803  0.00  0.00    +0.000 A 
BRANCH  15  18
ATOM     18  O   UNL     1     -11.423  12.456  -4.180  0.00  0.00    +0.000 OA
ATOM     19  H   UNL     1     -10.514  12.168  -4.385  0.00  0.00    +0.000 HD
ENDBRANCH  15  18
BRANCH  17  20
ATOM     20  O   UNL     1     -13.733  11.904  -2.732  0.00  0.00    +0.000 OA
ATOM     21  H   UNL     1     -14.319  12.605  -3.073  0.00  0.00    +0.000 HD
ENDBRANCH  17  20
ENDBRANCH   5  12
BRANCH   6  22
ATOM     22  O   UNL     1     -13.452  10.424  -8.809  0.00  0.00    +0.000 OA
ATOM     23  H   UNL     1     -13.685  10.447  -9.751  0.00  0.00    +0.000 HD
ENDBRANCH   6  22
BRANCH   8  24
ATOM     24  O   UNL     1     -11.684   6.391 -11.671  0.00  0.00    +0.000 OA
ATOM     25  H   UNL     1     -11.773   5.512 -12.108  0.00  0.00    +0.000 HD
ENDBRANCH   8  24
BRANCH  10  26
ATOM     26  O   UNL     1      -9.786   3.602  -8.336  0.00  0.00    +0.000 OA
ATOM     27  H   UNL     1     -10.449   2.956  -8.032  0.00  0.00    +0.000 HD
ENDBRANCH  10  26
TORSDOF 6
ENDMDL
MODEL 9
REMARK VINA RESULT:      -5.5     13.497     15.137
REMARK  Name = Quercetin.pdbqt.pdb
REMARK  6 active torsions:
REMARK  status: ('A' for Active; 'I' for Inactive)
REMARK    1  A    between atoms: C_5  and  C_12
REMARK    2  A    between atoms: C_6  and  O_22
REMARK    3  A    between atoms: C_8  and  O_24
REMARK    4  A    between atoms: C_10  and  O_26
REMARK    5  A    between atoms: C_15  and  O_18
REMARK    6  A    between atoms: C_17  and  O_20
REMARK                            x       y       z     vdW  Elec       q    Type
REMARK                         _______ _______ _______ _____ _____    ______ ____
ROOT
ATOM      1  O   UNL     1     -14.932   5.527  -8.873  0.00  0.00    +0.000 OA
ATOM      2  O   UNL     1     -12.751   6.380 -12.196  0.00  0.00    +0.000 OA
ATOM      3  C   UNL     1     -13.371   6.977 -10.029  0.00  0.00    +0.000 A 
ATOM      4  C   UNL     1     -14.139   6.640  -8.921  0.00  0.00    +0.000 A 
ATOM      5  C   UNL     1     -14.964   4.679  -9.971  0.00  0.00    +0.000 A 
ATOM      6  C   UNL     1     -14.281   4.887 -11.117  0.00  0.00    +0.000 A 
ATOM      7  C   UNL     1     -13.415   6.097 -11.201  0.00  0.00    +0.000 A 
ATOM      8  C   UNL     1     -12.582   8.135 -10.009  0.00  0.00    +0.000 A 
ATOM      9  C   UNL     1     -14.127   7.453  -7.789  0.00  0.00    +0.000 A 
ATOM     10  C   UNL     1     -13.340   8.600  -7.778  0.00  0.00    +0.000 A 
ATOM     11  C   UNL     1     -12.566   8.949  -8.880  0.00  0.00    +0.000 A 
ENDROOT
BRANCH   5  12
ATOM     12  C   UNL     1     -15.842   3.522  -9.749  0.00  0.00    +0.000 A 
ATOM     13  C   UNL     1     -15.525   2.550  -8.795  0.00  0.00    +0.000 A 
ATOM     14  C   UNL     1     -17.047   3.420 -10.457  0.00  0.00    +0.000 A 
ATOM     15  C   UNL     1     -16.392   1.486  -8.579  0.00  0.00    +0.000 A 
ATOM     16  C   UNL     1     -17.923   2.360 -10.226  0.00  0.00    +0.000 A 
ATOM     17  C   UNL     1     -17.594   1.406  -9.273  0.00  0.00    +0.000 A 
BRANCH  15  18
ATOM     18  O   UNL     1     -16.024   0.507  -7.704  0.00  0.00    +0.000 OA
ATOM     19  H   UNL     1     -15.205   0.105  -8.052  0.00  0.00    +0.000 HD
ENDBRANCH  15  18
BRANCH  17  20
ATOM     20  O   UNL     1     -18.479   0.402  -9.008  0.00  0.00    +0.000 OA
ATOM     21  H   UNL     1     -18.968   0.237  -9.835  0.00  0.00    +0.000 HD
ENDBRANCH  17  20
ENDBRANCH   5  12
BRANCH   6  22
ATOM     22  O   UNL     1     -14.330   4.076 -12.236  0.00  0.00    +0.000 OA
ATOM     23  H   UNL     1     -14.170   4.599 -13.037  0.00  0.00    +0.000 HD
ENDBRANCH   6  22
BRANCH   8  24
ATOM     24  O   UNL     1     -11.803   8.528 -11.063  0.00  0.00    +0.000 OA
ATOM     25  H   UNL     1     -10.955   8.027 -11.025  0.00  0.00    +0.000 HD
ENDBRANCH   8  24
BRANCH  10  26
ATOM     26  O   UNL     1     -13.344   9.379  -6.657  0.00  0.00    +0.000 OA
ATOM     27  H   UNL     1     -13.625   8.827  -5.906  0.00  0.00    +0.000 HD
ENDBRANCH  10  26
TORSDOF 6
ENDMDL
