MODEL 1
REMARK VINA RESULT:      -7.9      0.000      0.000
REMARK  Name = 
REMARK  11 active torsions:
REMARK  status: ('A' for Active; 'I' for Inactive)
REMARK    1  A    between atoms: O_2  and  C_16
REMARK    2  A    between atoms: O_2  and  C_18
REMARK    3  A    between atoms: O_3  and  C_12
REMARK    4  A    between atoms: O_4  and  C_13
REMARK    5  A    between atoms: O_5  and  C_14
REMARK    6  A    between atoms: O_8  and  C_24
REMARK    7  A    between atoms: O_9  and  C_29
REMARK    8  A    between atoms: O_10  and  C_30
REMARK    9  A    between atoms: O_11  and  C_32
REMARK   10  A    between atoms: C_15  and  C_17
REMARK   11  A    between atoms: C_19  and  C_23
REMARK                            x       y       z     vdW  Elec       q    Type
REMARK                         _______ _______ _______ _____ _____    ______ ____
ROOT
ATOM      1  O   UNL     1      -1.544  -3.146 -19.298  0.00  0.00    +0.000 OA
ATOM      2  O   UNL     1      -0.370   0.711 -18.842  0.00  0.00    +0.000 OA
ATOM      3  C   UNL     1       0.253  -1.533 -19.235  0.00  0.00    +0.000 A 
ATOM      4  C   UNL     1      -0.227  -2.769 -19.480  0.00  0.00    +0.000 A 
ATOM      5  C   UNL     1      -0.715  -0.464 -18.851  0.00  0.00    +0.000 A 
ATOM      6  C   UNL     1      -2.092  -0.902 -18.528  0.00  0.00    +0.000 A 
ATOM      7  C   UNL     1      -2.426  -2.232 -18.786  0.00  0.00    +0.000 A 
ATOM      8  C   UNL     1      -3.067  -0.047 -17.994  0.00  0.00    +0.000 A 
ATOM      9  C   UNL     1      -3.715  -2.704 -18.528  0.00  0.00    +0.000 A 
ATOM     10  C   UNL     1      -4.359  -0.515 -17.731  0.00  0.00    +0.000 A 
ATOM     11  C   UNL     1      -4.670  -1.843 -18.004  0.00  0.00    +0.000 A 
ENDROOT
BRANCH   4  12
ATOM     12  C   UNL     1       0.627  -3.880 -19.948  0.00  0.00    +0.000 A 
ATOM     13  C   UNL     1       0.896  -4.018 -21.321  0.00  0.00    +0.000 A 
ATOM     14  C   UNL     1       1.185  -4.803 -19.045  0.00  0.00    +0.000 A 
ATOM     15  C   UNL     1       1.683  -5.074 -21.766  0.00  0.00    +0.000 A 
ATOM     16  C   UNL     1       1.971  -5.863 -19.501  0.00  0.00    +0.000 A 
ATOM     17  C   UNL     1       2.209  -5.991 -20.860  0.00  0.00    +0.000 A 
BRANCH  15  18
ATOM     18  O   UNL     1       1.966  -5.258 -23.092  0.00  0.00    +0.000 OA
ATOM     19  H   UNL     1       1.163  -5.582 -23.536  0.00  0.00    +0.000 HD
ENDBRANCH  15  18
BRANCH  17  20
ATOM     20  O   UNL     1       2.974  -7.030 -21.306  0.00  0.00    +0.000 OA
ATOM     21  H   UNL     1       3.217  -6.786 -22.222  0.00  0.00    +0.000 HD
ENDBRANCH  17  20
ENDBRANCH   4  12
BRANCH   8  22
ATOM     22  O   UNL     1      -2.770   1.253 -17.700  0.00  0.00    +0.000 OA
ATOM     23  H   UNL     1      -3.215   1.861 -18.311  0.00  0.00    +0.000 HD
ENDBRANCH   8  22
BRANCH  11  24
ATOM     24  O   UNL     1      -5.912  -2.349 -17.767  0.00  0.00    +0.000 OA
ATOM     25  H   UNL     1      -6.567  -1.632 -17.803  0.00  0.00    +0.000 HD
ENDBRANCH  11  24
BRANCH   3  26
ATOM     26  O   UNL     1       1.578  -1.167 -19.420  0.00  0.00    +0.000 OA
BRANCH  26  32
ATOM     27  O   UNL     1       2.593   0.200 -17.736  0.00  0.00    +0.000 OA
ATOM     28  C   UNL     1       4.616  -1.280 -19.160  0.00  0.00    +0.000 C 
ATOM     29  C   UNL     1       4.862   0.145 -18.651  0.00  0.00    +0.000 C 
ATOM     30  C   UNL     1       3.568  -1.994 -18.306  0.00  0.00    +0.000 C 
ATOM     31  C   UNL     1       3.527   0.893 -18.580  0.00  0.00    +0.000 C 
ATOM     32  C   UNL     1       2.295  -1.127 -18.178  0.00  0.00    +0.000 C 
ATOM     33  C   UNL     1       3.698   2.297 -18.009  0.00  0.00    +0.000 C 
BRANCH  28  34
ATOM     34  O   UNL     1       5.862  -2.002 -19.115  0.00  0.00    +0.000 OA
ATOM     35  H   UNL     1       5.866  -2.441 -18.239  0.00  0.00    +0.000 HD
ENDBRANCH  28  34
BRANCH  29  36
ATOM     36  O   UNL     1       5.787   0.798 -19.525  0.00  0.00    +0.000 OA
ATOM     37  H   UNL     1       5.286   1.533 -19.932  0.00  0.00    +0.000 HD
ENDBRANCH  29  36
BRANCH  30  38
ATOM     38  O   UNL     1       4.170  -2.268 -17.023  0.00  0.00    +0.000 OA
ATOM     39  H   UNL     1       4.151  -1.440 -16.510  0.00  0.00    +0.000 HD
ENDBRANCH  30  38
ENDBRANCH  26  32
ENDBRANCH   3  26
TORSDOF 10
ENDMDL
MODEL 2
REMARK VINA RESULT:      -6.6      6.296     12.331
REMARK  Name = 
REMARK  11 active torsions:
REMARK  status: ('A' for Active; 'I' for Inactive)
REMARK    1  A    between atoms: O_2  and  C_16
REMARK    2  A    between atoms: O_2  and  C_18
REMARK    3  A    between atoms: O_3  and  C_12
REMARK    4  A    between atoms: O_4  and  C_13
REMARK    5  A    between atoms: O_5  and  C_14
REMARK    6  A    between atoms: O_8  and  C_24
REMARK    7  A    between atoms: O_9  and  C_29
REMARK    8  A    between atoms: O_10  and  C_30
REMARK    9  A    between atoms: O_11  and  C_32
REMARK   10  A    between atoms: C_15  and  C_17
REMARK   11  A    between atoms: C_19  and  C_23
REMARK                            x       y       z     vdW  Elec       q    Type
REMARK                         _______ _______ _______ _____ _____    ______ ____
ROOT
ATOM      1  O   UNL     1      -7.051  -1.798 -19.140  0.00  0.00    +0.000 OA
ATOM      2  O   UNL     1      -8.442  -0.098 -22.552  0.00  0.00    +0.000 OA
ATOM      3  C   UNL     1      -8.830  -1.589 -20.762  0.00  0.00    +0.000 A 
ATOM      4  C   UNL     1      -8.340  -2.027 -19.585  0.00  0.00    +0.000 A 
ATOM      5  C   UNL     1      -7.969  -0.702 -21.597  0.00  0.00    +0.000 A 
ATOM      6  C   UNL     1      -6.552  -0.573 -21.185  0.00  0.00    +0.000 A 
ATOM      7  C   UNL     1      -6.182  -1.128 -19.960  0.00  0.00    +0.000 A 
ATOM      8  C   UNL     1      -5.583   0.086 -21.954  0.00  0.00    +0.000 A 
ATOM      9  C   UNL     1      -4.868  -1.021 -19.498  0.00  0.00    +0.000 A 
ATOM     10  C   UNL     1      -4.264   0.194 -21.499  0.00  0.00    +0.000 A 
ATOM     11  C   UNL     1      -3.921  -0.361 -20.270  0.00  0.00    +0.000 A 
ENDROOT
BRANCH   4  12
ATOM     12  C   UNL     1      -9.135  -2.839 -18.640  0.00  0.00    +0.000 A 
ATOM     13  C   UNL     1      -9.800  -2.210 -17.572  0.00  0.00    +0.000 A 
ATOM     14  C   UNL     1      -9.247  -4.233 -18.791  0.00  0.00    +0.000 A 
ATOM     15  C   UNL     1     -10.533  -2.974 -16.671  0.00  0.00    +0.000 A 
ATOM     16  C   UNL     1      -9.982  -4.993 -17.878  0.00  0.00    +0.000 A 
ATOM     17  C   UNL     1     -10.615  -4.355 -16.823  0.00  0.00    +0.000 A 
BRANCH  15  18
ATOM     18  O   UNL     1     -11.189  -2.412 -15.611  0.00  0.00    +0.000 OA
ATOM     19  H   UNL     1     -11.616  -1.591 -15.914  0.00  0.00    +0.000 HD
ENDBRANCH  15  18
BRANCH  17  20
ATOM     20  O   UNL     1     -11.329  -5.099 -15.929  0.00  0.00    +0.000 OA
ATOM     21  H   UNL     1     -10.668  -5.410 -15.278  0.00  0.00    +0.000 HD
ENDBRANCH  17  20
ENDBRANCH   4  12
BRANCH   8  22
ATOM     22  O   UNL     1      -5.900   0.616 -23.172  0.00  0.00    +0.000 OA
ATOM     23  H   UNL     1      -5.956   1.583 -23.129  0.00  0.00    +0.000 HD
ENDBRANCH   8  22
BRANCH  11  24
ATOM     24  O   UNL     1      -2.652  -0.283 -19.781  0.00  0.00    +0.000 OA
ATOM     25  H   UNL     1      -2.223  -1.152 -19.851  0.00  0.00    +0.000 HD
ENDBRANCH  11  24
BRANCH   3  26
ATOM     26  O   UNL     1     -10.125  -1.827 -21.197  0.00  0.00    +0.000 OA
BRANCH  26  32
ATOM     27  O   UNL     1     -10.388  -2.498 -23.481  0.00  0.00    +0.000 OA
ATOM     28  C   UNL     1     -12.655  -3.369 -21.927  0.00  0.00    +0.000 C 
ATOM     29  C   UNL     1     -12.798  -2.911 -23.383  0.00  0.00    +0.000 C 
ATOM     30  C   UNL     1     -11.255  -3.922 -21.662  0.00  0.00    +0.000 C 
ATOM     31  C   UNL     1     -11.680  -1.915 -23.712  0.00  0.00    +0.000 C 
ATOM     32  C   UNL     1     -10.179  -2.917 -22.129  0.00  0.00    +0.000 C 
ATOM     33  C   UNL     1     -11.727  -1.479 -25.172  0.00  0.00    +0.000 C 
BRANCH  28  34
ATOM     34  O   UNL     1     -13.644  -4.384 -21.669  0.00  0.00    +0.000 OA
ATOM     35  H   UNL     1     -13.422  -4.729 -20.779  0.00  0.00    +0.000 HD
ENDBRANCH  28  34
BRANCH  29  36
ATOM     36  O   UNL     1     -14.093  -2.328 -23.563  0.00  0.00    +0.000 OA
ATOM     37  H   UNL     1     -14.350  -1.988 -22.683  0.00  0.00    +0.000 HD
ENDBRANCH  29  36
BRANCH  30  38
ATOM     38  O   UNL     1     -11.153  -5.187 -22.351  0.00  0.00    +0.000 OA
ATOM     39  H   UNL     1     -11.810  -5.179 -23.071  0.00  0.00    +0.000 HD
ENDBRANCH  30  38
ENDBRANCH  26  32
ENDBRANCH   3  26
TORSDOF 10
ENDMDL
MODEL 3
REMARK VINA RESULT:      -6.5      6.332     10.675
REMARK  Name = 
REMARK  11 active torsions:
REMARK  status: ('A' for Active; 'I' for Inactive)
REMARK    1  A    between atoms: O_2  and  C_16
REMARK    2  A    between atoms: O_2  and  C_18
REMARK    3  A    between atoms: O_3  and  C_12
REMARK    4  A    between atoms: O_4  and  C_13
REMARK    5  A    between atoms: O_5  and  C_14
REMARK    6  A    between atoms: O_8  and  C_24
REMARK    7  A    between atoms: O_9  and  C_29
REMARK    8  A    between atoms: O_10  and  C_30
REMARK    9  A    between atoms: O_11  and  C_32
REMARK   10  A    between atoms: C_15  and  C_17
REMARK   11  A    between atoms: C_19  and  C_23
REMARK                            x       y       z     vdW  Elec       q    Type
REMARK                         _______ _______ _______ _____ _____    ______ ____
ROOT
ATOM      1  O   UNL     1       7.939  -0.853 -18.918  0.00  0.00    +0.000 OA
ATOM      2  O   UNL     1       9.546  -1.659 -22.555  0.00  0.00    +0.000 OA
ATOM      3  C   UNL     1       9.785  -0.604 -20.456  0.00  0.00    +0.000 A 
ATOM      4  C   UNL     1       9.229  -0.471 -19.236  0.00  0.00    +0.000 A 
ATOM      5  C   UNL     1       9.005  -1.314 -21.512  0.00  0.00    +0.000 A 
ATOM      6  C   UNL     1       7.584  -1.597 -21.209  0.00  0.00    +0.000 A 
ATOM      7  C   UNL     1       7.139  -1.356 -19.909  0.00  0.00    +0.000 A 
ATOM      8  C   UNL     1       6.681  -2.105 -22.154  0.00  0.00    +0.000 A 
ATOM      9  C   UNL     1       5.817  -1.626 -19.548  0.00  0.00    +0.000 A 
ATOM     10  C   UNL     1       5.355  -2.375 -21.800  0.00  0.00    +0.000 A 
ATOM     11  C   UNL     1       4.937  -2.133 -20.495  0.00  0.00    +0.000 A 
ENDROOT
BRANCH   4  12
ATOM     12  C   UNL     1       9.943   0.137 -18.093  0.00  0.00    +0.000 A 
ATOM     13  C   UNL     1      10.785  -0.658 -17.297  0.00  0.00    +0.000 A 
ATOM     14  C   UNL     1       9.803   1.504 -17.789  0.00  0.00    +0.000 A 
ATOM     15  C   UNL     1      11.443  -0.092 -16.211  0.00  0.00    +0.000 A 
ATOM     16  C   UNL     1      10.464   2.062 -16.693  0.00  0.00    +0.000 A 
ATOM     17  C   UNL     1      11.275   1.256 -15.911  0.00  0.00    +0.000 A 
BRANCH  15  18
ATOM     18  O   UNL     1      12.265  -0.825 -15.400  0.00  0.00    +0.000 OA
ATOM     19  H   UNL     1      12.479  -1.660 -15.852  0.00  0.00    +0.000 HD
ENDBRANCH  15  18
BRANCH  17  20
ATOM     20  O   UNL     1      11.917   1.802 -14.838  0.00  0.00    +0.000 OA
ATOM     21  H   UNL     1      11.794   1.153 -14.116  0.00  0.00    +0.000 HD
ENDBRANCH  17  20
ENDBRANCH   4  12
BRANCH   8  22
ATOM     22  O   UNL     1       7.072  -2.327 -23.444  0.00  0.00    +0.000 OA
ATOM     23  H   UNL     1       7.467  -1.531 -23.832  0.00  0.00    +0.000 HD
ENDBRANCH   8  22
BRANCH  11  24
ATOM     24  O   UNL     1       3.657  -2.379 -20.099  0.00  0.00    +0.000 OA
ATOM     25  H   UNL     1       3.068  -2.357 -20.871  0.00  0.00    +0.000 HD
ENDBRANCH  11  24
BRANCH   3  26
ATOM     26  O   UNL     1      11.080  -0.214 -20.763  0.00  0.00    +0.000 OA
BRANCH  26  32
ATOM     27  O   UNL     1      11.306   1.145 -22.722  0.00  0.00    +0.000 OA
ATOM     28  C   UNL     1      13.599   1.491 -21.010  0.00  0.00    +0.000 C 
ATOM     29  C   UNL     1      13.718   1.516 -22.538  0.00  0.00    +0.000 C 
ATOM     30  C   UNL     1      12.204   1.926 -20.561  0.00  0.00    +0.000 C 
ATOM     31  C   UNL     1      12.593   0.670 -23.146  0.00  0.00    +0.000 C 
ATOM     32  C   UNL     1      11.119   1.114 -21.305  0.00  0.00    +0.000 C 
ATOM     33  C   UNL     1      12.615   0.716 -24.669  0.00  0.00    +0.000 C 
BRANCH  28  34
ATOM     34  O   UNL     1      14.592   2.378 -20.461  0.00  0.00    +0.000 OA
ATOM     35  H   UNL     1      14.674   2.111 -19.521  0.00  0.00    +0.000 HD
ENDBRANCH  28  34
BRANCH  29  36
ATOM     36  O   UNL     1      15.009   1.026 -22.913  0.00  0.00    +0.000 OA
ATOM     37  H   UNL     1      15.607   1.283 -22.183  0.00  0.00    +0.000 HD
ENDBRANCH  29  36
BRANCH  30  38
ATOM     38  O   UNL     1      12.091   3.343 -20.815  0.00  0.00    +0.000 OA
ATOM     39  H   UNL     1      11.960   3.782 -19.954  0.00  0.00    +0.000 HD
ENDBRANCH  30  38
ENDBRANCH  26  32
ENDBRANCH   3  26
TORSDOF 10
ENDMDL
MODEL 4
REMARK VINA RESULT:      -6.4      5.270     10.377
REMARK  Name = 
REMARK  11 active torsions:
REMARK  status: ('A' for Active; 'I' for Inactive)
REMARK    1  A    between atoms: O_2  and  C_16
REMARK    2  A    between atoms: O_2  and  C_18
REMARK    3  A    between atoms: O_3  and  C_12
REMARK    4  A    between atoms: O_4  and  C_13
REMARK    5  A    between atoms: O_5  and  C_14
REMARK    6  A    between atoms: O_8  and  C_24
REMARK    7  A    between atoms: O_9  and  C_29
REMARK    8  A    between atoms: O_10  and  C_30
REMARK    9  A    between atoms: O_11  and  C_32
REMARK   10  A    between atoms: C_15  and  C_17
REMARK   11  A    between atoms: C_19  and  C_23
REMARK                            x       y       z     vdW  Elec       q    Type
REMARK                         _______ _______ _______ _____ _____    ______ ____
ROOT
ATOM      1  O   UNL     1       8.338   1.291 -17.612  0.00  0.00    +0.000 OA
ATOM      2  O   UNL     1      10.523   1.575 -21.019  0.00  0.00    +0.000 OA
ATOM      3  C   UNL     1       8.438   1.100 -20.018  0.00  0.00    +0.000 A 
ATOM      4  C   UNL     1       7.756   1.132 -18.856  0.00  0.00    +0.000 A 
ATOM      5  C   UNL     1       9.905   1.368 -19.982  0.00  0.00    +0.000 A 
ATOM      6  C   UNL     1      10.540   1.402 -18.645  0.00  0.00    +0.000 A 
ATOM      7  C   UNL     1       9.703   1.372 -17.529  0.00  0.00    +0.000 A 
ATOM      8  C   UNL     1      11.927   1.477 -18.453  0.00  0.00    +0.000 A 
ATOM      9  C   UNL     1      10.235   1.428 -16.239  0.00  0.00    +0.000 A 
ATOM     10  C   UNL     1      12.466   1.530 -17.163  0.00  0.00    +0.000 A 
ATOM     11  C   UNL     1      11.610   1.506 -16.066  0.00  0.00    +0.000 A 
ENDROOT
BRANCH   4  12
ATOM     12  C   UNL     1       6.289   0.966 -18.783  0.00  0.00    +0.000 A 
ATOM     13  C   UNL     1       5.503   1.982 -18.213  0.00  0.00    +0.000 A 
ATOM     14  C   UNL     1       5.660  -0.189 -19.282  0.00  0.00    +0.000 A 
ATOM     15  C   UNL     1       4.124   1.820 -18.127  0.00  0.00    +0.000 A 
ATOM     16  C   UNL     1       4.276  -0.346 -19.187  0.00  0.00    +0.000 A 
ATOM     17  C   UNL     1       3.521   0.660 -18.606  0.00  0.00    +0.000 A 
BRANCH  15  18
ATOM     18  O   UNL     1       3.316   2.774 -17.573  0.00  0.00    +0.000 OA
ATOM     19  H   UNL     1       2.390   2.532 -17.747  0.00  0.00    +0.000 HD
ENDBRANCH  15  18
BRANCH  17  20
ATOM     20  O   UNL     1       2.169   0.505 -18.509  0.00  0.00    +0.000 OA
ATOM     21  H   UNL     1       1.845   0.551 -19.431  0.00  0.00    +0.000 HD
ENDBRANCH  17  20
ENDBRANCH   4  12
BRANCH   8  22
ATOM     22  O   UNL     1      12.781   1.478 -19.518  0.00  0.00    +0.000 OA
ATOM     23  H   UNL     1      12.566   2.192 -20.139  0.00  0.00    +0.000 HD
ENDBRANCH   8  22
BRANCH  11  24
ATOM     24  O   UNL     1      12.083   1.556 -14.790  0.00  0.00    +0.000 OA
ATOM     25  H   UNL     1      11.403   1.227 -14.178  0.00  0.00    +0.000 HD
ENDBRANCH  11  24
BRANCH   3  26
ATOM     26  O   UNL     1       7.842   0.937 -21.259  0.00  0.00    +0.000 OA
BRANCH  26  32
ATOM     27  O   UNL     1       5.902   2.128 -22.004  0.00  0.00    +0.000 OA
ATOM     28  C   UNL     1       7.714   1.712 -24.209  0.00  0.00    +0.000 C 
ATOM     29  C   UNL     1       6.193   1.684 -24.394  0.00  0.00    +0.000 C 
ATOM     30  C   UNL     1       8.105   2.588 -23.017  0.00  0.00    +0.000 C 
ATOM     31  C   UNL     1       5.532   1.251 -23.080  0.00  0.00    +0.000 C 
ATOM     32  C   UNL     1       7.310   2.173 -21.758  0.00  0.00    +0.000 C 
ATOM     33  C   UNL     1       4.011   1.274 -23.181  0.00  0.00    +0.000 C 
BRANCH  28  34
ATOM     34  O   UNL     1       8.311   2.227 -25.415  0.00  0.00    +0.000 OA
ATOM     35  H   UNL     1       7.971   3.143 -25.491  0.00  0.00    +0.000 HD
ENDBRANCH  28  34
BRANCH  29  36
ATOM     36  O   UNL     1       5.871   0.792 -25.465  0.00  0.00    +0.000 OA
ATOM     37  H   UNL     1       6.729   0.459 -25.793  0.00  0.00    +0.000 HD
ENDBRANCH  29  36
BRANCH  30  38
ATOM     38  O   UNL     1       7.855   3.961 -23.390  0.00  0.00    +0.000 OA
ATOM     39  H   UNL     1       8.364   4.525 -22.780  0.00  0.00    +0.000 HD
ENDBRANCH  30  38
ENDBRANCH  26  32
ENDBRANCH   3  26
TORSDOF 10
ENDMDL
MODEL 5
REMARK VINA RESULT:      -6.3      3.903      6.418
REMARK  Name = 
REMARK  11 active torsions:
REMARK  status: ('A' for Active; 'I' for Inactive)
REMARK    1  A    between atoms: O_2  and  C_16
REMARK    2  A    between atoms: O_2  and  C_18
REMARK    3  A    between atoms: O_3  and  C_12
REMARK    4  A    between atoms: O_4  and  C_13
REMARK    5  A    between atoms: O_5  and  C_14
REMARK    6  A    between atoms: O_8  and  C_24
REMARK    7  A    between atoms: O_9  and  C_29
REMARK    8  A    between atoms: O_10  and  C_30
REMARK    9  A    between atoms: O_11  and  C_32
REMARK   10  A    between atoms: C_15  and  C_17
REMARK   11  A    between atoms: C_19  and  C_23
REMARK                            x       y       z     vdW  Elec       q    Type
REMARK                         _______ _______ _______ _____ _____    ______ ____
ROOT
ATOM      1  O   UNL     1      -1.277   2.777 -21.411  0.00  0.00    +0.000 OA
ATOM      2  O   UNL     1       2.457   2.034 -22.815  0.00  0.00    +0.000 OA
ATOM      3  C   UNL     1       0.720   1.420 -21.338  0.00  0.00    +0.000 A 
ATOM      4  C   UNL     1      -0.561   1.667 -21.002  0.00  0.00    +0.000 A 
ATOM      5  C   UNL     1       1.385   2.339 -22.307  0.00  0.00    +0.000 A 
ATOM      6  C   UNL     1       0.666   3.591 -22.633  0.00  0.00    +0.000 A 
ATOM      7  C   UNL     1      -0.642   3.727 -22.167  0.00  0.00    +0.000 A 
ATOM      8  C   UNL     1       1.228   4.627 -23.392  0.00  0.00    +0.000 A 
ATOM      9  C   UNL     1      -1.387   4.872 -22.460  0.00  0.00    +0.000 A 
ATOM     10  C   UNL     1       0.489   5.778 -23.687  0.00  0.00    +0.000 A 
ATOM     11  C   UNL     1      -0.816   5.886 -23.217  0.00  0.00    +0.000 A 
ENDROOT
BRANCH   4  12
ATOM     12  C   UNL     1      -1.344   0.776 -20.119  0.00  0.00    +0.000 A 
ATOM     13  C   UNL     1      -1.995   1.311 -18.994  0.00  0.00    +0.000 A 
ATOM     14  C   UNL     1      -1.457  -0.600 -20.387  0.00  0.00    +0.000 A 
ATOM     15  C   UNL     1      -2.716   0.472 -18.152  0.00  0.00    +0.000 A 
ATOM     16  C   UNL     1      -2.179  -1.436 -19.532  0.00  0.00    +0.000 A 
ATOM     17  C   UNL     1      -2.799  -0.891 -18.419  0.00  0.00    +0.000 A 
BRANCH  15  18
ATOM     18  O   UNL     1      -3.359   0.941 -17.039  0.00  0.00    +0.000 OA
ATOM     19  H   UNL     1      -3.443   1.907 -17.117  0.00  0.00    +0.000 HD
ENDBRANCH  15  18
BRANCH  17  20
ATOM     20  O   UNL     1      -3.501  -1.709 -17.583  0.00  0.00    +0.000 OA
ATOM     21  H   UNL     1      -3.870  -2.405 -18.164  0.00  0.00    +0.000 HD
ENDBRANCH  17  20
ENDBRANCH   4  12
BRANCH   8  22
ATOM     22  O   UNL     1       2.515   4.544 -23.841  0.00  0.00    +0.000 OA
ATOM     23  H   UNL     1       2.565   4.716 -24.795  0.00  0.00    +0.000 HD
ENDBRANCH   8  22
BRANCH  11  24
ATOM     24  O   UNL     1      -1.579   6.985 -23.476  0.00  0.00    +0.000 OA
ATOM     25  H   UNL     1      -1.034   7.785 -23.395  0.00  0.00    +0.000 HD
ENDBRANCH  11  24
BRANCH   3  26
ATOM     26  O   UNL     1       1.427   0.303 -20.919  0.00  0.00    +0.000 OA
BRANCH  26  32
ATOM     27  O   UNL     1       3.630   0.589 -20.024  0.00  0.00    +0.000 OA
ATOM     28  C   UNL     1       2.425  -1.796 -18.941  0.00  0.00    +0.000 C 
ATOM     29  C   UNL     1       3.925  -1.713 -19.246  0.00  0.00    +0.000 C 
ATOM     30  C   UNL     1       1.850  -0.412 -18.640  0.00  0.00    +0.000 C 
ATOM     31  C   UNL     1       4.156  -0.701 -20.374  0.00  0.00    +0.000 C 
ATOM     32  C   UNL     1       2.225   0.585 -19.759  0.00  0.00    +0.000 C 
ATOM     33  C   UNL     1       5.640  -0.520 -20.672  0.00  0.00    +0.000 C 
BRANCH  28  34
ATOM     34  O   UNL     1       2.238  -2.665 -17.807  0.00  0.00    +0.000 OA
ATOM     35  H   UNL     1       2.024  -3.540 -18.195  0.00  0.00    +0.000 HD
ENDBRANCH  28  34
BRANCH  29  36
ATOM     36  O   UNL     1       4.402  -3.015 -19.599  0.00  0.00    +0.000 OA
ATOM     37  H   UNL     1       5.135  -3.200 -18.979  0.00  0.00    +0.000 HD
ENDBRANCH  29  36
BRANCH  30  38
ATOM     38  O   UNL     1       2.361  -0.002 -17.353  0.00  0.00    +0.000 OA
ATOM     39  H   UNL     1       2.516  -0.811 -16.831  0.00  0.00    +0.000 HD
ENDBRANCH  30  38
ENDBRANCH  26  32
ENDBRANCH   3  26
TORSDOF 10
ENDMDL
MODEL 6
REMARK VINA RESULT:      -6.3     18.913     22.605
REMARK  Name = 
REMARK  11 active torsions:
REMARK  status: ('A' for Active; 'I' for Inactive)
REMARK    1  A    between atoms: O_2  and  C_16
REMARK    2  A    between atoms: O_2  and  C_18
REMARK    3  A    between atoms: O_3  and  C_12
REMARK    4  A    between atoms: O_4  and  C_13
REMARK    5  A    between atoms: O_5  and  C_14
REMARK    6  A    between atoms: O_8  and  C_24
REMARK    7  A    between atoms: O_9  and  C_29
REMARK    8  A    between atoms: O_10  and  C_30
REMARK    9  A    between atoms: O_11  and  C_32
REMARK   10  A    between atoms: C_15  and  C_17
REMARK   11  A    between atoms: C_19  and  C_23
REMARK                            x       y       z     vdW  Elec       q    Type
REMARK                         _______ _______ _______ _____ _____    ______ ____
ROOT
ATOM      1  O   UNL     1      -6.459  -1.486  -0.099  0.00  0.00    +0.000 OA
ATOM      2  O   UNL     1      -8.152   0.641   2.914  0.00  0.00    +0.000 OA
ATOM      3  C   UNL     1      -8.464  -0.708   1.000  0.00  0.00    +0.000 A 
ATOM      4  C   UNL     1      -7.827  -1.478   0.096  0.00  0.00    +0.000 A 
ATOM      5  C   UNL     1      -7.639   0.109   1.937  0.00  0.00    +0.000 A 
ATOM      6  C   UNL     1      -6.191   0.200   1.638  0.00  0.00    +0.000 A 
ATOM      7  C   UNL     1      -5.685  -0.623   0.632  0.00  0.00    +0.000 A 
ATOM      8  C   UNL     1      -5.316   1.056   2.322  0.00  0.00    +0.000 A 
ATOM      9  C   UNL     1      -4.324  -0.606   0.316  0.00  0.00    +0.000 A 
ATOM     10  C   UNL     1      -3.953   1.080   2.008  0.00  0.00    +0.000 A 
ATOM     11  C   UNL     1      -3.470   0.244   1.006  0.00  0.00    +0.000 A 
ENDROOT
BRANCH   4  12
ATOM     12  C   UNL     1      -8.540  -2.389  -0.823  0.00  0.00    +0.000 A 
ATOM     13  C   UNL     1      -8.461  -2.179  -2.211  0.00  0.00    +0.000 A 
ATOM     14  C   UNL     1      -9.295  -3.472  -0.336  0.00  0.00    +0.000 A 
ATOM     15  C   UNL     1      -9.146  -3.024  -3.076  0.00  0.00    +0.000 A 
ATOM     16  C   UNL     1      -9.984  -4.313  -1.213  0.00  0.00    +0.000 A 
ATOM     17  C   UNL     1      -9.906  -4.078  -2.576  0.00  0.00    +0.000 A 
BRANCH  15  18
ATOM     18  O   UNL     1      -9.109  -2.857  -4.433  0.00  0.00    +0.000 OA
ATOM     19  H   UNL     1      -9.654  -3.550  -4.844  0.00  0.00    +0.000 HD
ENDBRANCH  15  18
BRANCH  17  20
ATOM     20  O   UNL     1     -10.583  -4.897  -3.432  0.00  0.00    +0.000 OA
ATOM     21  H   UNL     1     -10.076  -4.860  -4.268  0.00  0.00    +0.000 HD
ENDBRANCH  17  20
ENDBRANCH   4  12
BRANCH   8  22
ATOM     22  O   UNL     1      -5.779   1.898   3.292  0.00  0.00    +0.000 OA
ATOM     23  H   UNL     1      -6.265   2.643   2.906  0.00  0.00    +0.000 HD
ENDBRANCH   8  22
BRANCH  11  24
ATOM     24  O   UNL     1      -2.152   0.228   0.663  0.00  0.00    +0.000 OA
ATOM     25  H   UNL     1      -1.943   1.020   0.141  0.00  0.00    +0.000 HD
ENDBRANCH  11  24
BRANCH   3  26
ATOM     26  O   UNL     1      -9.839  -0.707   1.184  0.00  0.00    +0.000 OA
BRANCH  26  32
ATOM     27  O   UNL     1     -10.972   1.403   1.178  0.00  0.00    +0.000 OA
ATOM     28  C   UNL     1     -12.793  -0.699   0.416  0.00  0.00    +0.000 C 
ATOM     29  C   UNL     1     -13.249   0.506   1.246  0.00  0.00    +0.000 C 
ATOM     30  C   UNL     1     -11.589  -0.340  -0.456  0.00  0.00    +0.000 C 
ATOM     31  C   UNL     1     -12.059   1.046   2.048  0.00  0.00    +0.000 C 
ATOM     32  C   UNL     1     -10.478   0.310   0.399  0.00  0.00    +0.000 C 
ATOM     33  C   UNL     1     -12.434   2.294   2.839  0.00  0.00    +0.000 C 
BRANCH  28  34
ATOM     34  O   UNL     1     -13.892  -1.125  -0.412  0.00  0.00    +0.000 OA
ATOM     35  H   UNL     1     -14.559  -1.471   0.216  0.00  0.00    +0.000 HD
ENDBRANCH  28  34
BRANCH  29  36
ATOM     36  O   UNL     1     -14.322   0.102   2.103  0.00  0.00    +0.000 OA
ATOM     37  H   UNL     1     -15.139   0.288   1.599  0.00  0.00    +0.000 HD
ENDBRANCH  29  36
BRANCH  30  38
ATOM     38  O   UNL     1     -12.059   0.540  -1.499  0.00  0.00    +0.000 OA
ATOM     39  H   UNL     1     -12.753   0.064  -1.990  0.00  0.00    +0.000 HD
ENDBRANCH  30  38
ENDBRANCH  26  32
ENDBRANCH   3  26
TORSDOF 10
ENDMDL
MODEL 7
REMARK VINA RESULT:      -6.1      2.567      7.114
REMARK  Name = 
REMARK  11 active torsions:
REMARK  status: ('A' for Active; 'I' for Inactive)
REMARK    1  A    between atoms: O_2  and  C_16
REMARK    2  A    between atoms: O_2  and  C_18
REMARK    3  A    between atoms: O_3  and  C_12
REMARK    4  A    between atoms: O_4  and  C_13
REMARK    5  A    between atoms: O_5  and  C_14
REMARK    6  A    between atoms: O_8  and  C_24
REMARK    7  A    between atoms: O_9  and  C_29
REMARK    8  A    between atoms: O_10  and  C_30
REMARK    9  A    between atoms: O_11  and  C_32
REMARK   10  A    between atoms: C_15  and  C_17
REMARK   11  A    between atoms: C_19  and  C_23
REMARK                            x       y       z     vdW  Elec       q    Type
REMARK                         _______ _______ _______ _____ _____    ______ ____
ROOT
ATOM      1  O   UNL     1       5.527  -1.413 -19.482  0.00  0.00    +0.000 OA
ATOM      2  O   UNL     1       3.913   2.151 -18.406  0.00  0.00    +0.000 OA
ATOM      3  C   UNL     1       3.564  -0.022 -19.262  0.00  0.00    +0.000 A 
ATOM      4  C   UNL     1       4.160  -1.208 -19.496  0.00  0.00    +0.000 A 
ATOM      5  C   UNL     1       4.421   1.127 -18.847  0.00  0.00    +0.000 A 
ATOM      6  C   UNL     1       5.885   0.940 -18.964  0.00  0.00    +0.000 A 
ATOM      7  C   UNL     1       6.351  -0.340 -19.268  0.00  0.00    +0.000 A 
ATOM      8  C   UNL     1       6.812   1.974 -18.772  0.00  0.00    +0.000 A 
ATOM      9  C   UNL     1       7.721  -0.592 -19.368  0.00  0.00    +0.000 A 
ATOM     10  C   UNL     1       8.185   1.728 -18.875  0.00  0.00    +0.000 A 
ATOM     11  C   UNL     1       8.626   0.442 -19.170  0.00  0.00    +0.000 A 
ENDROOT
BRANCH   4  12
ATOM     12  C   UNL     1       3.402  -2.432 -19.830  0.00  0.00    +0.000 A 
ATOM     13  C   UNL     1       2.567  -3.017 -18.862  0.00  0.00    +0.000 A 
ATOM     14  C   UNL     1       3.493  -3.022 -21.103  0.00  0.00    +0.000 A 
ATOM     15  C   UNL     1       1.868  -4.180 -19.167  0.00  0.00    +0.000 A 
ATOM     16  C   UNL     1       2.790  -4.193 -21.399  0.00  0.00    +0.000 A 
ATOM     17  C   UNL     1       1.987  -4.763 -20.425  0.00  0.00    +0.000 A 
BRANCH  15  18
ATOM     18  O   UNL     1       1.051  -4.793 -18.258  0.00  0.00    +0.000 OA
ATOM     19  H   UNL     1       1.601  -5.138 -17.533  0.00  0.00    +0.000 HD
ENDBRANCH  15  18
BRANCH  17  20
ATOM     20  O   UNL     1       1.304  -5.908 -20.714  0.00  0.00    +0.000 OA
ATOM     21  H   UNL     1       1.490  -6.080 -21.659  0.00  0.00    +0.000 HD
ENDBRANCH  17  20
ENDBRANCH   4  12
BRANCH   8  22
ATOM     22  O   UNL     1       6.393   3.245 -18.504  0.00  0.00    +0.000 OA
ATOM     23  H   UNL     1       6.199   3.359 -17.560  0.00  0.00    +0.000 HD
ENDBRANCH   8  22
BRANCH  11  24
ATOM     24  O   UNL     1       9.952   0.149 -19.281  0.00  0.00    +0.000 OA
ATOM     25  H   UNL     1      10.447   0.622 -18.591  0.00  0.00    +0.000 HD
ENDBRANCH  11  24
BRANCH   3  26
ATOM     26  O   UNL     1       2.191   0.171 -19.282  0.00  0.00    +0.000 OA
BRANCH  26  32
ATOM     27  O   UNL     1       1.661   1.913 -20.838  0.00  0.00    +0.000 OA
ATOM     28  C   UNL     1      -0.742   0.534 -20.043  0.00  0.00    +0.000 C 
ATOM     29  C   UNL     1      -0.728   2.040 -20.324  0.00  0.00    +0.000 C 
ATOM     30  C   UNL     1       0.357  -0.181 -20.830  0.00  0.00    +0.000 C 
ATOM     31  C   UNL     1       0.674   2.593 -20.047  0.00  0.00    +0.000 C 
ATOM     32  C   UNL     1       1.722   0.505 -20.597  0.00  0.00    +0.000 C 
ATOM     33  C   UNL     1       0.770   4.078 -20.379  0.00  0.00    +0.000 C 
BRANCH  28  34
ATOM     34  O   UNL     1      -2.033   0.012 -20.414  0.00  0.00    +0.000 OA
ATOM     35  H   UNL     1      -2.498  -0.135 -19.564  0.00  0.00    +0.000 HD
ENDBRANCH  28  34
BRANCH  29  36
ATOM     36  O   UNL     1      -1.717   2.676 -19.508  0.00  0.00    +0.000 OA
ATOM     37  H   UNL     1      -2.563   2.247 -19.744  0.00  0.00    +0.000 HD
ENDBRANCH  29  36
BRANCH  30  38
ATOM     38  O   UNL     1      -0.029  -0.165 -22.221  0.00  0.00    +0.000 OA
ATOM     39  H   UNL     1      -0.160  -1.091 -22.497  0.00  0.00    +0.000 HD
ENDBRANCH  30  38
ENDBRANCH  26  32
ENDBRANCH   3  26
TORSDOF 10
ENDMDL
MODEL 8
REMARK VINA RESULT:      -6.1      7.509     12.652
REMARK  Name = 
REMARK  11 active torsions:
REMARK  status: ('A' for Active; 'I' for Inactive)
REMARK    1  A    between atoms: O_2  and  C_16
REMARK    2  A    between atoms: O_2  and  C_18
REMARK    3  A    between atoms: O_3  and  C_12
REMARK    4  A    between atoms: O_4  and  C_13
REMARK    5  A    between atoms: O_5  and  C_14
REMARK    6  A    between atoms: O_8  and  C_24
REMARK    7  A    between atoms: O_9  and  C_29
REMARK    8  A    between atoms: O_10  and  C_30
REMARK    9  A    between atoms: O_11  and  C_32
REMARK   10  A    between atoms: C_15  and  C_17
REMARK   11  A    between atoms: C_19  and  C_23
REMARK                            x       y       z     vdW  Elec       q    Type
REMARK                         _______ _______ _______ _____ _____    ______ ____
ROOT
ATOM      1  O   UNL     1      13.075   0.623 -21.393  0.00  0.00    +0.000 OA
ATOM      2  O   UNL     1       9.928   0.985 -23.929  0.00  0.00    +0.000 OA
ATOM      3  C   UNL     1      10.684   0.557 -21.733  0.00  0.00    +0.000 A 
ATOM      4  C   UNL     1      11.771   0.558 -20.937  0.00  0.00    +0.000 A 
ATOM      5  C   UNL     1      10.883   0.752 -23.199  0.00  0.00    +0.000 A 
ATOM      6  C   UNL     1      12.277   0.684 -23.693  0.00  0.00    +0.000 A 
ATOM      7  C   UNL     1      13.299   0.634 -22.745  0.00  0.00    +0.000 A 
ATOM      8  C   UNL     1      12.612   0.682 -25.055  0.00  0.00    +0.000 A 
ATOM      9  C   UNL     1      14.637   0.594 -23.142  0.00  0.00    +0.000 A 
ATOM     10  C   UNL     1      13.951   0.639 -25.459  0.00  0.00    +0.000 A 
ATOM     11  C   UNL     1      14.952   0.598 -24.494  0.00  0.00    +0.000 A 
ENDROOT
BRANCH   4  12
ATOM     12  C   UNL     1      11.686   0.459 -19.465  0.00  0.00    +0.000 A 
ATOM     13  C   UNL     1      11.403  -0.782 -18.867  0.00  0.00    +0.000 A 
ATOM     14  C   UNL     1      11.889   1.584 -18.645  0.00  0.00    +0.000 A 
ATOM     15  C   UNL     1      11.302  -0.873 -17.484  0.00  0.00    +0.000 A 
ATOM     16  C   UNL     1      11.783   1.483 -17.256  0.00  0.00    +0.000 A 
ATOM     17  C   UNL     1      11.486   0.254 -16.689  0.00  0.00    +0.000 A 
BRANCH  15  18
ATOM     18  O   UNL     1      11.020  -2.055 -16.855  0.00  0.00    +0.000 OA
ATOM     19  H   UNL     1      10.901  -1.877 -15.906  0.00  0.00    +0.000 HD
ENDBRANCH  15  18
BRANCH  17  20
ATOM     20  O   UNL     1      11.377   0.157 -15.332  0.00  0.00    +0.000 OA
ATOM     21  H   UNL     1      12.211  -0.266 -15.043  0.00  0.00    +0.000 HD
ENDBRANCH  17  20
ENDBRANCH   4  12
BRANCH   8  22
ATOM     22  O   UNL     1      11.640   0.699 -26.013  0.00  0.00    +0.000 OA
ATOM     23  H   UNL     1      11.984   1.036 -26.855  0.00  0.00    +0.000 HD
ENDBRANCH   8  22
BRANCH  11  24
ATOM     24  O   UNL     1      16.270   0.556 -24.835  0.00  0.00    +0.000 OA
ATOM     25  H   UNL     1      16.567   1.444 -25.095  0.00  0.00    +0.000 HD
ENDBRANCH  11  24
BRANCH   3  26
ATOM     26  O   UNL     1       9.381   0.490 -21.262  0.00  0.00    +0.000 OA
BRANCH  26  32
ATOM     27  O   UNL     1       8.918   2.712 -20.499  0.00  0.00    +0.000 OA
ATOM     28  C   UNL     1       6.555   1.076 -20.271  0.00  0.00    +0.000 C 
ATOM     29  C   UNL     1       6.886   2.168 -19.248  0.00  0.00    +0.000 C 
ATOM     30  C   UNL     1       7.164   1.400 -21.636  0.00  0.00    +0.000 C 
ATOM     31  C   UNL     1       8.404   2.373 -19.201  0.00  0.00    +0.000 C 
ATOM     32  C   UNL     1       8.670   1.715 -21.494  0.00  0.00    +0.000 C 
ATOM     33  C   UNL     1       8.790   3.502 -18.252  0.00  0.00    +0.000 C 
BRANCH  28  34
ATOM     34  O   UNL     1       5.122   0.974 -20.383  0.00  0.00    +0.000 OA
ATOM     35  H   UNL     1       4.918   0.045 -20.145  0.00  0.00    +0.000 HD
ENDBRANCH  28  34
BRANCH  29  36
ATOM     36  O   UNL     1       6.366   1.784 -17.972  0.00  0.00    +0.000 OA
ATOM     37  H   UNL     1       7.078   1.980 -17.331  0.00  0.00    +0.000 HD
ENDBRANCH  29  36
BRANCH  30  38
ATOM     38  O   UNL     1       6.425   2.513 -22.184  0.00  0.00    +0.000 OA
ATOM     39  H   UNL     1       7.076   3.170 -22.493  0.00  0.00    +0.000 HD
ENDBRANCH  30  38
ENDBRANCH  26  32
ENDBRANCH   3  26
TORSDOF 10
ENDMDL
MODEL 9
REMARK VINA RESULT:      -6.0      6.603     12.312
REMARK  Name = 
REMARK  11 active torsions:
REMARK  status: ('A' for Active; 'I' for Inactive)
REMARK    1  A    between atoms: O_2  and  C_16
REMARK    2  A    between atoms: O_2  and  C_18
REMARK    3  A    between atoms: O_3  and  C_12
REMARK    4  A    between atoms: O_4  and  C_13
REMARK    5  A    between atoms: O_5  and  C_14
REMARK    6  A    between atoms: O_8  and  C_24
REMARK    7  A    between atoms: O_9  and  C_29
REMARK    8  A    between atoms: O_10  and  C_30
REMARK    9  A    between atoms: O_11  and  C_32
REMARK   10  A    between atoms: C_15  and  C_17
REMARK   11  A    between atoms: C_19  and  C_23
REMARK                            x       y       z     vdW  Elec       q    Type
REMARK                         _______ _______ _______ _____ _____    ______ ____
ROOT
ATOM      1  O   UNL     1      12.557   1.288 -20.528  0.00  0.00    +0.000 OA
ATOM      2  O   UNL     1       9.510   1.520 -23.197  0.00  0.00    +0.000 OA
ATOM      3  C   UNL     1      10.177   1.308 -20.942  0.00  0.00    +0.000 A 
ATOM      4  C   UNL     1      11.240   1.345 -20.113  0.00  0.00    +0.000 A 
ATOM      5  C   UNL     1      10.429   1.322 -22.412  0.00  0.00    +0.000 A 
ATOM      6  C   UNL     1      11.831   1.125 -22.846  0.00  0.00    +0.000 A 
ATOM      7  C   UNL     1      12.821   1.132 -21.863  0.00  0.00    +0.000 A 
ATOM      8  C   UNL     1      12.205   0.949 -24.186  0.00  0.00    +0.000 A 
ATOM      9  C   UNL     1      14.166   0.977 -22.206  0.00  0.00    +0.000 A 
ATOM     10  C   UNL     1      13.550   0.791 -24.536  0.00  0.00    +0.000 A 
ATOM     11  C   UNL     1      14.519   0.809 -23.538  0.00  0.00    +0.000 A 
ENDROOT
BRANCH   4  12
ATOM     12  C   UNL     1      11.106   1.420 -18.643  0.00  0.00    +0.000 A 
ATOM     13  C   UNL     1      11.229   0.250 -17.873  0.00  0.00    +0.000 A 
ATOM     14  C   UNL     1      10.864   2.644 -17.994  0.00  0.00    +0.000 A 
ATOM     15  C   UNL     1      11.084   0.316 -16.492  0.00  0.00    +0.000 A 
ATOM     16  C   UNL     1      10.716   2.700 -16.606  0.00  0.00    +0.000 A 
ATOM     17  C   UNL     1      10.824   1.532 -15.869  0.00  0.00    +0.000 A 
BRANCH  15  18
ATOM     18  O   UNL     1      11.185  -0.795 -15.700  0.00  0.00    +0.000 OA
ATOM     19  H   UNL     1      10.631  -1.497 -16.083  0.00  0.00    +0.000 HD
ENDBRANCH  15  18
BRANCH  17  20
ATOM     20  O   UNL     1      10.674   1.586 -14.513  0.00  0.00    +0.000 OA
ATOM     21  H   UNL     1      10.950   0.703 -14.196  0.00  0.00    +0.000 HD
ENDBRANCH  17  20
ENDBRANCH   4  12
BRANCH   8  22
ATOM     22  O   UNL     1      11.263   0.907 -25.174  0.00  0.00    +0.000 OA
ATOM     23  H   UNL     1      11.594   0.436 -25.954  0.00  0.00    +0.000 HD
ENDBRANCH   8  22
BRANCH  11  24
ATOM     24  O   UNL     1      15.843   0.659 -23.825  0.00  0.00    +0.000 OA
ATOM     25  H   UNL     1      16.169  -0.165 -23.428  0.00  0.00    +0.000 HD
ENDBRANCH  11  24
BRANCH   3  26
ATOM     26  O   UNL     1       8.860   1.364 -20.513  0.00  0.00    +0.000 OA
BRANCH  26  32
ATOM     27  O   UNL     1       7.553  -0.237 -21.725  0.00  0.00    +0.000 OA
ATOM     28  C   UNL     1       6.053   0.764 -19.475  0.00  0.00    +0.000 C 
ATOM     29  C   UNL     1       5.379   0.413 -20.806  0.00  0.00    +0.000 C 
ATOM     30  C   UNL     1       7.329  -0.054 -19.274  0.00  0.00    +0.000 C 
ATOM     31  C   UNL     1       6.393   0.580 -21.944  0.00  0.00    +0.000 C 
ATOM     32  C   UNL     1       8.248   0.065 -20.511  0.00  0.00    +0.000 C 
ATOM     33  C   UNL     1       5.800   0.174 -23.289  0.00  0.00    +0.000 C 
BRANCH  28  34
ATOM     34  O   UNL     1       5.123   0.495 -18.408  0.00  0.00    +0.000 OA
ATOM     35  H   UNL     1       5.632  -0.034 -17.759  0.00  0.00    +0.000 HD
ENDBRANCH  28  34
BRANCH  29  36
ATOM     36  O   UNL     1       4.238   1.257 -20.988  0.00  0.00    +0.000 OA
ATOM     37  H   UNL     1       4.599   2.142 -21.195  0.00  0.00    +0.000 HD
ENDBRANCH  29  36
BRANCH  30  38
ATOM     38  O   UNL     1       6.932  -1.419 -19.021  0.00  0.00    +0.000 OA
ATOM     39  H   UNL     1       7.747  -1.945 -18.924  0.00  0.00    +0.000 HD
ENDBRANCH  30  38
ENDBRANCH  26  32
ENDBRANCH   3  26
TORSDOF 10
ENDMDL
