MODEL 1
REMARK VINA RESULT:      -6.5      0.000      0.000
REMARK  Name = 
REMARK  14 active torsions:
REMARK  status: ('A' for Active; 'I' for Inactive)
REMARK    1  A    between atoms: O_1  and  C_24
REMARK    2  A    between atoms: O_1  and  C_36
REMARK    3  A    between atoms: O_4  and  C_30
REMARK    4  A    between atoms: O_4  and  C_37
REMARK    5  A    between atoms: O_7  and  C_33
REMARK    6  A    between atoms: O_7  and  C_38
REMARK    7  A    between atoms: N_10  and  C_23
REMARK    8  A    between atoms: C_15  and  C_26
REMARK    9  A    between atoms: C_16  and  C_24
REMARK   10  A    between atoms: C_31  and  C_34
REMARK   11  A    between atoms: C_32  and  C_35
REMARK   12  A    between atoms: C_36  and  C_39
REMARK   13  A    between atoms: C_39  and  C_40
REMARK   14  A    between atoms: C_41  and  C_42
REMARK                            x       y       z     vdW  Elec       q    Type
REMARK                         _______ _______ _______ _____ _____    ______ ____
ROOT
ATOM      1  O   UNL     1       1.587  -2.999 -18.245  0.00  0.00    +0.000 OA
ATOM      2  O   UNL     1       3.744  -1.334 -22.811  0.00  0.00    +0.000 OA
ATOM      3  O   UNL     1      -3.067  -2.917 -17.968  0.00  0.00    +0.000 OA
ATOM      4  O   UNL     1      -4.510   1.072 -21.174  0.00  0.00    +0.000 OA
ATOM      5  N   UNL     1      -0.345   0.611 -20.400  0.00  0.00    +0.000 NA
ATOM      6  N   UNL     1       2.046   1.092 -18.764  0.00  0.00    +0.000 NA
ATOM      7  C   UNL     1      -0.163   0.005 -19.056  0.00  0.00    +0.000 C 
ATOM      8  C   UNL     1       1.371  -0.237 -18.724  0.00  0.00    +0.000 C 
ATOM      9  C   UNL     1       1.985   1.616 -20.153  0.00  0.00    +0.000 C 
ATOM     10  C   UNL     1       0.483   1.848 -20.567  0.00  0.00    +0.000 C 
ATOM     11  C   UNL     1      -1.751   0.768 -20.867  0.00  0.00    +0.000 C 
ATOM     12  C   UNL     1      -0.977  -1.300 -18.927  0.00  0.00    +0.000 C 
ATOM     13  C   UNL     1       2.700   0.679 -21.165  0.00  0.00    +0.000 C 
ATOM     14  C   UNL     1       2.007  -1.212 -19.704  0.00  0.00    +0.000 C 
ATOM     15  C   UNL     1       2.595  -0.788 -20.832  0.00  0.00    +0.000 C 
ATOM     16  C   UNL     1      -2.758  -0.145 -20.186  0.00  0.00    +0.000 C 
ATOM     17  C   UNL     1      -2.410  -1.105 -19.321  0.00  0.00    +0.000 C 
ATOM     18  C   UNL     1       3.387   1.085 -18.188  0.00  0.00    +0.000 C 
ATOM     19  C   UNL     1       2.010  -2.648 -19.342  0.00  0.00    +0.000 C 
ATOM     20  C   UNL     1       3.202  -1.738 -21.788  0.00  0.00    +0.000 C 
ATOM     21  C   UNL     1      -3.412  -2.010 -18.717  0.00  0.00    +0.000 C 
ATOM     22  C   UNL     1      -4.192   0.107 -20.486  0.00  0.00    +0.000 C 
ATOM     23  C   UNL     1       2.539  -3.627 -20.348  0.00  0.00    +0.000 C 
ATOM     24  C   UNL     1       3.115  -3.189 -21.479  0.00  0.00    +0.000 C 
ATOM     25  C   UNL     1      -4.839  -1.810 -19.073  0.00  0.00    +0.000 C 
ATOM     26  C   UNL     1      -5.212  -0.834 -19.916  0.00  0.00    +0.000 C 
ATOM     27  C   UNL     1       3.720  -4.091 -22.516  0.00  0.00    +0.000 C 
ATOM     28  C   UNL     1      -5.793  -2.772 -18.426  0.00  0.00    +0.000 C 
ENDROOT
BRANCH  23  29
ATOM     29  O   UNL     1       2.499  -4.994 -20.101  0.00  0.00    +0.000 OA
ATOM     30  C   UNL     1       1.226  -5.612 -20.269  0.00  0.00    +0.000 C 
ENDBRANCH  23  29
BRANCH  26  31
ATOM     31  O   UNL     1      -6.563  -0.671 -20.201  0.00  0.00    +0.000 OA
ATOM     32  C   UNL     1      -6.994  -1.249 -21.432  0.00  0.00    +0.000 C 
ENDBRANCH  26  31
BRANCH  10  34
ATOM     33  N   UNL     1      -0.403   3.989 -19.276  0.00  0.00    +0.000 NA
ATOM     34  C   UNL     1      -0.033   3.041 -19.835  0.00  0.00    +0.000 C 
ENDBRANCH  10  34
BRANCH  11  35
ATOM     35  C   UNL     1      -1.764   0.521 -22.405  0.00  0.00    +0.000 C 
BRANCH  35  36
ATOM     36  O   UNL     1      -0.760  -0.462 -22.735  0.00  0.00    +0.000 OA
BRANCH  36  38
ATOM     37  O   UNL     1      -0.956  -1.511 -24.761  0.00  0.00    +0.000 OA
ATOM     38  C   UNL     1      -1.179  -1.447 -23.563  0.00  0.00    +0.000 C 
BRANCH  38  39
ATOM     39  C   UNL     1      -1.846  -2.535 -22.792  0.00  0.00    +0.000 C 
ATOM     40  C   UNL     1      -0.886  -3.366 -21.988  0.00  0.00    +0.000 C 
ATOM     41  C   UNL     1      -3.170  -2.787 -22.801  0.00  0.00    +0.000 C 
ATOM     42  C   UNL     1      -4.235  -2.125 -23.616  0.00  0.00    +0.000 C 
ENDBRANCH  38  39
ENDBRANCH  36  38
ENDBRANCH  35  36
ENDBRANCH  11  35
TORSDOF 7
ENDMDL
MODEL 2
REMARK VINA RESULT:      -6.1      8.892     12.754
REMARK  Name = 
REMARK  14 active torsions:
REMARK  status: ('A' for Active; 'I' for Inactive)
REMARK    1  A    between atoms: O_1  and  C_24
REMARK    2  A    between atoms: O_1  and  C_36
REMARK    3  A    between atoms: O_4  and  C_30
REMARK    4  A    between atoms: O_4  and  C_37
REMARK    5  A    between atoms: O_7  and  C_33
REMARK    6  A    between atoms: O_7  and  C_38
REMARK    7  A    between atoms: N_10  and  C_23
REMARK    8  A    between atoms: C_15  and  C_26
REMARK    9  A    between atoms: C_16  and  C_24
REMARK   10  A    between atoms: C_31  and  C_34
REMARK   11  A    between atoms: C_32  and  C_35
REMARK   12  A    between atoms: C_36  and  C_39
REMARK   13  A    between atoms: C_39  and  C_40
REMARK   14  A    between atoms: C_41  and  C_42
REMARK                            x       y       z     vdW  Elec       q    Type
REMARK                         _______ _______ _______ _____ _____    ______ ____
ROOT
ATOM      1  O   UNL     1       9.316  -1.877 -18.903  0.00  0.00    +0.000 OA
ATOM      2  O   UNL     1      10.666   2.982 -17.221  0.00  0.00    +0.000 OA
ATOM      3  O   UNL     1      10.786  -3.112 -23.153  0.00  0.00    +0.000 OA
ATOM      4  O   UNL     1      11.082   1.471 -25.831  0.00  0.00    +0.000 OA
ATOM      5  N   UNL     1       9.295   1.593 -21.965  0.00  0.00    +0.000 NA
ATOM      6  N   UNL     1       6.980   1.307 -20.180  0.00  0.00    +0.000 NA
ATOM      7  C   UNL     1       8.669   0.277 -21.676  0.00  0.00    +0.000 C 
ATOM      8  C   UNL     1       8.021   0.240 -20.226  0.00  0.00    +0.000 C 
ATOM      9  C   UNL     1       7.644   2.628 -20.321  0.00  0.00    +0.000 C 
ATOM     10  C   UNL     1       8.342   2.724 -21.729  0.00  0.00    +0.000 C 
ATOM     11  C   UNL     1      10.040   1.699 -23.250  0.00  0.00    +0.000 C 
ATOM     12  C   UNL     1       9.685  -0.869 -21.866  0.00  0.00    +0.000 C 
ATOM     13  C   UNL     1       8.663   2.897 -19.179  0.00  0.00    +0.000 C 
ATOM     14  C   UNL     1       9.071   0.442 -19.142  0.00  0.00    +0.000 C 
ATOM     15  C   UNL     1       9.376   1.665 -18.682  0.00  0.00    +0.000 C 
ATOM     16  C   UNL     1      10.502   0.374 -23.835  0.00  0.00    +0.000 C 
ATOM     17  C   UNL     1      10.365  -0.796 -23.199  0.00  0.00    +0.000 C 
ATOM     18  C   UNL     1       6.090   1.206 -19.027  0.00  0.00    +0.000 C 
ATOM     19  C   UNL     1       9.705  -0.765 -18.564  0.00  0.00    +0.000 C 
ATOM     20  C   UNL     1      10.404   1.859 -17.638  0.00  0.00    +0.000 C 
ATOM     21  C   UNL     1      10.874  -2.060 -23.775  0.00  0.00    +0.000 C 
ATOM     22  C   UNL     1      11.083   0.418 -25.203  0.00  0.00    +0.000 C 
ATOM     23  C   UNL     1      10.814  -0.571 -17.573  0.00  0.00    +0.000 C 
ATOM     24  C   UNL     1      11.118   0.659 -17.129  0.00  0.00    +0.000 C 
ATOM     25  C   UNL     1      11.523  -2.009 -25.109  0.00  0.00    +0.000 C 
ATOM     26  C   UNL     1      11.644  -0.850 -25.776  0.00  0.00    +0.000 C 
ATOM     27  C   UNL     1      12.173   0.943 -16.099  0.00  0.00    +0.000 C 
ATOM     28  C   UNL     1      12.019  -3.330 -25.622  0.00  0.00    +0.000 C 
ENDROOT
BRANCH  23  29
ATOM     29  O   UNL     1      11.501  -1.661 -17.051  0.00  0.00    +0.000 OA
ATOM     30  C   UNL     1      12.316  -2.374 -17.979  0.00  0.00    +0.000 C 
ENDBRANCH  23  29
BRANCH  26  31
ATOM     31  O   UNL     1      12.239  -0.856 -27.033  0.00  0.00    +0.000 OA
ATOM     32  C   UNL     1      11.329  -0.913 -28.131  0.00  0.00    +0.000 C 
ENDBRANCH  26  31
BRANCH  10  34
ATOM     33  N   UNL     1       6.439   2.989 -23.558  0.00  0.00    +0.000 NA
ATOM     34  C   UNL     1       7.286   2.871 -22.773  0.00  0.00    +0.000 C 
ENDBRANCH  10  34
BRANCH  11  35
ATOM     35  C   UNL     1      11.266   2.628 -23.005  0.00  0.00    +0.000 C 
BRANCH  35  36
ATOM     36  O   UNL     1      12.013   2.137 -21.872  0.00  0.00    +0.000 OA
BRANCH  36  38
ATOM     37  O   UNL     1      14.190   2.628 -22.386  0.00  0.00    +0.000 OA
ATOM     38  C   UNL     1      13.305   1.828 -22.133  0.00  0.00    +0.000 C 
BRANCH  38  39
ATOM     39  C   UNL     1      13.546   0.369 -21.938  0.00  0.00    +0.000 C 
ATOM     40  C   UNL     1      13.028  -0.148 -20.625  0.00  0.00    +0.000 C 
ATOM     41  C   UNL     1      14.174  -0.433 -22.819  0.00  0.00    +0.000 C 
ATOM     42  C   UNL     1      14.831  -0.060 -24.111  0.00  0.00    +0.000 C 
ENDBRANCH  38  39
ENDBRANCH  36  38
ENDBRANCH  35  36
ENDBRANCH  11  35
TORSDOF 7
ENDMDL
MODEL 3
REMARK VINA RESULT:      -6.0      6.822     10.291
REMARK  Name = 
REMARK  14 active torsions:
REMARK  status: ('A' for Active; 'I' for Inactive)
REMARK    1  A    between atoms: O_1  and  C_24
REMARK    2  A    between atoms: O_1  and  C_36
REMARK    3  A    between atoms: O_4  and  C_30
REMARK    4  A    between atoms: O_4  and  C_37
REMARK    5  A    between atoms: O_7  and  C_33
REMARK    6  A    between atoms: O_7  and  C_38
REMARK    7  A    between atoms: N_10  and  C_23
REMARK    8  A    between atoms: C_15  and  C_26
REMARK    9  A    between atoms: C_16  and  C_24
REMARK   10  A    between atoms: C_31  and  C_34
REMARK   11  A    between atoms: C_32  and  C_35
REMARK   12  A    between atoms: C_36  and  C_39
REMARK   13  A    between atoms: C_39  and  C_40
REMARK   14  A    between atoms: C_41  and  C_42
REMARK                            x       y       z     vdW  Elec       q    Type
REMARK                         _______ _______ _______ _____ _____    ______ ____
ROOT
ATOM      1  O   UNL     1     -10.041  -5.194 -22.575  0.00  0.00    +0.000 OA
ATOM      2  O   UNL     1      -5.642  -2.780 -20.817  0.00  0.00    +0.000 OA
ATOM      3  O   UNL     1     -13.309  -2.471 -24.486  0.00  0.00    +0.000 OA
ATOM      4  O   UNL     1     -12.729   2.209 -22.031  0.00  0.00    +0.000 OA
ATOM      5  N   UNL     1     -10.469  -1.071 -20.518  0.00  0.00    +0.000 NA
ATOM      6  N   UNL     1     -10.190  -3.446 -18.814  0.00  0.00    +0.000 NA
ATOM      7  C   UNL     1     -11.206  -2.334 -20.784  0.00  0.00    +0.000 C 
ATOM      8  C   UNL     1     -10.393  -3.604 -20.283  0.00  0.00    +0.000 C 
ATOM      9  C   UNL     1      -9.326  -2.262 -18.575  0.00  0.00    +0.000 C 
ATOM     10  C   UNL     1     -10.055  -0.962 -19.082  0.00  0.00    +0.000 C 
ATOM     11  C   UNL     1     -11.083   0.175 -21.057  0.00  0.00    +0.000 C 
ATOM     12  C   UNL     1     -11.569  -2.454 -22.279  0.00  0.00    +0.000 C 
ATOM     13  C   UNL     1      -7.931  -2.411 -19.243  0.00  0.00    +0.000 C 
ATOM     14  C   UNL     1      -9.066  -3.740 -21.015  0.00  0.00    +0.000 C 
ATOM     15  C   UNL     1      -7.945  -3.172 -20.545  0.00  0.00    +0.000 C 
ATOM     16  C   UNL     1     -12.054  -0.035 -22.209  0.00  0.00    +0.000 C 
ATOM     17  C   UNL     1     -12.260  -1.225 -22.785  0.00  0.00    +0.000 C 
ATOM     18  C   UNL     1      -9.729  -4.664 -18.154  0.00  0.00    +0.000 C 
ATOM     19  C   UNL     1      -9.037  -4.575 -22.237  0.00  0.00    +0.000 C 
ATOM     20  C   UNL     1      -6.660  -3.297 -21.264  0.00  0.00    +0.000 C 
ATOM     21  C   UNL     1     -13.174  -1.383 -23.938  0.00  0.00    +0.000 C 
ATOM     22  C   UNL     1     -12.826   1.155 -22.651  0.00  0.00    +0.000 C 
ATOM     23  C   UNL     1      -7.760  -4.629 -23.023  0.00  0.00    +0.000 C 
ATOM     24  C   UNL     1      -6.647  -4.047 -22.547  0.00  0.00    +0.000 C 
ATOM     25  C   UNL     1     -13.890  -0.181 -24.432  0.00  0.00    +0.000 C 
ATOM     26  C   UNL     1     -13.718   1.016 -23.849  0.00  0.00    +0.000 C 
ATOM     27  C   UNL     1      -5.314  -4.096 -23.236  0.00  0.00    +0.000 C 
ATOM     28  C   UNL     1     -14.792  -0.421 -25.609  0.00  0.00    +0.000 C 
ENDROOT
BRANCH  23  29
ATOM     29  O   UNL     1      -7.689  -5.333 -24.220  0.00  0.00    +0.000 OA
ATOM     30  C   UNL     1      -8.018  -4.588 -25.390  0.00  0.00    +0.000 C 
ENDBRANCH  23  29
BRANCH  26  31
ATOM     31  O   UNL     1     -14.430   2.109 -24.333  0.00  0.00    +0.000 OA
ATOM     32  C   UNL     1     -15.632   2.407 -23.626  0.00  0.00    +0.000 C 
ENDBRANCH  26  31
BRANCH  10  34
ATOM     33  N   UNL     1     -12.049  -0.373 -17.434  0.00  0.00    +0.000 NA
ATOM     34  C   UNL     1     -11.167  -0.643 -18.140  0.00  0.00    +0.000 C 
ENDBRANCH  10  34
BRANCH  11  35
ATOM     35  C   UNL     1      -9.922   1.112 -21.505  0.00  0.00    +0.000 C 
BRANCH  35  36
ATOM     36  O   UNL     1      -9.314   0.576 -22.699  0.00  0.00    +0.000 OA
BRANCH  36  38
ATOM     37  O   UNL     1      -7.379   0.227 -21.523  0.00  0.00    +0.000 OA
ATOM     38  C   UNL     1      -8.047   0.128 -22.540  0.00  0.00    +0.000 C 
BRANCH  38  39
ATOM     39  C   UNL     1      -7.605  -0.635 -23.742  0.00  0.00    +0.000 C 
ATOM     40  C   UNL     1      -8.732  -1.333 -24.450  0.00  0.00    +0.000 C 
ATOM     41  C   UNL     1      -6.331  -0.727 -24.173  0.00  0.00    +0.000 C 
ATOM     42  C   UNL     1      -5.093  -0.183 -23.532  0.00  0.00    +0.000 C 
ENDBRANCH  38  39
ENDBRANCH  36  38
ENDBRANCH  35  36
ENDBRANCH  11  35
TORSDOF 7
ENDMDL
MODEL 4
REMARK VINA RESULT:      -5.7      2.386      6.886
REMARK  Name = 
REMARK  14 active torsions:
REMARK  status: ('A' for Active; 'I' for Inactive)
REMARK    1  A    between atoms: O_1  and  C_24
REMARK    2  A    between atoms: O_1  and  C_36
REMARK    3  A    between atoms: O_4  and  C_30
REMARK    4  A    between atoms: O_4  and  C_37
REMARK    5  A    between atoms: O_7  and  C_33
REMARK    6  A    between atoms: O_7  and  C_38
REMARK    7  A    between atoms: N_10  and  C_23
REMARK    8  A    between atoms: C_15  and  C_26
REMARK    9  A    between atoms: C_16  and  C_24
REMARK   10  A    between atoms: C_31  and  C_34
REMARK   11  A    between atoms: C_32  and  C_35
REMARK   12  A    between atoms: C_36  and  C_39
REMARK   13  A    between atoms: C_39  and  C_40
REMARK   14  A    between atoms: C_41  and  C_42
REMARK                            x       y       z     vdW  Elec       q    Type
REMARK                         _______ _______ _______ _____ _____    ______ ____
ROOT
ATOM      1  O   UNL     1      -3.893  -0.932 -24.522  0.00  0.00    +0.000 OA
ATOM      2  O   UNL     1      -6.734   2.536 -21.663  0.00  0.00    +0.000 OA
ATOM      3  O   UNL     1      -0.609  -3.337 -22.246  0.00  0.00    +0.000 OA
ATOM      4  O   UNL     1       0.908  -0.100 -18.310  0.00  0.00    +0.000 OA
ATOM      5  N   UNL     1      -1.724   1.514 -21.246  0.00  0.00    +0.000 NA
ATOM      6  N   UNL     1      -2.223   2.804 -23.837  0.00  0.00    +0.000 NA
ATOM      7  C   UNL     1      -1.495   0.820 -22.540  0.00  0.00    +0.000 C 
ATOM      8  C   UNL     1      -2.480   1.345 -23.670  0.00  0.00    +0.000 C 
ATOM      9  C   UNL     1      -2.600   3.502 -22.581  0.00  0.00    +0.000 C 
ATOM     10  C   UNL     1      -1.684   3.003 -21.401  0.00  0.00    +0.000 C 
ATOM     11  C   UNL     1      -0.939   1.014 -20.083  0.00  0.00    +0.000 C 
ATOM     12  C   UNL     1      -1.602  -0.710 -22.370  0.00  0.00    +0.000 C 
ATOM     13  C   UNL     1      -4.102   3.312 -22.233  0.00  0.00    +0.000 C 
ATOM     14  C   UNL     1      -3.935   1.076 -23.311  0.00  0.00    +0.000 C 
ATOM     15  C   UNL     1      -4.666   1.972 -22.633  0.00  0.00    +0.000 C 
ATOM     16  C   UNL     1      -0.423  -0.410 -20.222  0.00  0.00    +0.000 C 
ATOM     17  C   UNL     1      -0.741  -1.208 -21.249  0.00  0.00    +0.000 C 
ATOM     18  C   UNL     1      -2.827   3.372 -25.038  0.00  0.00    +0.000 C 
ATOM     19  C   UNL     1      -4.539  -0.189 -23.790  0.00  0.00    +0.000 C 
ATOM     20  C   UNL     1      -6.075   1.703 -22.276  0.00  0.00    +0.000 C 
ATOM     21  C   UNL     1      -0.263  -2.606 -21.325  0.00  0.00    +0.000 C 
ATOM     22  C   UNL     1       0.518  -0.881 -19.172  0.00  0.00    +0.000 C 
ATOM     23  C   UNL     1      -5.937  -0.511 -23.352  0.00  0.00    +0.000 C 
ATOM     24  C   UNL     1      -6.655   0.391 -22.664  0.00  0.00    +0.000 C 
ATOM     25  C   UNL     1       0.616  -3.104 -20.239  0.00  0.00    +0.000 C 
ATOM     26  C   UNL     1       0.970  -2.310 -19.215  0.00  0.00    +0.000 C 
ATOM     27  C   UNL     1      -8.077   0.178 -22.232  0.00  0.00    +0.000 C 
ATOM     28  C   UNL     1       1.053  -4.533 -20.384  0.00  0.00    +0.000 C 
ENDROOT
BRANCH  23  29
ATOM     29  O   UNL     1      -6.533  -1.716 -23.704  0.00  0.00    +0.000 OA
ATOM     30  C   UNL     1      -6.212  -2.826 -22.870  0.00  0.00    +0.000 C 
ENDBRANCH  23  29
BRANCH  26  31
ATOM     31  O   UNL     1       1.815  -2.816 -18.232  0.00  0.00    +0.000 OA
ATOM     32  C   UNL     1       3.171  -2.385 -18.323  0.00  0.00    +0.000 C 
ENDBRANCH  26  31
BRANCH  10  34
ATOM     33  N   UNL     1       0.733   4.039 -21.752  0.00  0.00    +0.000 NA
ATOM     34  C   UNL     1      -0.316   3.568 -21.590  0.00  0.00    +0.000 C 
ENDBRANCH  10  34
BRANCH  11  35
ATOM     35  C   UNL     1      -1.846   1.129 -18.822  0.00  0.00    +0.000 C 
BRANCH  35  36
ATOM     36  O   UNL     1      -3.098   0.458 -19.076  0.00  0.00    +0.000 OA
BRANCH  36  38
ATOM     37  O   UNL     1      -3.814   0.117 -16.927  0.00  0.00    +0.000 OA
ATOM     38  C   UNL     1      -3.560  -0.292 -18.048  0.00  0.00    +0.000 C 
BRANCH  38  39
ATOM     39  C   UNL     1      -3.852  -1.682 -18.502  0.00  0.00    +0.000 C 
ATOM     40  C   UNL     1      -2.703  -2.629 -18.294  0.00  0.00    +0.000 C 
ATOM     41  C   UNL     1      -5.011  -2.084 -19.061  0.00  0.00    +0.000 C 
ATOM     42  C   UNL     1      -6.201  -1.255 -19.427  0.00  0.00    +0.000 C 
ENDBRANCH  38  39
ENDBRANCH  36  38
ENDBRANCH  35  36
ENDBRANCH  11  35
TORSDOF 7
ENDMDL
MODEL 5
REMARK VINA RESULT:      -5.7      4.794      9.735
REMARK  Name = 
REMARK  14 active torsions:
REMARK  status: ('A' for Active; 'I' for Inactive)
REMARK    1  A    between atoms: O_1  and  C_24
REMARK    2  A    between atoms: O_1  and  C_36
REMARK    3  A    between atoms: O_4  and  C_30
REMARK    4  A    between atoms: O_4  and  C_37
REMARK    5  A    between atoms: O_7  and  C_33
REMARK    6  A    between atoms: O_7  and  C_38
REMARK    7  A    between atoms: N_10  and  C_23
REMARK    8  A    between atoms: C_15  and  C_26
REMARK    9  A    between atoms: C_16  and  C_24
REMARK   10  A    between atoms: C_31  and  C_34
REMARK   11  A    between atoms: C_32  and  C_35
REMARK   12  A    between atoms: C_36  and  C_39
REMARK   13  A    between atoms: C_39  and  C_40
REMARK   14  A    between atoms: C_41  and  C_42
REMARK                            x       y       z     vdW  Elec       q    Type
REMARK                         _______ _______ _______ _____ _____    ______ ____
ROOT
ATOM      1  O   UNL     1     -10.365  -3.885 -21.321  0.00  0.00    +0.000 OA
ATOM      2  O   UNL     1     -10.567   0.523 -18.355  0.00  0.00    +0.000 OA
ATOM      3  O   UNL     1      -6.284  -4.862 -23.355  0.00  0.00    +0.000 OA
ATOM      4  O   UNL     1      -4.028  -0.111 -24.137  0.00  0.00    +0.000 OA
ATOM      5  N   UNL     1      -8.069  -0.144 -22.785  0.00  0.00    +0.000 NA
ATOM      6  N   UNL     1     -10.959  -0.280 -23.289  0.00  0.00    +0.000 NA
ATOM      7  C   UNL     1      -8.736  -1.379 -23.273  0.00  0.00    +0.000 C 
ATOM      8  C   UNL     1     -10.237  -1.475 -22.764  0.00  0.00    +0.000 C 
ATOM      9  C   UNL     1     -10.374   0.939 -22.675  0.00  0.00    +0.000 C 
ATOM     10  C   UNL     1      -8.867   1.082 -23.108  0.00  0.00    +0.000 C 
ATOM     11  C   UNL     1      -6.619  -0.010 -23.101  0.00  0.00    +0.000 C 
ATOM     12  C   UNL     1      -7.928  -2.633 -22.877  0.00  0.00    +0.000 C 
ATOM     13  C   UNL     1     -10.507   0.936 -21.126  0.00  0.00    +0.000 C 
ATOM     14  C   UNL     1     -10.308  -1.542 -21.245  0.00  0.00    +0.000 C 
ATOM     15  C   UNL     1     -10.409  -0.432 -20.499  0.00  0.00    +0.000 C 
ATOM     16  C   UNL     1      -5.905  -1.319 -23.400  0.00  0.00    +0.000 C 
ATOM     17  C   UNL     1      -6.488  -2.517 -23.276  0.00  0.00    +0.000 C 
ATOM     18  C   UNL     1     -12.411  -0.373 -23.167  0.00  0.00    +0.000 C 
ATOM     19  C   UNL     1     -10.323  -2.882 -20.615  0.00  0.00    +0.000 C 
ATOM     20  C   UNL     1     -10.465  -0.500 -19.023  0.00  0.00    +0.000 C 
ATOM     21  C   UNL     1      -5.747  -3.773 -23.525  0.00  0.00    +0.000 C 
ATOM     22  C   UNL     1      -4.509  -1.215 -23.900  0.00  0.00    +0.000 C 
ATOM     23  C   UNL     1     -10.285  -2.956 -19.118  0.00  0.00    +0.000 C 
ATOM     24  C   UNL     1     -10.376  -1.837 -18.382  0.00  0.00    +0.000 C 
ATOM     25  C   UNL     1      -4.329  -3.675 -23.952  0.00  0.00    +0.000 C 
ATOM     26  C   UNL     1      -3.734  -2.482 -24.110  0.00  0.00    +0.000 C 
ATOM     27  C   UNL     1     -10.401  -1.819 -16.881  0.00  0.00    +0.000 C 
ATOM     28  C   UNL     1      -3.644  -4.992 -24.178  0.00  0.00    +0.000 C 
ENDROOT
BRANCH  23  29
ATOM     29  O   UNL     1     -10.220  -4.183 -18.467  0.00  0.00    +0.000 OA
ATOM     30  C   UNL     1      -8.951  -4.832 -18.505  0.00  0.00    +0.000 C 
ENDBRANCH  23  29
BRANCH  26  31
ATOM     31  O   UNL     1      -2.410  -2.441 -24.533  0.00  0.00    +0.000 OA
ATOM     32  C   UNL     1      -1.452  -2.235 -23.497  0.00  0.00    +0.000 C 
ENDBRANCH  26  31
BRANCH  10  34
ATOM     33  N   UNL     1      -8.770   1.839 -25.649  0.00  0.00    +0.000 NA
ATOM     34  C   UNL     1      -8.823   1.490 -24.543  0.00  0.00    +0.000 C 
ENDBRANCH  10  34
BRANCH  11  35
ATOM     35  C   UNL     1      -5.941   0.701 -21.892  0.00  0.00    +0.000 C 
BRANCH  35  36
ATOM     36  O   UNL     1      -6.162  -0.080 -20.698  0.00  0.00    +0.000 OA
BRANCH  36  38
ATOM     37  O   UNL     1      -4.640   0.793 -19.226  0.00  0.00    +0.000 OA
ATOM     38  C   UNL     1      -5.105  -0.143 -19.856  0.00  0.00    +0.000 C 
BRANCH  38  39
ATOM     39  C   UNL     1      -4.652  -1.554 -19.686  0.00  0.00    +0.000 C 
ATOM     40  C   UNL     1      -3.387  -1.865 -20.436  0.00  0.00    +0.000 C 
ATOM     41  C   UNL     1      -5.293  -2.487 -18.956  0.00  0.00    +0.000 C 
ATOM     42  C   UNL     1      -6.602  -2.368 -18.241  0.00  0.00    +0.000 C 
ENDBRANCH  38  39
ENDBRANCH  36  38
ENDBRANCH  35  36
ENDBRANCH  11  35
TORSDOF 7
ENDMDL
MODEL 6
REMARK VINA RESULT:      -5.5      6.875      9.960
REMARK  Name = 
REMARK  14 active torsions:
REMARK  status: ('A' for Active; 'I' for Inactive)
REMARK    1  A    between atoms: O_1  and  C_24
REMARK    2  A    between atoms: O_1  and  C_36
REMARK    3  A    between atoms: O_4  and  C_30
REMARK    4  A    between atoms: O_4  and  C_37
REMARK    5  A    between atoms: O_7  and  C_33
REMARK    6  A    between atoms: O_7  and  C_38
REMARK    7  A    between atoms: N_10  and  C_23
REMARK    8  A    between atoms: C_15  and  C_26
REMARK    9  A    between atoms: C_16  and  C_24
REMARK   10  A    between atoms: C_31  and  C_34
REMARK   11  A    between atoms: C_32  and  C_35
REMARK   12  A    between atoms: C_36  and  C_39
REMARK   13  A    between atoms: C_39  and  C_40
REMARK   14  A    between atoms: C_41  and  C_42
REMARK                            x       y       z     vdW  Elec       q    Type
REMARK                         _______ _______ _______ _____ _____    ______ ____
ROOT
ATOM      1  O   UNL     1      10.602  -3.180 -18.095  0.00  0.00    +0.000 OA
ATOM      2  O   UNL     1      13.889  -0.594 -21.377  0.00  0.00    +0.000 OA
ATOM      3  O   UNL     1       6.091  -3.262 -19.275  0.00  0.00    +0.000 OA
ATOM      4  O   UNL     1       5.356   1.249 -21.992  0.00  0.00    +0.000 OA
ATOM      5  N   UNL     1       9.116   0.740 -20.054  0.00  0.00    +0.000 NA
ATOM      6  N   UNL     1      10.853   0.943 -17.694  0.00  0.00    +0.000 NA
ATOM      7  C   UNL     1       8.933  -0.116 -18.853  0.00  0.00    +0.000 C 
ATOM      8  C   UNL     1      10.310  -0.383 -18.108  0.00  0.00    +0.000 C 
ATOM      9  C   UNL     1      11.170   1.730 -18.913  0.00  0.00    +0.000 C 
ATOM     10  C   UNL     1       9.850   2.004 -19.727  0.00  0.00    +0.000 C 
ATOM     11  C   UNL     1       7.908   0.954 -20.900  0.00  0.00    +0.000 C 
ATOM     12  C   UNL     1       8.230  -1.439 -19.224  0.00  0.00    +0.000 C 
ATOM     13  C   UNL     1      12.233   1.029 -19.803  0.00  0.00    +0.000 C 
ATOM     14  C   UNL     1      11.291  -1.130 -19.000  0.00  0.00    +0.000 C 
ATOM     15  C   UNL     1      12.156  -0.477 -19.792  0.00  0.00    +0.000 C 
ATOM     16  C   UNL     1       6.822  -0.099 -20.745  0.00  0.00    +0.000 C 
ATOM     17  C   UNL     1       6.973  -1.203 -20.003  0.00  0.00    +0.000 C 
ATOM     18  C   UNL     1      11.953   0.853 -16.739  0.00  0.00    +0.000 C 
ATOM     19  C   UNL     1      11.305  -2.609 -18.922  0.00  0.00    +0.000 C 
ATOM     20  C   UNL     1      13.099  -1.205 -20.666  0.00  0.00    +0.000 C 
ATOM     21  C   UNL     1       5.914  -2.233 -19.917  0.00  0.00    +0.000 C 
ATOM     22  C   UNL     1       5.530   0.174 -21.426  0.00  0.00    +0.000 C 
ATOM     23  C   UNL     1      12.193  -3.356 -19.872  0.00  0.00    +0.000 C 
ATOM     24  C   UNL     1      13.045  -2.690 -20.668  0.00  0.00    +0.000 C 
ATOM     25  C   UNL     1       4.650  -1.999 -20.658  0.00  0.00    +0.000 C 
ATOM     26  C   UNL     1       4.469  -0.884 -21.385  0.00  0.00    +0.000 C 
ATOM     27  C   UNL     1      14.007  -3.355 -21.609  0.00  0.00    +0.000 C 
ATOM     28  C   UNL     1       3.628  -3.092 -20.527  0.00  0.00    +0.000 C 
ENDROOT
BRANCH  23  29
ATOM     29  O   UNL     1      12.194  -4.746 -19.902  0.00  0.00    +0.000 OA
ATOM     30  C   UNL     1      12.959  -5.380 -18.880  0.00  0.00    +0.000 C 
ENDBRANCH  23  29
BRANCH  26  31
ATOM     31  O   UNL     1       3.257  -0.699 -22.043  0.00  0.00    +0.000 OA
ATOM     32  C   UNL     1       2.301   0.089 -21.336  0.00  0.00    +0.000 C 
ENDBRANCH  26  31
BRANCH  10  34
ATOM     33  N   UNL     1       8.416   3.786 -18.383  0.00  0.00    +0.000 NA
ATOM     34  C   UNL     1       9.039   3.017 -18.989  0.00  0.00    +0.000 C 
ENDBRANCH  10  34
BRANCH  11  35
ATOM     35  C   UNL     1       8.382   1.016 -22.383  0.00  0.00    +0.000 C 
BRANCH  35  36
ATOM     36  O   UNL     1       9.440   0.056 -22.582  0.00  0.00    +0.000 OA
BRANCH  36  38
ATOM     37  O   UNL     1       8.130  -1.094 -24.068  0.00  0.00    +0.000 OA
ATOM     38  C   UNL     1       9.100  -1.019 -23.331  0.00  0.00    +0.000 C 
BRANCH  38  39
ATOM     39  C   UNL     1      10.151  -2.073 -23.245  0.00  0.00    +0.000 C 
ATOM     40  C   UNL     1      11.427  -1.698 -23.945  0.00  0.00    +0.000 C 
ATOM     41  C   UNL     1      10.003  -3.260 -22.625  0.00  0.00    +0.000 C 
ATOM     42  C   UNL     1       8.778  -3.823 -21.976  0.00  0.00    +0.000 C 
ENDBRANCH  38  39
ENDBRANCH  36  38
ENDBRANCH  35  36
ENDBRANCH  11  35
TORSDOF 7
ENDMDL
MODEL 7
REMARK VINA RESULT:      -5.3     16.982     21.679
REMARK  Name = 
REMARK  14 active torsions:
REMARK  status: ('A' for Active; 'I' for Inactive)
REMARK    1  A    between atoms: O_1  and  C_24
REMARK    2  A    between atoms: O_1  and  C_36
REMARK    3  A    between atoms: O_4  and  C_30
REMARK    4  A    between atoms: O_4  and  C_37
REMARK    5  A    between atoms: O_7  and  C_33
REMARK    6  A    between atoms: O_7  and  C_38
REMARK    7  A    between atoms: N_10  and  C_23
REMARK    8  A    between atoms: C_15  and  C_26
REMARK    9  A    between atoms: C_16  and  C_24
REMARK   10  A    between atoms: C_31  and  C_34
REMARK   11  A    between atoms: C_32  and  C_35
REMARK   12  A    between atoms: C_36  and  C_39
REMARK   13  A    between atoms: C_39  and  C_40
REMARK   14  A    between atoms: C_41  and  C_42
REMARK                            x       y       z     vdW  Elec       q    Type
REMARK                         _______ _______ _______ _____ _____    ______ ____
ROOT
ATOM      1  O   UNL     1      12.454   9.483 -15.021  0.00  0.00    +0.000 OA
ATOM      2  O   UNL     1      10.454  14.327 -15.917  0.00  0.00    +0.000 OA
ATOM      3  O   UNL     1      17.099   9.082 -15.096  0.00  0.00    +0.000 OA
ATOM      4  O   UNL     1      18.696  12.867 -18.471  0.00  0.00    +0.000 OA
ATOM      5  N   UNL     1      14.505  12.155 -18.194  0.00  0.00    +0.000 NA
ATOM      6  N   UNL     1      12.077  10.696 -18.972  0.00  0.00    +0.000 NA
ATOM      7  C   UNL     1      14.275  10.734 -17.825  0.00  0.00    +0.000 C 
ATOM      8  C   UNL     1      12.728  10.412 -17.661  0.00  0.00    +0.000 C 
ATOM      9  C   UNL     1      12.185  12.150 -19.253  0.00  0.00    +0.000 C 
ATOM     10  C   UNL     1      13.702  12.552 -19.395  0.00  0.00    +0.000 C 
ATOM     11  C   UNL     1      15.926  12.598 -18.255  0.00  0.00    +0.000 C 
ATOM     12  C   UNL     1      15.064  10.362 -16.552  0.00  0.00    +0.000 C 
ATOM     13  C   UNL     1      11.483  13.012 -18.167  0.00  0.00    +0.000 C 
ATOM     14  C   UNL     1      12.105  11.234 -16.541  0.00  0.00    +0.000 C 
ATOM     15  C   UNL     1      11.555  12.434 -16.776  0.00  0.00    +0.000 C 
ATOM     16  C   UNL     1      16.898  11.743 -17.458  0.00  0.00    +0.000 C 
ATOM     17  C   UNL     1      16.510  10.740 -16.662  0.00  0.00    +0.000 C 
ATOM     18  C   UNL     1      10.720  10.168 -19.077  0.00  0.00    +0.000 C 
ATOM     19  C   UNL     1      12.068  10.635 -15.187  0.00  0.00    +0.000 C 
ATOM     20  C   UNL     1      10.961  13.235 -15.685  0.00  0.00    +0.000 C 
ATOM     21  C   UNL     1      17.480   9.962 -15.860  0.00  0.00    +0.000 C 
ATOM     22  C   UNL     1      18.344  12.037 -17.640  0.00  0.00    +0.000 C 
ATOM     23  C   UNL     1      11.552  11.479 -14.059  0.00  0.00    +0.000 C 
ATOM     24  C   UNL     1      11.014  12.684 -14.306  0.00  0.00    +0.000 C 
ATOM     25  C   UNL     1      18.919  10.303 -15.981  0.00  0.00    +0.000 C 
ATOM     26  C   UNL     1      19.332  11.287 -16.796  0.00  0.00    +0.000 C 
ATOM     27  C   UNL     1      10.425  13.572 -13.249  0.00  0.00    +0.000 C 
ATOM     28  C   UNL     1      19.839   9.474 -15.131  0.00  0.00    +0.000 C 
ENDROOT
BRANCH  23  29
ATOM     29  O   UNL     1      11.562  11.004 -12.753  0.00  0.00    +0.000 OA
ATOM     30  C   UNL     1      10.478  10.147 -12.402  0.00  0.00    +0.000 C 
ENDBRANCH  23  29
BRANCH  26  31
ATOM     31  O   UNL     1      20.693  11.554 -16.894  0.00  0.00    +0.000 OA
ATOM     32  C   UNL     1      21.357  10.914 -17.982  0.00  0.00    +0.000 C 
ENDBRANCH  26  31
BRANCH  10  34
ATOM     33  N   UNL     1      14.581  11.600 -21.709  0.00  0.00    +0.000 NA
ATOM     34  C   UNL     1      14.216  12.016 -20.689  0.00  0.00    +0.000 C 
ENDBRANCH  10  34
BRANCH  11  35
ATOM     35  C   UNL     1      15.977  14.071 -17.752  0.00  0.00    +0.000 C 
BRANCH  35  36
ATOM     36  O   UNL     1      15.060  14.227 -16.648  0.00  0.00    +0.000 OA
BRANCH  36  38
ATOM     37  O   UNL     1      16.819  14.612 -15.232  0.00  0.00    +0.000 OA
ATOM     38  C   UNL     1      15.647  14.341 -15.433  0.00  0.00    +0.000 C 
BRANCH  38  39
ATOM     39  C   UNL     1      14.632  14.223 -14.347  0.00  0.00    +0.000 C 
ATOM     40  C   UNL     1      13.667  15.374 -14.309  0.00  0.00    +0.000 C 
ATOM     41  C   UNL     1      14.565  13.210 -13.461  0.00  0.00    +0.000 C 
ATOM     42  C   UNL     1      15.499  12.053 -13.301  0.00  0.00    +0.000 C 
ENDBRANCH  38  39
ENDBRANCH  36  38
ENDBRANCH  35  36
ENDBRANCH  11  35
TORSDOF 7
ENDMDL
MODEL 8
REMARK VINA RESULT:      -5.3      6.627      9.857
REMARK  Name = 
REMARK  14 active torsions:
REMARK  status: ('A' for Active; 'I' for Inactive)
REMARK    1  A    between atoms: O_1  and  C_24
REMARK    2  A    between atoms: O_1  and  C_36
REMARK    3  A    between atoms: O_4  and  C_30
REMARK    4  A    between atoms: O_4  and  C_37
REMARK    5  A    between atoms: O_7  and  C_33
REMARK    6  A    between atoms: O_7  and  C_38
REMARK    7  A    between atoms: N_10  and  C_23
REMARK    8  A    between atoms: C_15  and  C_26
REMARK    9  A    between atoms: C_16  and  C_24
REMARK   10  A    between atoms: C_31  and  C_34
REMARK   11  A    between atoms: C_32  and  C_35
REMARK   12  A    between atoms: C_36  and  C_39
REMARK   13  A    between atoms: C_39  and  C_40
REMARK   14  A    between atoms: C_41  and  C_42
REMARK                            x       y       z     vdW  Elec       q    Type
REMARK                         _______ _______ _______ _____ _____    ______ ____
ROOT
ATOM      1  O   UNL     1      10.241  -2.914 -22.595  0.00  0.00    +0.000 OA
ATOM      2  O   UNL     1      11.188   1.341 -25.639  0.00  0.00    +0.000 OA
ATOM      3  O   UNL     1       6.537  -2.693 -19.771  0.00  0.00    +0.000 OA
ATOM      4  O   UNL     1       6.029   2.483 -18.663  0.00  0.00    +0.000 OA
ATOM      5  N   UNL     1       9.523   1.285 -20.788  0.00  0.00    +0.000 NA
ATOM      6  N   UNL     1      12.275   0.263 -20.864  0.00  0.00    +0.000 NA
ATOM      7  C   UNL     1       9.865  -0.112 -20.415  0.00  0.00    +0.000 C 
ATOM      8  C   UNL     1      11.136  -0.637 -21.210  0.00  0.00    +0.000 C 
ATOM      9  C   UNL     1      11.980   1.625 -21.378  0.00  0.00    +0.000 C 
ATOM     10  C   UNL     1      10.703   2.199 -20.658  0.00  0.00    +0.000 C 
ATOM     11  C   UNL     1       8.273   1.838 -20.194  0.00  0.00    +0.000 C 
ATOM     12  C   UNL     1       8.653  -1.046 -20.615  0.00  0.00    +0.000 C 
ATOM     13  C   UNL     1      11.799   1.643 -22.922  0.00  0.00    +0.000 C 
ATOM     14  C   UNL     1      10.884  -0.662 -22.711  0.00  0.00    +0.000 C 
ATOM     15  C   UNL     1      11.170   0.394 -23.487  0.00  0.00    +0.000 C 
ATOM     16  C   UNL     1       7.268   0.795 -19.730  0.00  0.00    +0.000 C 
ATOM     17  C   UNL     1       7.424  -0.518 -19.941  0.00  0.00    +0.000 C 
ATOM     18  C   UNL     1      13.576  -0.259 -21.271  0.00  0.00    +0.000 C 
ATOM     19  C   UNL     1      10.368  -1.918 -23.301  0.00  0.00    +0.000 C 
ATOM     20  C   UNL     1      10.913   0.371 -24.942  0.00  0.00    +0.000 C 
ATOM     21  C   UNL     1       6.401  -1.500 -19.522  0.00  0.00    +0.000 C 
ATOM     22  C   UNL     1       6.096   1.296 -18.966  0.00  0.00    +0.000 C 
ATOM     23  C   UNL     1      10.017  -1.918 -24.759  0.00  0.00    +0.000 C 
ATOM     24  C   UNL     1      10.298  -0.850 -25.523  0.00  0.00    +0.000 C 
ATOM     25  C   UNL     1       5.191  -0.995 -18.825  0.00  0.00    +0.000 C 
ATOM     26  C   UNL     1       5.030   0.315 -18.579  0.00  0.00    +0.000 C 
ATOM     27  C   UNL     1      10.033  -0.782 -26.999  0.00  0.00    +0.000 C 
ATOM     28  C   UNL     1       4.197  -2.052 -18.438  0.00  0.00    +0.000 C 
ENDROOT
BRANCH  23  29
ATOM     29  O   UNL     1       9.457  -3.042 -25.357  0.00  0.00    +0.000 OA
ATOM     30  C   UNL     1      10.378  -4.067 -25.721  0.00  0.00    +0.000 C 
ENDBRANCH  23  29
BRANCH  26  31
ATOM     31  O   UNL     1       3.891   0.737 -17.902  0.00  0.00    +0.000 OA
ATOM     32  C   UNL     1       2.855   1.260 -18.732  0.00  0.00    +0.000 C 
ENDBRANCH  26  31
BRANCH  10  34
ATOM     33  N   UNL     1      11.370   2.782 -18.157  0.00  0.00    +0.000 NA
ATOM     34  C   UNL     1      11.065   2.544 -19.252  0.00  0.00    +0.000 C 
ENDBRANCH  10  34
BRANCH  11  35
ATOM     35  C   UNL     1       7.620   2.768 -21.261  0.00  0.00    +0.000 C 
BRANCH  35  36
ATOM     36  O   UNL     1       7.817   2.196 -22.571  0.00  0.00    +0.000 OA
BRANCH  36  38
ATOM     37  O   UNL     1       5.558   2.237 -22.949  0.00  0.00    +0.000 OA
ATOM     38  C   UNL     1       6.679   1.835 -23.210  0.00  0.00    +0.000 C 
BRANCH  38  39
ATOM     39  C   UNL     1       6.989   0.969 -24.384  0.00  0.00    +0.000 C 
ATOM     40  C   UNL     1       7.513   1.735 -25.565  0.00  0.00    +0.000 C 
ATOM     41  C   UNL     1       6.815  -0.367 -24.424  0.00  0.00    +0.000 C 
ATOM     42  C   UNL     1       6.215  -1.257 -23.382  0.00  0.00    +0.000 C 
ENDBRANCH  38  39
ENDBRANCH  36  38
ENDBRANCH  35  36
ENDBRANCH  11  35
TORSDOF 7
ENDMDL
MODEL 9
REMARK VINA RESULT:      -5.1     15.562     19.423
REMARK  Name = 
REMARK  14 active torsions:
REMARK  status: ('A' for Active; 'I' for Inactive)
REMARK    1  A    between atoms: O_1  and  C_24
REMARK    2  A    between atoms: O_1  and  C_36
REMARK    3  A    between atoms: O_4  and  C_30
REMARK    4  A    between atoms: O_4  and  C_37
REMARK    5  A    between atoms: O_7  and  C_33
REMARK    6  A    between atoms: O_7  and  C_38
REMARK    7  A    between atoms: N_10  and  C_23
REMARK    8  A    between atoms: C_15  and  C_26
REMARK    9  A    between atoms: C_16  and  C_24
REMARK   10  A    between atoms: C_31  and  C_34
REMARK   11  A    between atoms: C_32  and  C_35
REMARK   12  A    between atoms: C_36  and  C_39
REMARK   13  A    between atoms: C_39  and  C_40
REMARK   14  A    between atoms: C_41  and  C_42
REMARK                            x       y       z     vdW  Elec       q    Type
REMARK                         _______ _______ _______ _____ _____    ______ ____
ROOT
ATOM      1  O   UNL     1      13.007  16.497 -19.473  0.00  0.00    +0.000 OA
ATOM      2  O   UNL     1      15.443  12.459 -17.018  0.00  0.00    +0.000 OA
ATOM      3  O   UNL     1       8.522  15.879 -20.588  0.00  0.00    +0.000 OA
ATOM      4  O   UNL     1       8.062  10.637 -21.354  0.00  0.00    +0.000 OA
ATOM      5  N   UNL     1      11.995  12.183 -20.806  0.00  0.00    +0.000 NA
ATOM      6  N   UNL     1      14.454  13.411 -21.841  0.00  0.00    +0.000 NA
ATOM      7  C   UNL     1      12.041  13.584 -21.297  0.00  0.00    +0.000 C 
ATOM      8  C   UNL     1      13.473  14.236 -21.080  0.00  0.00    +0.000 C 
ATOM      9  C   UNL     1      14.504  12.054 -21.240  0.00  0.00    +0.000 C 
ATOM     10  C   UNL     1      13.101  11.355 -21.387  0.00  0.00    +0.000 C 
ATOM     11  C   UNL     1      10.665  11.513 -20.848  0.00  0.00    +0.000 C 
ATOM     12  C   UNL     1      10.932  14.433 -20.640  0.00  0.00    +0.000 C 
ATOM     13  C   UNL     1      14.952  12.088 -19.752  0.00  0.00    +0.000 C 
ATOM     14  C   UNL     1      13.834  14.307 -19.603  0.00  0.00    +0.000 C 
ATOM     15  C   UNL     1      14.493  13.309 -18.995  0.00  0.00    +0.000 C 
ATOM     16  C   UNL     1       9.473  12.457 -20.883  0.00  0.00    +0.000 C 
ATOM     17  C   UNL     1       9.587  13.786 -20.765  0.00  0.00    +0.000 C 
ATOM     18  C   UNL     1      15.760  14.046 -21.992  0.00  0.00    +0.000 C 
ATOM     19  C   UNL     1      13.488  15.545 -18.868  0.00  0.00    +0.000 C 
ATOM     20  C   UNL     1      14.832  13.375 -17.558  0.00  0.00    +0.000 C 
ATOM     21  C   UNL     1       8.401  14.670 -20.751  0.00  0.00    +0.000 C 
ATOM     22  C   UNL     1       8.142  11.838 -21.113  0.00  0.00    +0.000 C 
ATOM     23  C   UNL     1      13.745  15.581 -17.390  0.00  0.00    +0.000 C 
ATOM     24  C   UNL     1      14.395  14.571 -16.791  0.00  0.00    +0.000 C 
ATOM     25  C   UNL     1       7.062  14.047 -20.904  0.00  0.00    +0.000 C 
ATOM     26  C   UNL     1       6.930  12.719 -21.053  0.00  0.00    +0.000 C 
ATOM     27  C   UNL     1      14.744  14.545 -15.331  0.00  0.00    +0.000 C 
ATOM     28  C   UNL     1       5.910  15.008 -20.872  0.00  0.00    +0.000 C 
ENDROOT
BRANCH  23  29
ATOM     29  O   UNL     1      13.373  16.684 -16.630  0.00  0.00    +0.000 OA
ATOM     30  C   UNL     1      12.009  16.711 -16.216  0.00  0.00    +0.000 C 
ENDBRANCH  23  29
BRANCH  26  31
ATOM     31  O   UNL     1       5.656  12.184 -21.217  0.00  0.00    +0.000 OA
ATOM     32  C   UNL     1       5.249  11.998 -22.571  0.00  0.00    +0.000 C 
ENDBRANCH  26  31
BRANCH  10  34
ATOM     33  N   UNL     1      12.719  10.671 -23.921  0.00  0.00    +0.000 NA
ATOM     34  C   UNL     1      12.905  10.979 -22.818  0.00  0.00    +0.000 C 
ENDBRANCH  10  34
BRANCH  11  35
ATOM     35  C   UNL     1      10.570  10.584 -19.602  0.00  0.00    +0.000 C 
BRANCH  35  36
ATOM     36  O   UNL     1      11.519  11.025 -18.608  0.00  0.00    +0.000 OA
BRANCH  36  38
ATOM     37  O   UNL     1      10.738   9.769 -16.859  0.00  0.00    +0.000 OA
ATOM     38  C   UNL     1      11.135  10.824 -17.326  0.00  0.00    +0.000 C 
BRANCH  38  39
ATOM     39  C   UNL     1      11.389  12.043 -16.505  0.00  0.00    +0.000 C 
ATOM     40  C   UNL     1      10.766  13.285 -17.077  0.00  0.00    +0.000 C 
ATOM     41  C   UNL     1      12.111  12.070 -15.367  0.00  0.00    +0.000 C 
ATOM     42  C   UNL     1      12.873  10.954 -14.725  0.00  0.00    +0.000 C 
ENDBRANCH  38  39
ENDBRANCH  36  38
ENDBRANCH  35  36
ENDBRANCH  11  35
TORSDOF 7
ENDMDL
