MODEL 1
REMARK VINA RESULT:      -5.7      0.000      0.000
REMARK  Name = Resveratrol.pdbqt.pdb
REMARK  5 active torsions:
REMARK  status: ('A' for Active; 'I' for Inactive)
REMARK    1  A    between atoms: C_1  and  C_11
REMARK    2  A    between atoms: C_4  and  O_7
REMARK    3  A    between atoms: C_5  and  O_9
REMARK    4  A    between atoms: C_12  and  C_13
REMARK    5  A    between atoms: C_18  and  O_19
REMARK                            x       y       z     vdW  Elec       q    Type
REMARK                         _______ _______ _______ _____ _____    ______ ____
ROOT
ATOM      1  C   UNL     1      -8.469  -2.765  -1.348  0.00  0.00    +0.000 A 
ATOM      2  C   UNL     1      -9.357  -3.544  -0.609  0.00  0.00    +0.000 A 
ATOM      3  C   UNL     1      -8.582  -2.696  -2.737  0.00  0.00    +0.000 A 
ATOM      4  C   UNL     1      -9.591  -3.412  -3.377  0.00  0.00    +0.000 A 
ATOM      5  C   UNL     1     -10.357  -4.252  -1.268  0.00  0.00    +0.000 A 
ATOM      6  C   UNL     1     -10.484  -4.193  -2.652  0.00  0.00    +0.000 A 
ENDROOT
BRANCH   4   7
ATOM      7  O   UNL     1      -9.726  -3.364  -4.734  0.00  0.00    +0.000 OA
ATOM      8  H   UNL     1     -10.676  -3.320  -4.943  0.00  0.00    +0.000 HD
ENDBRANCH   4   7
BRANCH   5   9
ATOM      9  O   UNL     1     -11.216  -5.008  -0.523  0.00  0.00    +0.000 OA
ATOM     10  H   UNL     1     -11.276  -5.888  -0.936  0.00  0.00    +0.000 HD
ENDBRANCH   5   9
BRANCH   1  11
ATOM     11  C   UNL     1      -7.438  -2.035  -0.685  0.00  0.00    +0.000 C 
ATOM     12  C   UNL     1      -6.571  -1.420  -0.126  0.00  0.00    +0.000 C 
BRANCH  12  13
ATOM     13  C   UNL     1      -5.541  -0.690   0.538  0.00  0.00    +0.000 A 
ATOM     14  C   UNL     1      -4.281  -1.262   0.705  0.00  0.00    +0.000 A 
ATOM     15  C   UNL     1      -5.798   0.595   1.018  0.00  0.00    +0.000 A 
ATOM     16  C   UNL     1      -3.274  -0.551   1.352  0.00  0.00    +0.000 A 
ATOM     17  C   UNL     1      -4.794   1.308   1.666  0.00  0.00    +0.000 A 
ATOM     18  C   UNL     1      -3.539   0.729   1.829  0.00  0.00    +0.000 A 
BRANCH  18  19
ATOM     19  O   UNL     1      -2.572   1.449   2.467  0.00  0.00    +0.000 OA
ATOM     20  H   UNL     1      -2.234   0.916   3.208  0.00  0.00    +0.000 HD
ENDBRANCH  18  19
ENDBRANCH  12  13
ENDBRANCH   1  11
TORSDOF 5
ENDMDL
MODEL 2
REMARK VINA RESULT:      -5.4      1.126      2.368
REMARK  Name = Resveratrol.pdbqt.pdb
REMARK  5 active torsions:
REMARK  status: ('A' for Active; 'I' for Inactive)
REMARK    1  A    between atoms: C_1  and  C_11
REMARK    2  A    between atoms: C_4  and  O_7
REMARK    3  A    between atoms: C_5  and  O_9
REMARK    4  A    between atoms: C_12  and  C_13
REMARK    5  A    between atoms: C_18  and  O_19
REMARK                            x       y       z     vdW  Elec       q    Type
REMARK                         _______ _______ _______ _____ _____    ______ ____
ROOT
ATOM      1  C   UNL     1      -8.803  -2.449  -0.781  0.00  0.00    +0.000 A 
ATOM      2  C   UNL     1      -8.814  -3.221  -1.942  0.00  0.00    +0.000 A 
ATOM      3  C   UNL     1      -9.968  -2.295  -0.029  0.00  0.00    +0.000 A 
ATOM      4  C   UNL     1     -11.140  -2.919  -0.447  0.00  0.00    +0.000 A 
ATOM      5  C   UNL     1      -9.996  -3.836  -2.342  0.00  0.00    +0.000 A 
ATOM      6  C   UNL     1     -11.166  -3.693  -1.603  0.00  0.00    +0.000 A 
ENDROOT
BRANCH   4   7
ATOM      7  O   UNL     1     -12.294  -2.786   0.269  0.00  0.00    +0.000 OA
ATOM      8  H   UNL     1     -12.199  -2.017   0.858  0.00  0.00    +0.000 HD
ENDBRANCH   4   7
BRANCH   5   9
ATOM      9  O   UNL     1      -9.983  -4.588  -3.482  0.00  0.00    +0.000 OA
ATOM     10  H   UNL     1      -9.100  -4.988  -3.568  0.00  0.00    +0.000 HD
ENDBRANCH   5   9
BRANCH   1  11
ATOM     11  C   UNL     1      -7.599  -1.812  -0.360  0.00  0.00    +0.000 C 
ATOM     12  C   UNL     1      -6.583  -1.276  -0.005  0.00  0.00    +0.000 C 
BRANCH  12  13
ATOM     13  C   UNL     1      -5.378  -0.641   0.415  0.00  0.00    +0.000 A 
ATOM     14  C   UNL     1      -5.349   0.742   0.597  0.00  0.00    +0.000 A 
ATOM     15  C   UNL     1      -4.232  -1.402   0.643  0.00  0.00    +0.000 A 
ATOM     16  C   UNL     1      -4.174   1.365   1.008  0.00  0.00    +0.000 A 
ATOM     17  C   UNL     1      -3.055  -0.783   1.053  0.00  0.00    +0.000 A 
ATOM     18  C   UNL     1      -3.035   0.596   1.232  0.00  0.00    +0.000 A 
BRANCH  18  19
ATOM     19  O   UNL     1      -1.869   1.180   1.634  0.00  0.00    +0.000 OA
ATOM     20  H   UNL     1      -1.186   0.990   0.968  0.00  0.00    +0.000 HD
ENDBRANCH  18  19
ENDBRANCH  12  13
ENDBRANCH   1  11
TORSDOF 5
ENDMDL
MODEL 3
REMARK VINA RESULT:      -5.4      9.721     13.600
REMARK  Name = Resveratrol.pdbqt.pdb
REMARK  5 active torsions:
REMARK  status: ('A' for Active; 'I' for Inactive)
REMARK    1  A    between atoms: C_1  and  C_11
REMARK    2  A    between atoms: C_4  and  O_7
REMARK    3  A    between atoms: C_5  and  O_9
REMARK    4  A    between atoms: C_12  and  C_13
REMARK    5  A    between atoms: C_18  and  O_19
REMARK                            x       y       z     vdW  Elec       q    Type
REMARK                         _______ _______ _______ _____ _____    ______ ____
ROOT
ATOM      1  C   UNL     1       3.183   2.887   1.222  0.00  0.00    +0.000 A 
ATOM      2  C   UNL     1       1.981   2.590   0.579  0.00  0.00    +0.000 A 
ATOM      3  C   UNL     1       3.350   2.584   2.573  0.00  0.00    +0.000 A 
ATOM      4  C   UNL     1       2.307   1.983   3.274  0.00  0.00    +0.000 A 
ATOM      5  C   UNL     1       0.952   1.990   1.298  0.00  0.00    +0.000 A 
ATOM      6  C   UNL     1       1.104   1.681   2.646  0.00  0.00    +0.000 A 
ENDROOT
BRANCH   4   7
ATOM      7  O   UNL     1       2.443   1.676   4.596  0.00  0.00    +0.000 OA
ATOM      8  H   UNL     1       2.351   2.498   5.110  0.00  0.00    +0.000 HD
ENDBRANCH   4   7
BRANCH   5   9
ATOM      9  O   UNL     1      -0.215   1.708   0.648  0.00  0.00    +0.000 OA
ATOM     10  H   UNL     1      -0.067   1.839  -0.305  0.00  0.00    +0.000 HD
ENDBRANCH   5   9
BRANCH   1  11
ATOM     11  C   UNL     1       4.245   3.503   0.496  0.00  0.00    +0.000 C 
ATOM     12  C   UNL     1       5.140   4.022  -0.114  0.00  0.00    +0.000 C 
BRANCH  12  13
ATOM     13  C   UNL     1       6.203   4.638  -0.839  0.00  0.00    +0.000 A 
ATOM     14  C   UNL     1       7.054   5.535  -0.195  0.00  0.00    +0.000 A 
ATOM     15  C   UNL     1       6.388   4.341  -2.189  0.00  0.00    +0.000 A 
ATOM     16  C   UNL     1       8.093   6.137  -0.900  0.00  0.00    +0.000 A 
ATOM     17  C   UNL     1       7.425   4.941  -2.897  0.00  0.00    +0.000 A 
ATOM     18  C   UNL     1       8.269   5.835  -2.247  0.00  0.00    +0.000 A 
BRANCH  18  19
ATOM     19  O   UNL     1       9.279   6.410  -2.963  0.00  0.00    +0.000 OA
ATOM     20  H   UNL     1       9.478   5.838  -3.724  0.00  0.00    +0.000 HD
ENDBRANCH  18  19
ENDBRANCH  12  13
ENDBRANCH   1  11
TORSDOF 5
ENDMDL
MODEL 4
REMARK VINA RESULT:      -5.3      1.827      2.212
REMARK  Name = Resveratrol.pdbqt.pdb
REMARK  5 active torsions:
REMARK  status: ('A' for Active; 'I' for Inactive)
REMARK    1  A    between atoms: C_1  and  C_11
REMARK    2  A    between atoms: C_4  and  O_7
REMARK    3  A    between atoms: C_5  and  O_9
REMARK    4  A    between atoms: C_12  and  C_13
REMARK    5  A    between atoms: C_18  and  O_19
REMARK                            x       y       z     vdW  Elec       q    Type
REMARK                         _______ _______ _______ _____ _____    ______ ____
ROOT
ATOM      1  C   UNL     1      -7.904  -1.402  -0.536  0.00  0.00    +0.000 A 
ATOM      2  C   UNL     1      -9.082  -0.672  -0.381  0.00  0.00    +0.000 A 
ATOM      3  C   UNL     1      -7.912  -2.604  -1.243  0.00  0.00    +0.000 A 
ATOM      4  C   UNL     1      -9.105  -3.068  -1.792  0.00  0.00    +0.000 A 
ATOM      5  C   UNL     1     -10.263  -1.153  -0.937  0.00  0.00    +0.000 A 
ATOM      6  C   UNL     1     -10.287  -2.350  -1.645  0.00  0.00    +0.000 A 
ENDROOT
BRANCH   4   7
ATOM      7  O   UNL     1      -9.142  -4.240  -2.490  0.00  0.00    +0.000 OA
ATOM      8  H   UNL     1      -8.488  -4.187  -3.209  0.00  0.00    +0.000 HD
ENDBRANCH   4   7
BRANCH   5   9
ATOM      9  O   UNL     1     -11.403  -0.421  -0.772  0.00  0.00    +0.000 OA
ATOM     10  H   UNL     1     -11.822  -0.317  -1.644  0.00  0.00    +0.000 HD
ENDBRANCH   5   9
BRANCH   1  11
ATOM     11  C   UNL     1      -6.687  -0.921   0.030  0.00  0.00    +0.000 C 
ATOM     12  C   UNL     1      -5.662  -0.514   0.507  0.00  0.00    +0.000 C 
BRANCH  12  13
ATOM     13  C   UNL     1      -4.445  -0.033   1.074  0.00  0.00    +0.000 A 
ATOM     14  C   UNL     1      -3.285   0.002   0.301  0.00  0.00    +0.000 A 
ATOM     15  C   UNL     1      -4.419   0.401   2.399  0.00  0.00    +0.000 A 
ATOM     16  C   UNL     1      -2.096   0.471   0.852  0.00  0.00    +0.000 A 
ATOM     17  C   UNL     1      -3.231   0.871   2.954  0.00  0.00    +0.000 A 
ATOM     18  C   UNL     1      -2.079   0.902   2.175  0.00  0.00    +0.000 A 
BRANCH  18  19
ATOM     19  O   UNL     1      -0.927   1.367   2.741  0.00  0.00    +0.000 OA
ATOM     20  H   UNL     1      -1.160   2.065   3.378  0.00  0.00    +0.000 HD
ENDBRANCH  18  19
ENDBRANCH  12  13
ENDBRANCH   1  11
TORSDOF 5
ENDMDL
MODEL 5
REMARK VINA RESULT:      -5.3     18.183     20.046
REMARK  Name = Resveratrol.pdbqt.pdb
REMARK  5 active torsions:
REMARK  status: ('A' for Active; 'I' for Inactive)
REMARK    1  A    between atoms: C_1  and  C_11
REMARK    2  A    between atoms: C_4  and  O_7
REMARK    3  A    between atoms: C_5  and  O_9
REMARK    4  A    between atoms: C_12  and  C_13
REMARK    5  A    between atoms: C_18  and  O_19
REMARK                            x       y       z     vdW  Elec       q    Type
REMARK                         _______ _______ _______ _____ _____    ______ ____
ROOT
ATOM      1  C   UNL     1      -3.521  -0.489 -19.157  0.00  0.00    +0.000 A 
ATOM      2  C   UNL     1      -3.497   0.729 -19.836  0.00  0.00    +0.000 A 
ATOM      3  C   UNL     1      -2.356  -0.995 -18.582  0.00  0.00    +0.000 A 
ATOM      4  C   UNL     1      -1.169  -0.274 -18.691  0.00  0.00    +0.000 A 
ATOM      5  C   UNL     1      -2.301   1.433 -19.934  0.00  0.00    +0.000 A 
ATOM      6  C   UNL     1      -1.130   0.942 -19.365  0.00  0.00    +0.000 A 
ENDROOT
BRANCH   4   7
ATOM      7  O   UNL     1      -0.014  -0.745 -18.138  0.00  0.00    +0.000 OA
ATOM      8  H   UNL     1       0.047  -1.698 -18.328  0.00  0.00    +0.000 HD
ENDBRANCH   4   7
BRANCH   5   9
ATOM      9  O   UNL     1      -2.302   2.623 -20.603  0.00  0.00    +0.000 OA
ATOM     10  H   UNL     1      -1.647   3.207 -20.178  0.00  0.00    +0.000 HD
ENDBRANCH   5   9
BRANCH   1  11
ATOM     11  C   UNL     1      -4.740  -1.221 -19.050  0.00  0.00    +0.000 C 
ATOM     12  C   UNL     1      -5.767  -1.838 -18.960  0.00  0.00    +0.000 C 
BRANCH  12  13
ATOM     13  C   UNL     1      -6.987  -2.569 -18.853  0.00  0.00    +0.000 A 
ATOM     14  C   UNL     1      -6.999  -3.941 -19.104  0.00  0.00    +0.000 A 
ATOM     15  C   UNL     1      -8.164  -1.911 -18.498  0.00  0.00    +0.000 A 
ATOM     16  C   UNL     1      -8.187  -4.657 -19.000  0.00  0.00    +0.000 A 
ATOM     17  C   UNL     1      -9.355  -2.624 -18.394  0.00  0.00    +0.000 A 
ATOM     18  C   UNL     1      -9.358  -3.992 -18.646  0.00  0.00    +0.000 A 
BRANCH  18  19
ATOM     19  O   UNL     1     -10.537  -4.669 -18.537  0.00  0.00    +0.000 OA
ATOM     20  H   UNL     1     -11.073  -4.240 -17.847  0.00  0.00    +0.000 HD
ENDBRANCH  18  19
ENDBRANCH  12  13
ENDBRANCH   1  11
TORSDOF 5
ENDMDL
MODEL 6
REMARK VINA RESULT:      -5.2     21.468     22.369
REMARK  Name = Resveratrol.pdbqt.pdb
REMARK  5 active torsions:
REMARK  status: ('A' for Active; 'I' for Inactive)
REMARK    1  A    between atoms: C_1  and  C_11
REMARK    2  A    between atoms: C_4  and  O_7
REMARK    3  A    between atoms: C_5  and  O_9
REMARK    4  A    between atoms: C_12  and  C_13
REMARK    5  A    between atoms: C_18  and  O_19
REMARK                            x       y       z     vdW  Elec       q    Type
REMARK                         _______ _______ _______ _____ _____    ______ ____
ROOT
ATOM      1  C   UNL     1       3.671   0.055 -18.707  0.00  0.00    +0.000 A 
ATOM      2  C   UNL     1       3.405  -1.265 -18.348  0.00  0.00    +0.000 A 
ATOM      3  C   UNL     1       2.631   0.902 -19.088  0.00  0.00    +0.000 A 
ATOM      4  C   UNL     1       1.326   0.418 -19.106  0.00  0.00    +0.000 A 
ATOM      5  C   UNL     1       2.094  -1.730 -18.373  0.00  0.00    +0.000 A 
ATOM      6  C   UNL     1       1.045  -0.897 -18.750  0.00  0.00    +0.000 A 
ENDROOT
BRANCH   4   7
ATOM      7  O   UNL     1       0.288   1.225 -19.475  0.00  0.00    +0.000 OA
ATOM      8  H   UNL     1       0.601   1.820 -20.178  0.00  0.00    +0.000 HD
ENDBRANCH   4   7
BRANCH   5   9
ATOM      9  O   UNL     1       1.857  -3.026 -18.017  0.00  0.00    +0.000 OA
ATOM     10  H   UNL     1       1.445  -3.025 -17.135  0.00  0.00    +0.000 HD
ENDBRANCH   5   9
BRANCH   1  11
ATOM     11  C   UNL     1       5.011   0.543 -18.686  0.00  0.00    +0.000 C 
ATOM     12  C   UNL     1       6.140   0.954 -18.669  0.00  0.00    +0.000 C 
BRANCH  12  13
ATOM     13  C   UNL     1       7.480   1.443 -18.649  0.00  0.00    +0.000 A 
ATOM     14  C   UNL     1       7.718   2.812 -18.535  0.00  0.00    +0.000 A 
ATOM     15  C   UNL     1       8.547   0.550 -18.743  0.00  0.00    +0.000 A 
ATOM     16  C   UNL     1       9.025   3.291 -18.515  0.00  0.00    +0.000 A 
ATOM     17  C   UNL     1       9.856   1.026 -18.723  0.00  0.00    +0.000 A 
ATOM     18  C   UNL     1      10.084   2.393 -18.610  0.00  0.00    +0.000 A 
BRANCH  18  19
ATOM     19  O   UNL     1      11.375   2.836 -18.592  0.00  0.00    +0.000 OA
ATOM     20  H   UNL     1      11.587   3.123 -17.687  0.00  0.00    +0.000 HD
ENDBRANCH  18  19
ENDBRANCH  12  13
ENDBRANCH   1  11
TORSDOF 5
ENDMDL
MODEL 7
REMARK VINA RESULT:      -5.1     22.550     24.444
REMARK  Name = Resveratrol.pdbqt.pdb
REMARK  5 active torsions:
REMARK  status: ('A' for Active; 'I' for Inactive)
REMARK    1  A    between atoms: C_1  and  C_11
REMARK    2  A    between atoms: C_4  and  O_7
REMARK    3  A    between atoms: C_5  and  O_9
REMARK    4  A    between atoms: C_12  and  C_13
REMARK    5  A    between atoms: C_18  and  O_19
REMARK                            x       y       z     vdW  Elec       q    Type
REMARK                         _______ _______ _______ _____ _____    ______ ____
ROOT
ATOM      1  C   UNL     1       9.575   1.530 -17.806  0.00  0.00    +0.000 A 
ATOM      2  C   UNL     1      10.031   1.460 -16.491  0.00  0.00    +0.000 A 
ATOM      3  C   UNL     1      10.480   1.680 -18.856  0.00  0.00    +0.000 A 
ATOM      4  C   UNL     1      11.843   1.757 -18.579  0.00  0.00    +0.000 A 
ATOM      5  C   UNL     1      11.396   1.539 -16.235  0.00  0.00    +0.000 A 
ATOM      6  C   UNL     1      12.312   1.687 -17.272  0.00  0.00    +0.000 A 
ENDROOT
BRANCH   4   7
ATOM      7  O   UNL     1      12.751   1.903 -19.587  0.00  0.00    +0.000 OA
ATOM      8  H   UNL     1      13.456   1.242 -19.458  0.00  0.00    +0.000 HD
ENDBRANCH   4   7
BRANCH   5   9
ATOM      9  O   UNL     1      11.820   1.468 -14.939  0.00  0.00    +0.000 OA
ATOM     10  H   UNL     1      11.506   2.265 -14.476  0.00  0.00    +0.000 HD
ENDBRANCH   5   9
BRANCH   1  11
ATOM     11  C   UNL     1       8.177   1.451 -18.081  0.00  0.00    +0.000 C 
ATOM     12  C   UNL     1       7.000   1.383 -18.312  0.00  0.00    +0.000 C 
BRANCH  12  13
ATOM     13  C   UNL     1       5.603   1.303 -18.586  0.00  0.00    +0.000 A 
ATOM     14  C   UNL     1       4.693   1.944 -17.745  0.00  0.00    +0.000 A 
ATOM     15  C   UNL     1       5.151   0.585 -19.692  0.00  0.00    +0.000 A 
ATOM     16  C   UNL     1       3.329   1.868 -18.010  0.00  0.00    +0.000 A 
ATOM     17  C   UNL     1       3.787   0.507 -19.961  0.00  0.00    +0.000 A 
ATOM     18  C   UNL     1       2.886   1.148 -19.117  0.00  0.00    +0.000 A 
BRANCH  18  19
ATOM     19  O   UNL     1       1.555   1.057 -19.401  0.00  0.00    +0.000 OA
ATOM     20  H   UNL     1       1.062   1.531 -18.708  0.00  0.00    +0.000 HD
ENDBRANCH  18  19
ENDBRANCH  12  13
ENDBRANCH   1  11
TORSDOF 5
ENDMDL
MODEL 8
REMARK VINA RESULT:      -5.1     17.985     20.277
REMARK  Name = Resveratrol.pdbqt.pdb
REMARK  5 active torsions:
REMARK  status: ('A' for Active; 'I' for Inactive)
REMARK    1  A    between atoms: C_1  and  C_11
REMARK    2  A    between atoms: C_4  and  O_7
REMARK    3  A    between atoms: C_5  and  O_9
REMARK    4  A    between atoms: C_12  and  C_13
REMARK    5  A    between atoms: C_18  and  O_19
REMARK                            x       y       z     vdW  Elec       q    Type
REMARK                         _______ _______ _______ _____ _____    ______ ____
ROOT
ATOM      1  C   UNL     1      -4.647  -1.747 -18.832  0.00  0.00    +0.000 A 
ATOM      2  C   UNL     1      -4.578  -0.548 -18.124  0.00  0.00    +0.000 A 
ATOM      3  C   UNL     1      -3.479  -2.426 -19.178  0.00  0.00    +0.000 A 
ATOM      4  C   UNL     1      -2.245  -1.896 -18.810  0.00  0.00    +0.000 A 
ATOM      5  C   UNL     1      -3.335  -0.035 -17.767  0.00  0.00    +0.000 A 
ATOM      6  C   UNL     1      -2.161  -0.701 -18.104  0.00  0.00    +0.000 A 
ENDROOT
BRANCH   4   7
ATOM      7  O   UNL     1      -1.086  -2.539 -19.135  0.00  0.00    +0.000 OA
ATOM      8  H   UNL     1      -0.768  -3.011 -18.345  0.00  0.00    +0.000 HD
ENDBRANCH   4   7
BRANCH   5   9
ATOM      9  O   UNL     1      -3.292   1.140 -17.073  0.00  0.00    +0.000 OA
ATOM     10  H   UNL     1      -3.979   1.108 -16.385  0.00  0.00    +0.000 HD
ENDBRANCH   5   9
BRANCH   1  11
ATOM     11  C   UNL     1      -5.915  -2.282 -19.205  0.00  0.00    +0.000 C 
ATOM     12  C   UNL     1      -6.984  -2.732 -19.520  0.00  0.00    +0.000 C 
BRANCH  12  13
ATOM     13  C   UNL     1      -8.251  -3.268 -19.894  0.00  0.00    +0.000 A 
ATOM     14  C   UNL     1      -8.508  -3.579 -21.229  0.00  0.00    +0.000 A 
ATOM     15  C   UNL     1      -9.231  -3.478 -18.924  0.00  0.00    +0.000 A 
ATOM     16  C   UNL     1      -9.744  -4.102 -21.596  0.00  0.00    +0.000 A 
ATOM     17  C   UNL     1     -10.469  -4.000 -19.287  0.00  0.00    +0.000 A 
ATOM     18  C   UNL     1     -10.716  -4.308 -20.621  0.00  0.00    +0.000 A 
BRANCH  18  19
ATOM     19  O   UNL     1     -11.937  -4.819 -20.953  0.00  0.00    +0.000 OA
ATOM     20  H   UNL     1     -11.882  -5.790 -20.916  0.00  0.00    +0.000 HD
ENDBRANCH  18  19
ENDBRANCH  12  13
ENDBRANCH   1  11
TORSDOF 5
ENDMDL
MODEL 9
REMARK VINA RESULT:      -5.0     18.383     20.975
REMARK  Name = Resveratrol.pdbqt.pdb
REMARK  5 active torsions:
REMARK  status: ('A' for Active; 'I' for Inactive)
REMARK    1  A    between atoms: C_1  and  C_11
REMARK    2  A    between atoms: C_4  and  O_7
REMARK    3  A    between atoms: C_5  and  O_9
REMARK    4  A    between atoms: C_12  and  C_13
REMARK    5  A    between atoms: C_18  and  O_19
REMARK                            x       y       z     vdW  Elec       q    Type
REMARK                         _______ _______ _______ _____ _____    ______ ____
ROOT
ATOM      1  C   UNL     1      10.831  -6.553  -5.821  0.00  0.00    +0.000 A 
ATOM      2  C   UNL     1      11.036  -6.309  -7.178  0.00  0.00    +0.000 A 
ATOM      3  C   UNL     1      10.027  -5.698  -5.067  0.00  0.00    +0.000 A 
ATOM      4  C   UNL     1       9.431  -4.600  -5.681  0.00  0.00    +0.000 A 
ATOM      5  C   UNL     1      10.431  -5.206  -7.773  0.00  0.00    +0.000 A 
ATOM      6  C   UNL     1       9.626  -4.344  -7.034  0.00  0.00    +0.000 A 
ENDROOT
BRANCH   4   7
ATOM      7  O   UNL     1       8.639  -3.748  -4.969  0.00  0.00    +0.000 OA
ATOM      8  H   UNL     1       8.976  -3.712  -4.056  0.00  0.00    +0.000 HD
ENDBRANCH   4   7
BRANCH   5   9
ATOM      9  O   UNL     1      10.645  -4.986  -9.103  0.00  0.00    +0.000 OA
ATOM     10  H   UNL     1      10.940  -5.824  -9.502  0.00  0.00    +0.000 HD
ENDBRANCH   5   9
BRANCH   1  11
ATOM     11  C   UNL     1      11.446  -7.680  -5.199  0.00  0.00    +0.000 C 
ATOM     12  C   UNL     1      11.964  -8.629  -4.676  0.00  0.00    +0.000 C 
BRANCH  12  13
ATOM     13  C   UNL     1      12.579  -9.756  -4.055  0.00  0.00    +0.000 A 
ATOM     14  C   UNL     1      13.718  -9.581  -3.271  0.00  0.00    +0.000 A 
ATOM     15  C   UNL     1      12.040 -11.030  -4.235  0.00  0.00    +0.000 A 
ATOM     16  C   UNL     1      14.320 -10.679  -2.663  0.00  0.00    +0.000 A 
ATOM     17  C   UNL     1      12.639 -12.131  -3.630  0.00  0.00    +0.000 A 
ATOM     18  C   UNL     1      13.776 -11.947  -2.849  0.00  0.00    +0.000 A 
BRANCH  18  19
ATOM     19  O   UNL     1      14.345 -13.041  -2.266  0.00  0.00    +0.000 OA
ATOM     20  H   UNL     1      14.500 -13.709  -2.956  0.00  0.00    +0.000 HD
ENDBRANCH  18  19
ENDBRANCH  12  13
ENDBRANCH   1  11
TORSDOF 5
ENDMDL
