MODEL 1
REMARK VINA RESULT:      -6.3      0.000      0.000
REMARK  Name = RetinoicAcid.pdbqt.pdb
REMARK  6 active torsions:
REMARK  status: ('A' for Active; 'I' for Inactive)
REMARK    1  A    between atoms: C_1  and  C_3
REMARK    2  A    between atoms: C_1  and  C_5
REMARK    3  A    between atoms: C_3  and  C_15
REMARK    4  A    between atoms: C_4  and  C_9
REMARK    5  A    between atoms: C_16  and  C_17
REMARK    6  A    between atoms: C_21  and  O_22
REMARK                            x       y       z     vdW  Elec       q    Type
REMARK                         _______ _______ _______ _____ _____    ______ ____
ROOT
ATOM      1  C   UNL     1      -2.978  -0.919   0.154  0.00  0.00    +0.000 C 
ATOM      2  C   UNL     1      -2.636  -2.290  -0.343  0.00  0.00    +0.000 C 
ENDROOT
BRANCH   1   4
ATOM      3  C   UNL     1      -5.420  -0.367   0.924  0.00  0.00    +0.000 C 
ATOM      4  C   UNL     1      -4.299  -0.626   0.573  0.00  0.00    +0.000 C 
BRANCH   3   8
ATOM      5  C   UNL     1      -6.995   0.784   2.645  0.00  0.00    +0.000 C 
ATOM      6  C   UNL     1      -8.455   0.965   2.829  0.00  0.00    +0.000 C 
ATOM      7  C   UNL     1      -9.785   0.619   2.189  0.00  0.00    +0.000 C 
ATOM      8  C   UNL     1      -6.766  -0.051   1.341  0.00  0.00    +0.000 C 
ATOM      9  C   UNL     1      -9.135  -0.132   1.048  0.00  0.00    +0.000 C 
ATOM     10  C   UNL     1      -7.824  -0.469   0.604  0.00  0.00    +0.000 C 
ATOM     11  C   UNL     1      -6.404   0.008   3.853  0.00  0.00    +0.000 C 
ATOM     12  C   UNL     1      -6.309   2.169   2.477  0.00  0.00    +0.000 C 
ATOM     13  C   UNL     1      -7.714  -1.263  -0.668  0.00  0.00    +0.000 C 
ENDBRANCH   3   8
ENDBRANCH   1   4
BRANCH   1  14
ATOM     14  C   UNL     1      -2.077   0.013   0.155  0.00  0.00    +0.000 C 
BRANCH  14  15
ATOM     15  C   UNL     1      -1.012   1.116   0.153  0.00  0.00    +0.000 C 
ATOM     16  C   UNL     1      -0.176   1.978   0.154  0.00  0.00    +0.000 C 
BRANCH  16  17
ATOM     17  C   UNL     1       0.812   2.992   0.155  0.00  0.00    +0.000 C 
ATOM     18  C   UNL     1       0.565   4.273  -0.582  0.00  0.00    +0.000 C 
ATOM     19  C   UNL     1       1.935   2.799   0.761  0.00  0.00    +0.000 C 
ATOM     20  O   UNL     1       3.298   2.741   2.641  0.00  0.00    +0.000 OA
ATOM     21  C   UNL     1       3.162   2.581   1.442  0.00  0.00    +0.000 C 
BRANCH  21  22
ATOM     22  O   UNL     1       4.160   2.158   0.649  0.00  0.00    +0.000 OA
ATOM     23  H   UNL     1       3.724   1.544   0.023  0.00  0.00    +0.000 HD
ENDBRANCH  21  22
ENDBRANCH  16  17
ENDBRANCH  14  15
ENDBRANCH   1  14
TORSDOF 6
ENDMDL
MODEL 2
REMARK VINA RESULT:      -5.9     21.925     25.984
REMARK  Name = RetinoicAcid.pdbqt.pdb
REMARK  6 active torsions:
REMARK  status: ('A' for Active; 'I' for Inactive)
REMARK    1  A    between atoms: C_1  and  C_3
REMARK    2  A    between atoms: C_1  and  C_5
REMARK    3  A    between atoms: C_3  and  C_15
REMARK    4  A    between atoms: C_4  and  C_9
REMARK    5  A    between atoms: C_16  and  C_17
REMARK    6  A    between atoms: C_21  and  O_22
REMARK                            x       y       z     vdW  Elec       q    Type
REMARK                         _______ _______ _______ _____ _____    ______ ____
ROOT
ATOM      1  C   UNL     1       9.555   2.570 -18.520  0.00  0.00    +0.000 C 
ATOM      2  C   UNL     1      10.218   3.350 -17.426  0.00  0.00    +0.000 C 
ENDROOT
BRANCH   1   4
ATOM      3  C   UNL     1      10.862   2.012 -20.721  0.00  0.00    +0.000 C 
ATOM      4  C   UNL     1      10.267   2.267 -19.707  0.00  0.00    +0.000 C 
BRANCH   3   8
ATOM      5  C   UNL     1      10.765   1.399 -23.247  0.00  0.00    +0.000 C 
ATOM      6  C   UNL     1      11.734   1.133 -24.337  0.00  0.00    +0.000 C 
ATOM      7  C   UNL     1      13.224   1.059 -24.612  0.00  0.00    +0.000 C 
ATOM      8  C   UNL     1      11.571   1.709 -21.941  0.00  0.00    +0.000 C 
ATOM      9  C   UNL     1      13.587   1.401 -23.183  0.00  0.00    +0.000 C 
ATOM     10  C   UNL     1      12.927   1.700 -21.958  0.00  0.00    +0.000 C 
ATOM     11  C   UNL     1       9.881   0.145 -23.010  0.00  0.00    +0.000 C 
ATOM     12  C   UNL     1       9.898   2.639 -23.604  0.00  0.00    +0.000 C 
ATOM     13  C   UNL     1      13.794   1.996 -20.766  0.00  0.00    +0.000 C 
ENDBRANCH   3   8
ENDBRANCH   1   4
BRANCH   1  14
ATOM     14  C   UNL     1       8.315   2.214 -18.400  0.00  0.00    +0.000 C 
BRANCH  14  15
ATOM     15  C   UNL     1       6.846   1.795 -18.258  0.00  0.00    +0.000 C 
ATOM     16  C   UNL     1       5.697   1.466 -18.145  0.00  0.00    +0.000 C 
BRANCH  16  17
ATOM     17  C   UNL     1       4.343   1.076 -18.007  0.00  0.00    +0.000 C 
ATOM     18  C   UNL     1       3.253   2.073 -18.258  0.00  0.00    +0.000 C 
ATOM     19  C   UNL     1       4.050  -0.124 -17.636  0.00  0.00    +0.000 C 
ATOM     20  O   UNL     1       3.711  -2.392 -18.012  0.00  0.00    +0.000 OA
ATOM     21  C   UNL     1       3.739  -1.452 -17.239  0.00  0.00    +0.000 C 
BRANCH  21  22
ATOM     22  O   UNL     1       3.501  -1.588 -15.924  0.00  0.00    +0.000 OA
ATOM     23  H   UNL     1       4.212  -2.185 -15.612  0.00  0.00    +0.000 HD
ENDBRANCH  21  22
ENDBRANCH  16  17
ENDBRANCH  14  15
ENDBRANCH   1  14
TORSDOF 6
ENDMDL
MODEL 3
REMARK VINA RESULT:      -5.9     21.835     25.902
REMARK  Name = RetinoicAcid.pdbqt.pdb
REMARK  6 active torsions:
REMARK  status: ('A' for Active; 'I' for Inactive)
REMARK    1  A    between atoms: C_1  and  C_3
REMARK    2  A    between atoms: C_1  and  C_5
REMARK    3  A    between atoms: C_3  and  C_15
REMARK    4  A    between atoms: C_4  and  C_9
REMARK    5  A    between atoms: C_16  and  C_17
REMARK    6  A    between atoms: C_21  and  O_22
REMARK                            x       y       z     vdW  Elec       q    Type
REMARK                         _______ _______ _______ _____ _____    ______ ____
ROOT
ATOM      1  C   UNL     1       9.463   2.671 -18.500  0.00  0.00    +0.000 C 
ATOM      2  C   UNL     1      10.058   3.563 -17.455  0.00  0.00    +0.000 C 
ENDROOT
BRANCH   1   4
ATOM      3  C   UNL     1      10.878   1.987 -20.596  0.00  0.00    +0.000 C 
ATOM      4  C   UNL     1      10.228   2.295 -19.632  0.00  0.00    +0.000 C 
BRANCH   3   8
ATOM      5  C   UNL     1      13.047   0.921 -21.562  0.00  0.00    +0.000 C 
ATOM      6  C   UNL     1      13.622   0.659 -22.902  0.00  0.00    +0.000 C 
ATOM      7  C   UNL     1      13.328   0.839 -24.378  0.00  0.00    +0.000 C 
ATOM      8  C   UNL     1      11.661   1.624 -21.754  0.00  0.00    +0.000 C 
ATOM      9  C   UNL     1      11.996   1.505 -24.115  0.00  0.00    +0.000 C 
ATOM     10  C   UNL     1      11.195   1.884 -23.000  0.00  0.00    +0.000 C 
ATOM     11  C   UNL     1      13.984   1.864 -20.760  0.00  0.00    +0.000 C 
ATOM     12  C   UNL     1      12.824  -0.422 -20.811  0.00  0.00    +0.000 C 
ATOM     13  C   UNL     1       9.875   2.541 -23.295  0.00  0.00    +0.000 C 
ENDBRANCH   3   8
ENDBRANCH   1   4
BRANCH   1  14
ATOM     14  C   UNL     1       8.232   2.281 -18.393  0.00  0.00    +0.000 C 
BRANCH  14  15
ATOM     15  C   UNL     1       6.775   1.818 -18.265  0.00  0.00    +0.000 C 
ATOM     16  C   UNL     1       5.635   1.457 -18.163  0.00  0.00    +0.000 C 
BRANCH  16  17
ATOM     17  C   UNL     1       4.289   1.036 -18.042  0.00  0.00    +0.000 C 
ATOM     18  C   UNL     1       3.179   1.998 -18.336  0.00  0.00    +0.000 C 
ATOM     19  C   UNL     1       4.019  -0.163 -17.649  0.00  0.00    +0.000 C 
ATOM     20  O   UNL     1       3.745  -2.447 -17.979  0.00  0.00    +0.000 OA
ATOM     21  C   UNL     1       3.734  -1.490 -17.228  0.00  0.00    +0.000 C 
BRANCH  21  22
ATOM     22  O   UNL     1       3.474  -1.602 -15.915  0.00  0.00    +0.000 OA
ATOM     23  H   UNL     1       3.744  -0.737 -15.542  0.00  0.00    +0.000 HD
ENDBRANCH  21  22
ENDBRANCH  16  17
ENDBRANCH  14  15
ENDBRANCH   1  14
TORSDOF 6
ENDMDL
MODEL 4
REMARK VINA RESULT:      -5.8     21.401     25.480
REMARK  Name = RetinoicAcid.pdbqt.pdb
REMARK  6 active torsions:
REMARK  status: ('A' for Active; 'I' for Inactive)
REMARK    1  A    between atoms: C_1  and  C_3
REMARK    2  A    between atoms: C_1  and  C_5
REMARK    3  A    between atoms: C_3  and  C_15
REMARK    4  A    between atoms: C_4  and  C_9
REMARK    5  A    between atoms: C_16  and  C_17
REMARK    6  A    between atoms: C_21  and  O_22
REMARK                            x       y       z     vdW  Elec       q    Type
REMARK                         _______ _______ _______ _____ _____    ______ ____
ROOT
ATOM      1  C   UNL     1       9.535   2.498 -18.175  0.00  0.00    +0.000 C 
ATOM      2  C   UNL     1       9.947   3.768 -17.495  0.00  0.00    +0.000 C 
ENDROOT
BRANCH   1   4
ATOM      3  C   UNL     1      11.296   1.088 -19.505  0.00  0.00    +0.000 C 
ATOM      4  C   UNL     1      10.489   1.733 -18.889  0.00  0.00    +0.000 C 
BRANCH   3   8
ATOM      5  C   UNL     1      13.214   1.041 -21.263  0.00  0.00    +0.000 C 
ATOM      6  C   UNL     1      14.099   0.023 -21.876  0.00  0.00    +0.000 C 
ATOM      7  C   UNL     1      14.392  -1.464 -21.856  0.00  0.00    +0.000 C 
ATOM      8  C   UNL     1      12.263   0.318 -20.251  0.00  0.00    +0.000 C 
ATOM      9  C   UNL     1      13.324  -1.744 -20.821  0.00  0.00    +0.000 C 
ATOM     10  C   UNL     1      12.353  -1.022 -20.070  0.00  0.00    +0.000 C 
ATOM     11  C   UNL     1      12.355   1.725 -22.362  0.00  0.00    +0.000 C 
ATOM     12  C   UNL     1      14.067   2.085 -20.488  0.00  0.00    +0.000 C 
ATOM     13  C   UNL     1      11.500  -1.811 -19.115  0.00  0.00    +0.000 C 
ENDBRANCH   3   8
ENDBRANCH   1   4
BRANCH   1  14
ATOM     14  C   UNL     1       8.294   2.124 -18.149  0.00  0.00    +0.000 C 
BRANCH  14  15
ATOM     15  C   UNL     1       6.826   1.680 -18.117  0.00  0.00    +0.000 C 
ATOM     16  C   UNL     1       5.677   1.335 -18.091  0.00  0.00    +0.000 C 
BRANCH  16  17
ATOM     17  C   UNL     1       4.320   0.932 -18.061  0.00  0.00    +0.000 C 
ATOM     18  C   UNL     1       3.241   1.928 -18.359  0.00  0.00    +0.000 C 
ATOM     19  C   UNL     1       4.012  -0.281 -17.747  0.00  0.00    +0.000 C 
ATOM     20  O   UNL     1       3.721  -2.539 -18.214  0.00  0.00    +0.000 OA
ATOM     21  C   UNL     1       3.686  -1.623 -17.413  0.00  0.00    +0.000 C 
BRANCH  21  22
ATOM     22  O   UNL     1       3.356  -1.800 -16.123  0.00  0.00    +0.000 OA
ATOM     23  H   UNL     1       3.863  -1.108 -15.649  0.00  0.00    +0.000 HD
ENDBRANCH  21  22
ENDBRANCH  16  17
ENDBRANCH  14  15
ENDBRANCH   1  14
TORSDOF 6
ENDMDL
MODEL 5
REMARK VINA RESULT:      -5.6     20.246     22.810
REMARK  Name = RetinoicAcid.pdbqt.pdb
REMARK  6 active torsions:
REMARK  status: ('A' for Active; 'I' for Inactive)
REMARK    1  A    between atoms: C_1  and  C_3
REMARK    2  A    between atoms: C_1  and  C_5
REMARK    3  A    between atoms: C_3  and  C_15
REMARK    4  A    between atoms: C_4  and  C_9
REMARK    5  A    between atoms: C_16  and  C_17
REMARK    6  A    between atoms: C_21  and  O_22
REMARK                            x       y       z     vdW  Elec       q    Type
REMARK                         _______ _______ _______ _____ _____    ______ ____
ROOT
ATOM      1  C   UNL     1      -6.738  17.574 -14.143  0.00  0.00    +0.000 C 
ATOM      2  C   UNL     1      -8.167  17.875 -14.479  0.00  0.00    +0.000 C 
ENDROOT
BRANCH   1   4
ATOM      3  C   UNL     1      -5.269  16.154 -15.781  0.00  0.00    +0.000 C 
ATOM      4  C   UNL     1      -5.949  16.802 -15.029  0.00  0.00    +0.000 C 
BRANCH   3   8
ATOM      5  C   UNL     1      -3.050  14.862 -16.201  0.00  0.00    +0.000 C 
ATOM      6  C   UNL     1      -2.433  14.098 -17.311  0.00  0.00    +0.000 C 
ATOM      7  C   UNL     1      -2.694  13.653 -18.737  0.00  0.00    +0.000 C 
ATOM      8  C   UNL     1      -4.448  15.378 -16.680  0.00  0.00    +0.000 C 
ATOM      9  C   UNL     1      -4.049  14.322 -18.785  0.00  0.00    +0.000 C 
ATOM     10  C   UNL     1      -4.888  15.094 -17.931  0.00  0.00    +0.000 C 
ATOM     11  C   UNL     1      -2.158  16.080 -15.839  0.00  0.00    +0.000 C 
ATOM     12  C   UNL     1      -3.257  13.933 -14.972  0.00  0.00    +0.000 C 
ATOM     13  C   UNL     1      -6.217  15.529 -18.485  0.00  0.00    +0.000 C 
ENDBRANCH   3   8
ENDBRANCH   1   4
BRANCH   1  14
ATOM     14  C   UNL     1      -6.240  17.980 -13.017  0.00  0.00    +0.000 C 
BRANCH  14  15
ATOM     15  C   UNL     1      -5.649  18.462 -11.686  0.00  0.00    +0.000 C 
ATOM     16  C   UNL     1      -5.185  18.840 -10.646  0.00  0.00    +0.000 C 
BRANCH  16  17
ATOM     17  C   UNL     1      -4.635  19.288  -9.421  0.00  0.00    +0.000 C 
ATOM     18  C   UNL     1      -3.330  20.024  -9.416  0.00  0.00    +0.000 C 
ATOM     19  C   UNL     1      -5.239  19.035  -8.309  0.00  0.00    +0.000 C 
ATOM     20  O   UNL     1      -6.847  19.435  -6.680  0.00  0.00    +0.000 OA
ATOM     21  C   UNL     1      -5.920  18.762  -7.093  0.00  0.00    +0.000 C 
BRANCH  21  22
ATOM     22  O   UNL     1      -5.467  17.677  -6.444  0.00  0.00    +0.000 OA
ATOM     23  H   UNL     1      -5.823  16.924  -6.960  0.00  0.00    +0.000 HD
ENDBRANCH  21  22
ENDBRANCH  16  17
ENDBRANCH  14  15
ENDBRANCH   1  14
TORSDOF 6
ENDMDL
MODEL 6
REMARK VINA RESULT:      -5.5     20.252     22.973
REMARK  Name = RetinoicAcid.pdbqt.pdb
REMARK  6 active torsions:
REMARK  status: ('A' for Active; 'I' for Inactive)
REMARK    1  A    between atoms: C_1  and  C_3
REMARK    2  A    between atoms: C_1  and  C_5
REMARK    3  A    between atoms: C_3  and  C_15
REMARK    4  A    between atoms: C_4  and  C_9
REMARK    5  A    between atoms: C_16  and  C_17
REMARK    6  A    between atoms: C_21  and  O_22
REMARK                            x       y       z     vdW  Elec       q    Type
REMARK                         _______ _______ _______ _____ _____    ______ ____
ROOT
ATOM      1  C   UNL     1      -6.752  17.476 -14.115  0.00  0.00    +0.000 C 
ATOM      2  C   UNL     1      -8.199  17.725 -14.411  0.00  0.00    +0.000 C 
ENDROOT
BRANCH   1   4
ATOM      3  C   UNL     1      -5.286  16.109 -15.800  0.00  0.00    +0.000 C 
ATOM      4  C   UNL     1      -5.960  16.732 -15.023  0.00  0.00    +0.000 C 
BRANCH   3   8
ATOM      5  C   UNL     1      -4.698  15.553 -18.273  0.00  0.00    +0.000 C 
ATOM      6  C   UNL     1      -3.734  14.686 -18.990  0.00  0.00    +0.000 C 
ATOM      7  C   UNL     1      -2.617  13.691 -18.742  0.00  0.00    +0.000 C 
ATOM      8  C   UNL     1      -4.473  15.367 -16.735  0.00  0.00    +0.000 C 
ATOM      9  C   UNL     1      -2.734  13.810 -17.239  0.00  0.00    +0.000 C 
ATOM     10  C   UNL     1      -3.516  14.519 -16.284  0.00  0.00    +0.000 C 
ATOM     11  C   UNL     1      -6.151  15.132 -18.626  0.00  0.00    +0.000 C 
ATOM     12  C   UNL     1      -4.442  17.043 -18.637  0.00  0.00    +0.000 C 
ATOM     13  C   UNL     1      -3.211  14.277 -14.831  0.00  0.00    +0.000 C 
ENDBRANCH   3   8
ENDBRANCH   1   4
BRANCH   1  14
ATOM     14  C   UNL     1      -6.237  17.902 -13.004  0.00  0.00    +0.000 C 
BRANCH  14  15
ATOM     15  C   UNL     1      -5.625  18.405 -11.691  0.00  0.00    +0.000 C 
ATOM     16  C   UNL     1      -5.145  18.799 -10.664  0.00  0.00    +0.000 C 
BRANCH  16  17
ATOM     17  C   UNL     1      -4.575  19.267  -9.455  0.00  0.00    +0.000 C 
ATOM     18  C   UNL     1      -3.273  20.007  -9.484  0.00  0.00    +0.000 C 
ATOM     19  C   UNL     1      -5.159  19.029  -8.330  0.00  0.00    +0.000 C 
ATOM     20  O   UNL     1      -6.740  19.446  -6.679  0.00  0.00    +0.000 OA
ATOM     21  C   UNL     1      -5.818  18.771  -7.098  0.00  0.00    +0.000 C 
BRANCH  21  22
ATOM     22  O   UNL     1      -5.350  17.697  -6.442  0.00  0.00    +0.000 OA
ATOM     23  H   UNL     1      -5.535  17.892  -5.500  0.00  0.00    +0.000 HD
ENDBRANCH  21  22
ENDBRANCH  16  17
ENDBRANCH  14  15
ENDBRANCH   1  14
TORSDOF 6
ENDMDL
MODEL 7
REMARK VINA RESULT:      -5.5     20.807     22.785
REMARK  Name = RetinoicAcid.pdbqt.pdb
REMARK  6 active torsions:
REMARK  status: ('A' for Active; 'I' for Inactive)
REMARK    1  A    between atoms: C_1  and  C_3
REMARK    2  A    between atoms: C_1  and  C_5
REMARK    3  A    between atoms: C_3  and  C_15
REMARK    4  A    between atoms: C_4  and  C_9
REMARK    5  A    between atoms: C_16  and  C_17
REMARK    6  A    between atoms: C_21  and  O_22
REMARK                            x       y       z     vdW  Elec       q    Type
REMARK                         _______ _______ _______ _____ _____    ______ ____
ROOT
ATOM      1  C   UNL     1      -6.775  17.553 -14.186  0.00  0.00    +0.000 C 
ATOM      2  C   UNL     1      -8.182  17.875 -14.587  0.00  0.00    +0.000 C 
ENDROOT
BRANCH   1   4
ATOM      3  C   UNL     1      -5.263  16.122 -15.776  0.00  0.00    +0.000 C 
ATOM      4  C   UNL     1      -5.953  16.781 -15.043  0.00  0.00    +0.000 C 
BRANCH   3   8
ATOM      5  C   UNL     1      -3.057  14.797 -16.160  0.00  0.00    +0.000 C 
ATOM      6  C   UNL     1      -2.437  14.017 -17.256  0.00  0.00    +0.000 C 
ATOM      7  C   UNL     1      -2.685  13.567 -18.683  0.00  0.00    +0.000 C 
ATOM      8  C   UNL     1      -4.442  15.330 -16.660  0.00  0.00    +0.000 C 
ATOM      9  C   UNL     1      -4.030  14.255 -18.753  0.00  0.00    +0.000 C 
ATOM     10  C   UNL     1      -4.869  15.043 -17.915  0.00  0.00    +0.000 C 
ATOM     11  C   UNL     1      -2.153  16.005 -15.794  0.00  0.00    +0.000 C 
ATOM     12  C   UNL     1      -3.293  13.878 -14.927  0.00  0.00    +0.000 C 
ATOM     13  C   UNL     1      -6.184  15.493 -18.489  0.00  0.00    +0.000 C 
ENDBRANCH   3   8
ENDBRANCH   1   4
BRANCH   1  14
ATOM     14  C   UNL     1      -6.326  17.939 -13.034  0.00  0.00    +0.000 C 
BRANCH  14  15
ATOM     15  C   UNL     1      -5.795  18.394 -11.668  0.00  0.00    +0.000 C 
ATOM     16  C   UNL     1      -5.379  18.753 -10.601  0.00  0.00    +0.000 C 
BRANCH  16  17
ATOM     17  C   UNL     1      -4.892  19.179  -9.342  0.00  0.00    +0.000 C 
ATOM     18  C   UNL     1      -5.856  19.571  -8.264  0.00  0.00    +0.000 C 
ATOM     19  C   UNL     1      -3.621  19.262  -9.135  0.00  0.00    +0.000 C 
ATOM     20  O   UNL     1      -1.537  18.374  -8.616  0.00  0.00    +0.000 OA
ATOM     21  C   UNL     1      -2.220  19.337  -8.915  0.00  0.00    +0.000 C 
BRANCH  21  22
ATOM     22  O   UNL     1      -1.704  20.565  -9.089  0.00  0.00    +0.000 OA
ATOM     23  H   UNL     1      -2.488  21.150  -9.134  0.00  0.00    +0.000 HD
ENDBRANCH  21  22
ENDBRANCH  16  17
ENDBRANCH  14  15
ENDBRANCH   1  14
TORSDOF 6
ENDMDL
MODEL 8
REMARK VINA RESULT:      -5.4     12.273     16.836
REMARK  Name = RetinoicAcid.pdbqt.pdb
REMARK  6 active torsions:
REMARK  status: ('A' for Active; 'I' for Inactive)
REMARK    1  A    between atoms: C_1  and  C_3
REMARK    2  A    between atoms: C_1  and  C_5
REMARK    3  A    between atoms: C_3  and  C_15
REMARK    4  A    between atoms: C_4  and  C_9
REMARK    5  A    between atoms: C_16  and  C_17
REMARK    6  A    between atoms: C_21  and  O_22
REMARK                            x       y       z     vdW  Elec       q    Type
REMARK                         _______ _______ _______ _____ _____    ______ ____
ROOT
ATOM      1  C   UNL     1      12.645   8.105  -1.294  0.00  0.00    +0.000 C 
ATOM      2  C   UNL     1      13.288   8.927  -0.220  0.00  0.00    +0.000 C 
ENDROOT
BRANCH   1   4
ATOM      3  C   UNL     1      10.371   6.894  -0.821  0.00  0.00    +0.000 C 
ATOM      4  C   UNL     1      11.416   7.447  -1.044  0.00  0.00    +0.000 C 
BRANCH   3   8
ATOM      5  C   UNL     1       8.656   6.026   0.933  0.00  0.00    +0.000 C 
ATOM      6  C   UNL     1       7.344   5.338   0.918  0.00  0.00    +0.000 C 
ATOM      7  C   UNL     1       6.307   4.774  -0.034  0.00  0.00    +0.000 C 
ATOM      8  C   UNL     1       9.115   6.235  -0.550  0.00  0.00    +0.000 C 
ATOM      9  C   UNL     1       7.102   5.165  -1.261  0.00  0.00    +0.000 C 
ATOM     10  C   UNL     1       8.335   5.806  -1.572  0.00  0.00    +0.000 C 
ATOM     11  C   UNL     1       9.705   5.146   1.667  0.00  0.00    +0.000 C 
ATOM     12  C   UNL     1       8.516   7.417   1.612  0.00  0.00    +0.000 C 
ATOM     13  C   UNL     1       8.675   5.969  -3.028  0.00  0.00    +0.000 C 
ENDBRANCH   3   8
ENDBRANCH   1   4
BRANCH   1  14
ATOM     14  C   UNL     1      13.238   7.956  -2.437  0.00  0.00    +0.000 C 
BRANCH  14  15
ATOM     15  C   UNL     1      13.938   7.778  -3.790  0.00  0.00    +0.000 C 
ATOM     16  C   UNL     1      14.484   7.639  -4.850  0.00  0.00    +0.000 C 
BRANCH  16  17
ATOM     17  C   UNL     1      15.124   7.478  -6.102  0.00  0.00    +0.000 C 
ATOM     18  C   UNL     1      15.841   8.637  -6.726  0.00  0.00    +0.000 C 
ATOM     19  C   UNL     1      15.063   6.347  -6.720  0.00  0.00    +0.000 C 
ATOM     20  O   UNL     1      15.739   4.161  -7.124  0.00  0.00    +0.000 OA
ATOM     21  C   UNL     1      15.000   5.093  -7.383  0.00  0.00    +0.000 C 
BRANCH  21  22
ATOM     22  O   UNL     1      14.034   5.014  -8.313  0.00  0.00    +0.000 OA
ATOM     23  H   UNL     1      13.395   5.711  -8.054  0.00  0.00    +0.000 HD
ENDBRANCH  21  22
ENDBRANCH  16  17
ENDBRANCH  14  15
ENDBRANCH   1  14
TORSDOF 6
ENDMDL
MODEL 9
REMARK VINA RESULT:      -5.4     20.782     23.359
REMARK  Name = RetinoicAcid.pdbqt.pdb
REMARK  6 active torsions:
REMARK  status: ('A' for Active; 'I' for Inactive)
REMARK    1  A    between atoms: C_1  and  C_3
REMARK    2  A    between atoms: C_1  and  C_5
REMARK    3  A    between atoms: C_3  and  C_15
REMARK    4  A    between atoms: C_4  and  C_9
REMARK    5  A    between atoms: C_16  and  C_17
REMARK    6  A    between atoms: C_21  and  O_22
REMARK                            x       y       z     vdW  Elec       q    Type
REMARK                         _______ _______ _______ _____ _____    ______ ____
ROOT
ATOM      1  C   UNL     1       2.571 -18.718  -9.214  0.00  0.00    +0.000 C 
ATOM      2  C   UNL     1       3.826 -19.463  -8.875  0.00  0.00    +0.000 C 
ENDROOT
BRANCH   1   4
ATOM      3  C   UNL     1       2.447 -17.307 -11.417  0.00  0.00    +0.000 C 
ATOM      4  C   UNL     1       2.498 -17.956 -10.406  0.00  0.00    +0.000 C 
BRANCH   3   8
ATOM      5  C   UNL     1       3.361 -15.313 -12.815  0.00  0.00    +0.000 C 
ATOM      6  C   UNL     1       3.097 -14.706 -14.141  0.00  0.00    +0.000 C 
ATOM      7  C   UNL     1       2.215 -14.860 -15.365  0.00  0.00    +0.000 C 
ATOM      8  C   UNL     1       2.392 -16.529 -12.632  0.00  0.00    +0.000 C 
ATOM      9  C   UNL     1       1.494 -16.062 -14.795  0.00  0.00    +0.000 C 
ATOM     10  C   UNL     1       1.512 -16.852 -13.611  0.00  0.00    +0.000 C 
ATOM     11  C   UNL     1       3.087 -14.274 -11.695  0.00  0.00    +0.000 C 
ATOM     12  C   UNL     1       4.827 -15.830 -12.755  0.00  0.00    +0.000 C 
ATOM     13  C   UNL     1       0.549 -18.005 -13.541  0.00  0.00    +0.000 C 
ENDBRANCH   3   8
ENDBRANCH   1   4
BRANCH   1  14
ATOM     14  C   UNL     1       1.569 -18.732  -8.392  0.00  0.00    +0.000 C 
BRANCH  14  15
ATOM     15  C   UNL     1       0.382 -18.748  -7.421  0.00  0.00    +0.000 C 
ATOM     16  C   UNL     1      -0.549 -18.761  -6.662  0.00  0.00    +0.000 C 
BRANCH  16  17
ATOM     17  C   UNL     1      -1.649 -18.777  -5.771  0.00  0.00    +0.000 C 
ATOM     18  C   UNL     1      -1.409 -18.766  -4.292  0.00  0.00    +0.000 C 
ATOM     19  C   UNL     1      -2.853 -18.835  -6.232  0.00  0.00    +0.000 C 
ATOM     20  O   UNL     1      -4.777 -17.904  -7.142  0.00  0.00    +0.000 OA
ATOM     21  C   UNL     1      -4.174 -18.886  -6.750  0.00  0.00    +0.000 C 
BRANCH  21  22
ATOM     22  O   UNL     1      -4.697 -20.123  -6.794  0.00  0.00    +0.000 OA
ATOM     23  H   UNL     1      -4.073 -20.665  -6.267  0.00  0.00    +0.000 HD
ENDBRANCH  21  22
ENDBRANCH  16  17
ENDBRANCH  14  15
ENDBRANCH   1  14
TORSDOF 6
ENDMDL
