MODEL 1
REMARK VINA RESULT:      -7.2      0.000      0.000
REMARK  Name = SB_202190.pdbqt.pdb
REMARK  4 active torsions:
REMARK  status: ('A' for Active; 'I' for Inactive)
REMARK    1  A    between atoms: C_4  and  C_7
REMARK    2  A    between atoms: C_5  and  C_19
REMARK    3  A    between atoms: C_6  and  C_8
REMARK    4  A    between atoms: C_15  and  O_26
REMARK                            x       y       z     vdW  Elec       q    Type
REMARK                         _______ _______ _______ _____ _____    ______ ____
ROOT
ATOM      1  N   UNL     1      -8.010   0.163   0.286  0.00  0.00    +0.000 N 
ATOM      2  N   UNL     1      -7.265  -1.700  -0.613  0.00  0.00    +0.000 NA
ATOM      3  C   UNL     1      -9.136  -0.469  -0.203  0.00  0.00    +0.000 A 
ATOM      4  C   UNL     1      -8.629  -1.621  -0.789  0.00  0.00    +0.000 A 
ATOM      5  C   UNL     1      -6.904  -0.613   0.036  0.00  0.00    +0.000 A 
ATOM      6  H   UNL     1      -7.998   1.040   0.787  0.00  0.00    +0.000 HD
ENDROOT
BRANCH   4   7
ATOM      7  C   UNL     1      -9.351  -2.644  -1.515  0.00  0.00    +0.000 A 
ATOM      8  C   UNL     1     -10.322  -3.431  -0.892  0.00  0.00    +0.000 A 
ATOM      9  C   UNL     1     -11.039  -4.379  -1.617  0.00  0.00    +0.000 A 
ATOM     10  C   UNL     1     -10.791  -4.524  -2.977  0.00  0.00    +0.000 A 
ATOM     11  F   UNL     1     -11.475  -5.438  -3.677  0.00  0.00    +0.000 F 
ATOM     12  C   UNL     1      -9.842  -3.739  -3.621  0.00  0.00    +0.000 A 
ATOM     13  C   UNL     1      -9.129  -2.794  -2.887  0.00  0.00    +0.000 A 
ENDBRANCH   4   7
BRANCH   3  15
ATOM     14  N   UNL     1     -13.038   1.174   0.321  0.00  0.00    +0.000 NA
ATOM     15  C   UNL     1     -10.477   0.076  -0.016  0.00  0.00    +0.000 A 
ATOM     16  C   UNL     1     -10.853   0.640   1.202  0.00  0.00    +0.000 A 
ATOM     17  C   UNL     1     -11.393   0.079  -1.067  0.00  0.00    +0.000 A 
ATOM     18  C   UNL     1     -12.130   1.165   1.320  0.00  0.00    +0.000 A 
ATOM     19  C   UNL     1     -12.646   0.627  -0.848  0.00  0.00    +0.000 A 
ENDBRANCH   3  15
BRANCH   5  20
ATOM     20  C   UNL     1      -5.548  -0.260   0.441  0.00  0.00    +0.000 A 
ATOM     21  C   UNL     1      -5.180   1.085   0.533  0.00  0.00    +0.000 A 
ATOM     22  C   UNL     1      -4.600  -1.242   0.742  0.00  0.00    +0.000 A 
ATOM     23  C   UNL     1      -3.891   1.447   0.918  0.00  0.00    +0.000 A 
ATOM     24  C   UNL     1      -3.308  -0.891   1.128  0.00  0.00    +0.000 A 
ATOM     25  C   UNL     1      -2.964   0.452   1.213  0.00  0.00    +0.000 A 
BRANCH  25  26
ATOM     26  O   UNL     1      -1.694   0.774   1.593  0.00  0.00    +0.000 OA
ATOM     27  H   UNL     1      -1.108   0.036   1.351  0.00  0.00    +0.000 HD
ENDBRANCH  25  26
ENDBRANCH   5  20
TORSDOF 4
ENDMDL
MODEL 2
REMARK VINA RESULT:      -6.9      2.166      4.402
REMARK  Name = SB_202190.pdbqt.pdb
REMARK  4 active torsions:
REMARK  status: ('A' for Active; 'I' for Inactive)
REMARK    1  A    between atoms: C_4  and  C_7
REMARK    2  A    between atoms: C_5  and  C_19
REMARK    3  A    between atoms: C_6  and  C_8
REMARK    4  A    between atoms: C_15  and  O_26
REMARK                            x       y       z     vdW  Elec       q    Type
REMARK                         _______ _______ _______ _____ _____    ______ ____
ROOT
ATOM      1  N   UNL     1      -7.831  -1.713  -0.827  0.00  0.00    +0.000 N 
ATOM      2  N   UNL     1      -8.695  -0.063   0.340  0.00  0.00    +0.000 NA
ATOM      3  C   UNL     1      -9.196  -1.837  -0.995  0.00  0.00    +0.000 A 
ATOM      4  C   UNL     1      -9.710  -0.804  -0.225  0.00  0.00    +0.000 A 
ATOM      5  C   UNL     1      -7.565  -0.626  -0.030  0.00  0.00    +0.000 A 
ATOM      6  H   UNL     1      -7.130  -2.302  -1.253  0.00  0.00    +0.000 HD
ENDROOT
BRANCH   4   7
ATOM      7  C   UNL     1     -11.100  -0.482   0.023  0.00  0.00    +0.000 A 
ATOM      8  C   UNL     1     -11.821   0.342  -0.844  0.00  0.00    +0.000 A 
ATOM      9  C   UNL     1     -13.169   0.605  -0.615  0.00  0.00    +0.000 A 
ATOM     10  C   UNL     1     -13.798   0.022   0.480  0.00  0.00    +0.000 A 
ATOM     11  F   UNL     1     -15.094   0.276   0.706  0.00  0.00    +0.000 F 
ATOM     12  C   UNL     1     -13.104  -0.815   1.345  0.00  0.00    +0.000 A 
ATOM     13  C   UNL     1     -11.755  -1.071   1.108  0.00  0.00    +0.000 A 
ENDBRANCH   4   7
BRANCH   3  15
ATOM     14  N   UNL     1     -10.879  -4.854  -3.498  0.00  0.00    +0.000 NA
ATOM     15  C   UNL     1      -9.784  -2.856  -1.860  0.00  0.00    +0.000 A 
ATOM     16  C   UNL     1      -9.313  -3.048  -3.157  0.00  0.00    +0.000 A 
ATOM     17  C   UNL     1     -10.801  -3.685  -1.386  0.00  0.00    +0.000 A 
ATOM     18  C   UNL     1      -9.889  -4.044  -3.928  0.00  0.00    +0.000 A 
ATOM     19  C   UNL     1     -11.312  -4.652  -2.237  0.00  0.00    +0.000 A 
ENDBRANCH   3  15
BRANCH   5  20
ATOM     20  C   UNL     1      -6.222  -0.186   0.332  0.00  0.00    +0.000 A 
ATOM     21  C   UNL     1      -5.223  -1.134   0.570  0.00  0.00    +0.000 A 
ATOM     22  C   UNL     1      -5.907   1.171   0.446  0.00  0.00    +0.000 A 
ATOM     23  C   UNL     1      -3.933  -0.739   0.917  0.00  0.00    +0.000 A 
ATOM     24  C   UNL     1      -4.621   1.577   0.793  0.00  0.00    +0.000 A 
ATOM     25  C   UNL     1      -3.643   0.618   1.025  0.00  0.00    +0.000 A 
BRANCH  25  26
ATOM     26  O   UNL     1      -2.390   1.037   1.363  0.00  0.00    +0.000 OA
ATOM     27  H   UNL     1      -2.462   1.614   2.144  0.00  0.00    +0.000 HD
ENDBRANCH  25  26
ENDBRANCH   5  20
TORSDOF 4
ENDMDL
MODEL 3
REMARK VINA RESULT:      -6.7      4.206      7.225
REMARK  Name = SB_202190.pdbqt.pdb
REMARK  4 active torsions:
REMARK  status: ('A' for Active; 'I' for Inactive)
REMARK    1  A    between atoms: C_4  and  C_7
REMARK    2  A    between atoms: C_5  and  C_19
REMARK    3  A    between atoms: C_6  and  C_8
REMARK    4  A    between atoms: C_15  and  O_26
REMARK                            x       y       z     vdW  Elec       q    Type
REMARK                         _______ _______ _______ _____ _____    ______ ____
ROOT
ATOM      1  N   UNL     1      -8.583  -1.879   1.046  0.00  0.00    +0.000 N 
ATOM      2  N   UNL     1      -7.056  -1.832  -0.534  0.00  0.00    +0.000 NA
ATOM      3  C   UNL     1      -7.544  -1.143   1.579  0.00  0.00    +0.000 A 
ATOM      4  C   UNL     1      -6.589  -1.158   0.573  0.00  0.00    +0.000 A 
ATOM      5  C   UNL     1      -8.262  -2.265  -0.233  0.00  0.00    +0.000 A 
ATOM      6  H   UNL     1      -9.462  -2.074   1.504  0.00  0.00    +0.000 HD
ENDROOT
BRANCH   4   7
ATOM      7  C   UNL     1      -5.258  -0.588   0.597  0.00  0.00    +0.000 A 
ATOM      8  C   UNL     1      -4.121  -1.398   0.596  0.00  0.00    +0.000 A 
ATOM      9  C   UNL     1      -2.848  -0.833   0.573  0.00  0.00    +0.000 A 
ATOM     10  C   UNL     1      -2.720   0.551   0.533  0.00  0.00    +0.000 A 
ATOM     11  F   UNL     1      -1.498   1.099   0.515  0.00  0.00    +0.000 F 
ATOM     12  C   UNL     1      -3.839   1.375   0.514  0.00  0.00    +0.000 A 
ATOM     13  C   UNL     1      -5.108   0.800   0.539  0.00  0.00    +0.000 A 
ENDBRANCH   4   7
BRANCH   3  15
ATOM     14  N   UNL     1      -7.742   0.695   5.424  0.00  0.00    +0.000 NA
ATOM     15  C   UNL     1      -7.626  -0.526   2.900  0.00  0.00    +0.000 A 
ATOM     16  C   UNL     1      -6.938  -1.069   3.984  0.00  0.00    +0.000 A 
ATOM     17  C   UNL     1      -8.364   0.642   3.091  0.00  0.00    +0.000 A 
ATOM     18  C   UNL     1      -7.030  -0.431   5.210  0.00  0.00    +0.000 A 
ATOM     19  C   UNL     1      -8.394   1.203   4.358  0.00  0.00    +0.000 A 
ENDBRANCH   3  15
BRANCH   5  20
ATOM     20  C   UNL     1      -9.144  -3.037  -1.101  0.00  0.00    +0.000 A 
ATOM     21  C   UNL     1     -10.268  -3.669  -0.562  0.00  0.00    +0.000 A 
ATOM     22  C   UNL     1      -8.891  -3.160  -2.470  0.00  0.00    +0.000 A 
ATOM     23  C   UNL     1     -11.125  -4.411  -1.371  0.00  0.00    +0.000 A 
ATOM     24  C   UNL     1      -9.742  -3.900  -3.288  0.00  0.00    +0.000 A 
ATOM     25  C   UNL     1     -10.853  -4.520  -2.731  0.00  0.00    +0.000 A 
BRANCH  25  26
ATOM     26  O   UNL     1     -11.673  -5.239  -3.550  0.00  0.00    +0.000 OA
ATOM     27  H   UNL     1     -11.855  -4.706  -4.344  0.00  0.00    +0.000 HD
ENDBRANCH  25  26
ENDBRANCH   5  20
TORSDOF 4
ENDMDL
MODEL 4
REMARK VINA RESULT:      -6.4      6.374     11.054
REMARK  Name = SB_202190.pdbqt.pdb
REMARK  4 active torsions:
REMARK  status: ('A' for Active; 'I' for Inactive)
REMARK    1  A    between atoms: C_4  and  C_7
REMARK    2  A    between atoms: C_5  and  C_19
REMARK    3  A    between atoms: C_6  and  C_8
REMARK    4  A    between atoms: C_15  and  O_26
REMARK                            x       y       z     vdW  Elec       q    Type
REMARK                         _______ _______ _______ _____ _____    ______ ____
ROOT
ATOM      1  N   UNL     1      -2.027   1.457   3.005  0.00  0.00    +0.000 N 
ATOM      2  N   UNL     1      -1.156   1.194   1.004  0.00  0.00    +0.000 NA
ATOM      3  C   UNL     1      -0.716   1.872   3.132  0.00  0.00    +0.000 A 
ATOM      4  C   UNL     1      -0.189   1.665   1.865  0.00  0.00    +0.000 A 
ATOM      5  C   UNL     1      -2.261   1.070   1.707  0.00  0.00    +0.000 A 
ATOM      6  H   UNL     1      -2.722   1.470   3.738  0.00  0.00    +0.000 HD
ENDROOT
BRANCH   4   7
ATOM      7  C   UNL     1       1.174   1.871   1.420  0.00  0.00    +0.000 A 
ATOM      8  C   UNL     1       1.631   3.135   1.041  0.00  0.00    +0.000 A 
ATOM      9  C   UNL     1       2.957   3.324   0.660  0.00  0.00    +0.000 A 
ATOM     10  C   UNL     1       3.829   2.241   0.678  0.00  0.00    +0.000 A 
ATOM     11  F   UNL     1       5.105   2.417   0.308  0.00  0.00    +0.000 F 
ATOM     12  C   UNL     1       3.399   0.979   1.069  0.00  0.00    +0.000 A 
ATOM     13  C   UNL     1       2.070   0.800   1.447  0.00  0.00    +0.000 A 
ENDBRANCH   4   7
BRANCH   3  15
ATOM     14  N   UNL     1       0.788   3.427   6.808  0.00  0.00    +0.000 NA
ATOM     15  C   UNL     1      -0.190   2.417   4.380  0.00  0.00    +0.000 A 
ATOM     16  C   UNL     1      -0.761   3.548   4.960  0.00  0.00    +0.000 A 
ATOM     17  C   UNL     1       0.868   1.789   5.035  0.00  0.00    +0.000 A 
ATOM     18  C   UNL     1      -0.240   4.011   6.157  0.00  0.00    +0.000 A 
ATOM     19  C   UNL     1       1.319   2.331   6.228  0.00  0.00    +0.000 A 
ENDBRANCH   3  15
BRANCH   5  20
ATOM     20  C   UNL     1      -3.551   0.599   1.214  0.00  0.00    +0.000 A 
ATOM     21  C   UNL     1      -4.595   1.508   1.023  0.00  0.00    +0.000 A 
ATOM     22  C   UNL     1      -3.769  -0.751   0.924  0.00  0.00    +0.000 A 
ATOM     23  C   UNL     1      -5.835   1.082   0.553  0.00  0.00    +0.000 A 
ATOM     24  C   UNL     1      -5.005  -1.188   0.454  0.00  0.00    +0.000 A 
ATOM     25  C   UNL     1      -6.028  -0.267   0.272  0.00  0.00    +0.000 A 
BRANCH  25  26
ATOM     26  O   UNL     1      -7.231  -0.716  -0.190  0.00  0.00    +0.000 OA
ATOM     27  H   UNL     1      -7.326  -0.432  -1.116  0.00  0.00    +0.000 HD
ENDBRANCH  25  26
ENDBRANCH   5  20
TORSDOF 4
ENDMDL
MODEL 5
REMARK VINA RESULT:      -6.2     23.853     26.308
REMARK  Name = SB_202190.pdbqt.pdb
REMARK  4 active torsions:
REMARK  status: ('A' for Active; 'I' for Inactive)
REMARK    1  A    between atoms: C_4  and  C_7
REMARK    2  A    between atoms: C_5  and  C_19
REMARK    3  A    between atoms: C_6  and  C_8
REMARK    4  A    between atoms: C_15  and  O_26
REMARK                            x       y       z     vdW  Elec       q    Type
REMARK                         _______ _______ _______ _____ _____    ______ ____
ROOT
ATOM      1  N   UNL     1       7.726   1.287 -20.111  0.00  0.00    +0.000 N 
ATOM      2  N   UNL     1       7.759   1.124 -17.919  0.00  0.00    +0.000 NA
ATOM      3  C   UNL     1       9.064   1.331 -19.773  0.00  0.00    +0.000 A 
ATOM      4  C   UNL     1       9.048   1.257 -18.387  0.00  0.00    +0.000 A 
ATOM      5  C   UNL     1       6.970   1.146 -18.973  0.00  0.00    +0.000 A 
ATOM      6  H   UNL     1       7.355   1.313 -21.051  0.00  0.00    +0.000 HD
ENDROOT
BRANCH   4   7
ATOM      7  C   UNL     1      10.172   1.319 -17.477  0.00  0.00    +0.000 A 
ATOM      8  C   UNL     1      10.509   2.503 -16.817  0.00  0.00    +0.000 A 
ATOM      9  C   UNL     1      11.566   2.533 -15.910  0.00  0.00    +0.000 A 
ATOM     10  C   UNL     1      12.274   1.364 -15.654  0.00  0.00    +0.000 A 
ATOM     11  F   UNL     1      13.294   1.390 -14.786  0.00  0.00    +0.000 F 
ATOM     12  C   UNL     1      11.944   0.171 -16.286  0.00  0.00    +0.000 A 
ATOM     13  C   UNL     1      10.886   0.152 -17.192  0.00  0.00    +0.000 A 
ENDBRANCH   4   7
BRANCH   3  15
ATOM     14  N   UNL     1      12.107   1.525 -22.756  0.00  0.00    +0.000 NA
ATOM     15  C   UNL     1      10.119   1.397 -20.780  0.00  0.00    +0.000 A 
ATOM     16  C   UNL     1      10.718   0.234 -21.261  0.00  0.00    +0.000 A 
ATOM     17  C   UNL     1      10.518   2.625 -21.308  0.00  0.00    +0.000 A 
ATOM     18  C   UNL     1      11.697   0.350 -22.234  0.00  0.00    +0.000 A 
ATOM     19  C   UNL     1      11.508   2.635 -22.277  0.00  0.00    +0.000 A 
ENDBRANCH   3  15
BRANCH   5  20
ATOM     20  C   UNL     1       5.515   1.040 -18.964  0.00  0.00    +0.000 A 
ATOM     21  C   UNL     1       4.792   1.503 -17.862  0.00  0.00    +0.000 A 
ATOM     22  C   UNL     1       4.821   0.483 -20.042  0.00  0.00    +0.000 A 
ATOM     23  C   UNL     1       3.402   1.413 -17.831  0.00  0.00    +0.000 A 
ATOM     24  C   UNL     1       3.432   0.387 -20.022  0.00  0.00    +0.000 A 
ATOM     25  C   UNL     1       2.733   0.854 -18.915  0.00  0.00    +0.000 A 
BRANCH  25  26
ATOM     26  O   UNL     1       1.373   0.751 -18.916  0.00  0.00    +0.000 OA
ATOM     27  H   UNL     1       1.137  -0.163 -19.150  0.00  0.00    +0.000 HD
ENDBRANCH  25  26
ENDBRANCH   5  20
TORSDOF 4
ENDMDL
MODEL 6
REMARK VINA RESULT:      -6.2     14.081     17.885
REMARK  Name = SB_202190.pdbqt.pdb
REMARK  4 active torsions:
REMARK  status: ('A' for Active; 'I' for Inactive)
REMARK    1  A    between atoms: C_4  and  C_7
REMARK    2  A    between atoms: C_5  and  C_19
REMARK    3  A    between atoms: C_6  and  C_8
REMARK    4  A    between atoms: C_15  and  O_26
REMARK                            x       y       z     vdW  Elec       q    Type
REMARK                         _______ _______ _______ _____ _____    ______ ____
ROOT
ATOM      1  N   UNL     1     -12.709 -13.508 -12.887  0.00  0.00    +0.000 N 
ATOM      2  N   UNL     1     -11.105 -13.090 -11.444  0.00  0.00    +0.000 NA
ATOM      3  C   UNL     1     -12.656 -12.131 -12.806  0.00  0.00    +0.000 A 
ATOM      4  C   UNL     1     -11.659 -11.902 -11.868  0.00  0.00    +0.000 A 
ATOM      5  C   UNL     1     -11.751 -14.053 -12.066  0.00  0.00    +0.000 A 
ATOM      6  H   UNL     1     -13.326 -14.039 -13.485  0.00  0.00    +0.000 HD
ENDROOT
BRANCH   4   7
ATOM      7  C   UNL     1     -11.207 -10.633 -11.338  0.00  0.00    +0.000 A 
ATOM      8  C   UNL     1     -11.359 -10.315  -9.986  0.00  0.00    +0.000 A 
ATOM      9  C   UNL     1     -10.877  -9.109  -9.484  0.00  0.00    +0.000 A 
ATOM     10  C   UNL     1     -10.227  -8.228 -10.340  0.00  0.00    +0.000 A 
ATOM     11  F   UNL     1      -9.766  -7.064  -9.862  0.00  0.00    +0.000 F 
ATOM     12  C   UNL     1     -10.049  -8.533 -11.685  0.00  0.00    +0.000 A 
ATOM     13  C   UNL     1     -10.535  -9.741 -12.178  0.00  0.00    +0.000 A 
ENDBRANCH   4   7
BRANCH   3  15
ATOM     14  N   UNL     1     -15.161  -9.662 -15.221  0.00  0.00    +0.000 NA
ATOM     15  C   UNL     1     -13.503 -11.270 -13.628  0.00  0.00    +0.000 A 
ATOM     16  C   UNL     1     -13.137 -10.947 -14.933  0.00  0.00    +0.000 A 
ATOM     17  C   UNL     1     -14.714 -10.789 -13.132  0.00  0.00    +0.000 A 
ATOM     18  C   UNL     1     -13.987 -10.147 -15.678  0.00  0.00    +0.000 A 
ATOM     19  C   UNL     1     -15.494  -9.993 -13.956  0.00  0.00    +0.000 A 
ENDBRANCH   3  15
BRANCH   5  20
ATOM     20  C   UNL     1     -11.511 -15.485 -11.927  0.00  0.00    +0.000 A 
ATOM     21  C   UNL     1     -10.668 -15.951 -10.914  0.00  0.00    +0.000 A 
ATOM     22  C   UNL     1     -12.108 -16.409 -12.789  0.00  0.00    +0.000 A 
ATOM     23  C   UNL     1     -10.424 -17.314 -10.761  0.00  0.00    +0.000 A 
ATOM     24  C   UNL     1     -11.870 -17.774 -12.645  0.00  0.00    +0.000 A 
ATOM     25  C   UNL     1     -11.029 -18.215 -11.631  0.00  0.00    +0.000 A 
BRANCH  25  26
ATOM     26  O   UNL     1     -10.810 -19.556 -11.507  0.00  0.00    +0.000 OA
ATOM     27  H   UNL     1     -10.837 -19.783 -10.561  0.00  0.00    +0.000 HD
ENDBRANCH  25  26
ENDBRANCH   5  20
TORSDOF 4
ENDMDL
MODEL 7
REMARK VINA RESULT:      -6.1     18.561     21.337
REMARK  Name = SB_202190.pdbqt.pdb
REMARK  4 active torsions:
REMARK  status: ('A' for Active; 'I' for Inactive)
REMARK    1  A    between atoms: C_4  and  C_7
REMARK    2  A    between atoms: C_5  and  C_19
REMARK    3  A    between atoms: C_6  and  C_8
REMARK    4  A    between atoms: C_15  and  O_26
REMARK                            x       y       z     vdW  Elec       q    Type
REMARK                         _______ _______ _______ _____ _____    ______ ____
ROOT
ATOM      1  N   UNL     1      -7.866  -3.445 -21.308  0.00  0.00    +0.000 N 
ATOM      2  N   UNL     1      -5.691  -3.126 -21.320  0.00  0.00    +0.000 NA
ATOM      3  C   UNL     1      -7.631  -2.565 -20.270  0.00  0.00    +0.000 A 
ATOM      4  C   UNL     1      -6.252  -2.410 -20.286  0.00  0.00    +0.000 A 
ATOM      5  C   UNL     1      -6.678  -3.749 -21.928  0.00  0.00    +0.000 A 
ATOM      6  H   UNL     1      -8.772  -3.785 -21.598  0.00  0.00    +0.000 HD
ENDROOT
BRANCH   4   7
ATOM      7  C   UNL     1      -5.431  -1.638 -19.376  0.00  0.00    +0.000 A 
ATOM      8  C   UNL     1      -4.952  -0.374 -19.724  0.00  0.00    +0.000 A 
ATOM      9  C   UNL     1      -4.201   0.374 -18.820  0.00  0.00    +0.000 A 
ATOM     10  C   UNL     1      -3.947  -0.146 -17.556  0.00  0.00    +0.000 A 
ATOM     11  F   UNL     1      -3.221   0.568 -16.685  0.00  0.00    +0.000 F 
ATOM     12  C   UNL     1      -4.429  -1.395 -17.183  0.00  0.00    +0.000 A 
ATOM     13  C   UNL     1      -5.178  -2.135 -18.095  0.00  0.00    +0.000 A 
ENDBRANCH   4   7
BRANCH   3  15
ATOM     14  N   UNL     1     -10.828  -0.947 -17.955  0.00  0.00    +0.000 NA
ATOM     15  C   UNL     1      -8.714  -1.997 -19.473  0.00  0.00    +0.000 A 
ATOM     16  C   UNL     1      -9.546  -1.012 -20.001  0.00  0.00    +0.000 A 
ATOM     17  C   UNL     1      -8.959  -2.460 -18.180  0.00  0.00    +0.000 A 
ATOM     18  C   UNL     1     -10.574  -0.523 -19.211  0.00  0.00    +0.000 A 
ATOM     19  C   UNL     1     -10.011  -1.904 -17.470  0.00  0.00    +0.000 A 
ENDBRANCH   3  15
BRANCH   5  20
ATOM     20  C   UNL     1      -6.560  -4.632 -23.083  0.00  0.00    +0.000 A 
ATOM     21  C   UNL     1      -5.309  -4.845 -23.669  0.00  0.00    +0.000 A 
ATOM     22  C   UNL     1      -7.678  -5.276 -23.622  0.00  0.00    +0.000 A 
ATOM     23  C   UNL     1      -5.173  -5.684 -24.772  0.00  0.00    +0.000 A 
ATOM     24  C   UNL     1      -7.552  -6.117 -24.726  0.00  0.00    +0.000 A 
ATOM     25  C   UNL     1      -6.299  -6.314 -25.292  0.00  0.00    +0.000 A 
BRANCH  25  26
ATOM     26  O   UNL     1      -6.198  -7.142 -26.372  0.00  0.00    +0.000 OA
ATOM     27  H   UNL     1      -6.416  -8.046 -26.084  0.00  0.00    +0.000 HD
ENDBRANCH  25  26
ENDBRANCH   5  20
TORSDOF 4
ENDMDL
MODEL 8
REMARK VINA RESULT:      -6.1     19.467     22.083
REMARK  Name = SB_202190.pdbqt.pdb
REMARK  4 active torsions:
REMARK  status: ('A' for Active; 'I' for Inactive)
REMARK    1  A    between atoms: C_4  and  C_7
REMARK    2  A    between atoms: C_5  and  C_19
REMARK    3  A    between atoms: C_6  and  C_8
REMARK    4  A    between atoms: C_15  and  O_26
REMARK                            x       y       z     vdW  Elec       q    Type
REMARK                         _______ _______ _______ _____ _____    ______ ____
ROOT
ATOM      1  N   UNL     1      -0.887  -3.067 -19.812  0.00  0.00    +0.000 N 
ATOM      2  N   UNL     1      -0.738  -1.144 -18.758  0.00  0.00    +0.000 NA
ATOM      3  C   UNL     1       0.468  -2.842 -19.676  0.00  0.00    +0.000 A 
ATOM      4  C   UNL     1       0.527  -1.612 -19.037  0.00  0.00    +0.000 A 
ATOM      5  C   UNL     1      -1.584  -2.033 -19.234  0.00  0.00    +0.000 A 
ATOM      6  H   UNL     1      -1.309  -3.882 -20.234  0.00  0.00    +0.000 HD
ENDROOT
BRANCH   4   7
ATOM      7  C   UNL     1       1.704  -0.844 -18.686  0.00  0.00    +0.000 A 
ATOM      8  C   UNL     1       1.915   0.437 -19.200  0.00  0.00    +0.000 A 
ATOM      9  C   UNL     1       3.029   1.180 -18.817  0.00  0.00    +0.000 A 
ATOM     10  C   UNL     1       3.923   0.638 -17.900  0.00  0.00    +0.000 A 
ATOM     11  F   UNL     1       4.998   1.348 -17.532  0.00  0.00    +0.000 F 
ATOM     12  C   UNL     1       3.722  -0.628 -17.363  0.00  0.00    +0.000 A 
ATOM     13  C   UNL     1       2.605  -1.363 -17.754  0.00  0.00    +0.000 A 
ENDBRANCH   4   7
BRANCH   3  15
ATOM     14  N   UNL     1       3.354  -5.677 -21.030  0.00  0.00    +0.000 NA
ATOM     15  C   UNL     1       1.466  -3.810 -20.123  0.00  0.00    +0.000 A 
ATOM     16  C   UNL     1       1.395  -5.143 -19.724  0.00  0.00    +0.000 A 
ATOM     17  C   UNL     1       2.486  -3.424 -20.992  0.00  0.00    +0.000 A 
ATOM     18  C   UNL     1       2.352  -6.026 -20.195  0.00  0.00    +0.000 A 
ATOM     19  C   UNL     1       3.397  -4.382 -21.406  0.00  0.00    +0.000 A 
ENDBRANCH   3  15
BRANCH   5  20
ATOM     20  C   UNL     1      -3.040  -1.960 -19.174  0.00  0.00    +0.000 A 
ATOM     21  C   UNL     1      -3.779  -1.863 -20.356  0.00  0.00    +0.000 A 
ATOM     22  C   UNL     1      -3.718  -1.985 -17.952  0.00  0.00    +0.000 A 
ATOM     23  C   UNL     1      -5.169  -1.792 -20.323  0.00  0.00    +0.000 A 
ATOM     24  C   UNL     1      -5.109  -1.915 -17.908  0.00  0.00    +0.000 A 
ATOM     25  C   UNL     1      -5.823  -1.819 -19.096  0.00  0.00    +0.000 A 
BRANCH  25  26
ATOM     26  O   UNL     1      -7.185  -1.751 -19.030  0.00  0.00    +0.000 OA
ATOM     27  H   UNL     1      -7.522  -2.635 -18.801  0.00  0.00    +0.000 HD
ENDBRANCH  25  26
ENDBRANCH   5  20
TORSDOF 4
ENDMDL
MODEL 9
REMARK VINA RESULT:      -6.0     26.823     28.896
REMARK  Name = SB_202190.pdbqt.pdb
REMARK  4 active torsions:
REMARK  status: ('A' for Active; 'I' for Inactive)
REMARK    1  A    between atoms: C_4  and  C_7
REMARK    2  A    between atoms: C_5  and  C_19
REMARK    3  A    between atoms: C_6  and  C_8
REMARK    4  A    between atoms: C_15  and  O_26
REMARK                            x       y       z     vdW  Elec       q    Type
REMARK                         _______ _______ _______ _____ _____    ______ ____
ROOT
ATOM      1  N   UNL     1      11.563   0.835 -22.003  0.00  0.00    +0.000 N 
ATOM      2  N   UNL     1      12.937   0.928 -20.289  0.00  0.00    +0.000 NA
ATOM      3  C   UNL     1      10.754   1.094 -20.915  0.00  0.00    +0.000 A 
ATOM      4  C   UNL     1      11.644   1.116 -19.850  0.00  0.00    +0.000 A 
ATOM      5  C   UNL     1      12.873   0.757 -21.593  0.00  0.00    +0.000 A 
ATOM      6  H   UNL     1      11.253   0.755 -22.961  0.00  0.00    +0.000 HD
ENDROOT
BRANCH   4   7
ATOM      7  C   UNL     1      11.349   1.288 -18.443  0.00  0.00    +0.000 A 
ATOM      8  C   UNL     1      11.080   2.549 -17.906  0.00  0.00    +0.000 A 
ATOM      9  C   UNL     1      10.753   2.691 -16.560  0.00  0.00    +0.000 A 
ATOM     10  C   UNL     1      10.679   1.559 -15.757  0.00  0.00    +0.000 A 
ATOM     11  F   UNL     1      10.369   1.692 -14.460  0.00  0.00    +0.000 F 
ATOM     12  C   UNL     1      10.925   0.293 -16.275  0.00  0.00    +0.000 A 
ATOM     13  C   UNL     1      11.252   0.162 -17.622  0.00  0.00    +0.000 A 
ENDBRANCH   4   7
BRANCH   3  15
ATOM     14  N   UNL     1       6.556   1.764 -21.262  0.00  0.00    +0.000 NA
ATOM     15  C   UNL     1       9.317   1.311 -21.049  0.00  0.00    +0.000 A 
ATOM     16  C   UNL     1       8.406   0.439 -20.455  0.00  0.00    +0.000 A 
ATOM     17  C   UNL     1       8.830   2.419 -21.741  0.00  0.00    +0.000 A 
ATOM     18  C   UNL     1       7.053   0.703 -20.592  0.00  0.00    +0.000 A 
ATOM     19  C   UNL     1       7.458   2.594 -21.823  0.00  0.00    +0.000 A 
ENDBRANCH   3  15
BRANCH   5  20
ATOM     20  C   UNL     1      13.999   0.520 -22.489  0.00  0.00    +0.000 A 
ATOM     21  C   UNL     1      14.937  -0.468 -22.178  0.00  0.00    +0.000 A 
ATOM     22  C   UNL     1      14.163   1.263 -23.662  0.00  0.00    +0.000 A 
ATOM     23  C   UNL     1      16.020  -0.713 -23.019  0.00  0.00    +0.000 A 
ATOM     24  C   UNL     1      15.243   1.026 -24.509  0.00  0.00    +0.000 A 
ATOM     25  C   UNL     1      16.163   0.039 -24.180  0.00  0.00    +0.000 A 
BRANCH  25  26
ATOM     26  O   UNL     1      17.213  -0.177 -25.025  0.00  0.00    +0.000 OA
ATOM     27  H   UNL     1      17.564   0.688 -25.301  0.00  0.00    +0.000 HD
ENDBRANCH  25  26
ENDBRANCH   5  20
TORSDOF 4
ENDMDL
