MODEL 1
REMARK VINA RESULT:      -6.6      0.000      0.000
REMARK  Name = Simvastatin.pdbqt.pdb
REMARK  7 active torsions:
REMARK  status: ('A' for Active; 'I' for Inactive)
REMARK    1  A    between atoms: C_2  and  C_13
REMARK    2  A    between atoms: C_3  and  O_24
REMARK    3  A    between atoms: C_14  and  C_15
REMARK    4  A    between atoms: C_20  and  O_22
REMARK    5  A    between atoms: O_24  and  C_25
REMARK    6  A    between atoms: C_25  and  C_27
REMARK    7  A    between atoms: C_27  and  C_30
REMARK                            x       y       z     vdW  Elec       q    Type
REMARK                         _______ _______ _______ _____ _____    ______ ____
ROOT
ATOM      1  C   UNL     1     -10.364  -3.536  -0.831  0.00  0.00    +0.000 A 
ATOM      2  C   UNL     1      -9.331  -2.834  -1.685  0.00  0.00    +0.000 A 
ATOM      3  C   UNL     1     -10.723  -3.167   0.584  0.00  0.00    +0.000 A 
ATOM      4  C   UNL     1      -9.277  -3.099  -3.148  0.00  0.00    +0.000 A 
ATOM      5  C   UNL     1     -11.166  -4.672  -1.503  0.00  0.00    +0.000 A 
ATOM      6  C   UNL     1     -11.816  -3.959   1.080  0.00  0.00    +0.000 A 
ATOM      7  C   UNL     1     -12.643  -4.977   0.508  0.00  0.00    +0.000 A 
ATOM      8  C   UNL     1     -12.144  -5.180  -0.814  0.00  0.00    +0.000 A 
ATOM      9  C   UNL     1     -10.201  -4.107  -3.549  0.00  0.00    +0.000 A 
ATOM     10  C   UNL     1     -10.973  -4.755  -2.900  0.00  0.00    +0.000 A 
ATOM     11  C   UNL     1      -8.343  -2.469  -4.136  0.00  0.00    +0.000 C 
ATOM     12  C   UNL     1     -14.116  -4.971   0.767  0.00  0.00    +0.000 C 
ENDROOT
BRANCH   2  13
ATOM     13  C   UNL     1      -8.288  -2.098  -1.049  0.00  0.00    +0.000 C 
ATOM     14  C   UNL     1      -7.205  -1.246  -0.377  0.00  0.00    +0.000 C 
BRANCH  14  15
ATOM     15  C   UNL     1      -6.248  -0.413   0.250  0.00  0.00    +0.000 C 
ATOM     16  O   UNL     1      -5.118  -1.046   0.886  0.00  0.00    +0.000 OA
ATOM     17  C   UNL     1      -4.168  -0.279   1.568  0.00  0.00    +0.000 C 
ATOM     18  O   UNL     1      -3.188  -0.745   2.129  0.00  0.00    +0.000 OA
ATOM     19  C   UNL     1      -4.443   1.136   1.566  0.00  0.00    +0.000 C 
ATOM     20  C   UNL     1      -5.481   1.921   1.019  0.00  0.00    +0.000 C 
ATOM     21  C   UNL     1      -6.334   0.999   0.373  0.00  0.00    +0.000 C 
BRANCH  20  22
ATOM     22  O   UNL     1      -5.939   3.037   1.655  0.00  0.00    +0.000 OA
ATOM     23  H   UNL     1      -6.248   3.723   1.032  0.00  0.00    +0.000 HD
ENDBRANCH  20  22
ENDBRANCH  14  15
ENDBRANCH   2  13
BRANCH   3  24
ATOM     24  O   UNL     1     -10.724  -1.796   0.857  0.00  0.00    +0.000 OA
BRANCH  24  25
ATOM     25  C   UNL     1      -9.966  -1.477   1.969  0.00  0.00    +0.000 C 
ATOM     26  O   UNL     1      -9.142  -2.243   2.474  0.00  0.00    +0.000 OA
BRANCH  25  27
ATOM     27  C   UNL     1     -10.318  -0.042   2.495  0.00  0.00    +0.000 C 
ATOM     28  C   UNL     1      -8.991   0.716   2.872  0.00  0.00    +0.000 C 
ATOM     29  C   UNL     1     -11.240  -0.119   3.779  0.00  0.00    +0.000 C 
BRANCH  27  30
ATOM     30  C   UNL     1     -11.047   0.662   1.402  0.00  0.00    +0.000 C 
ATOM     31  C   UNL     1     -11.804   1.440   0.286  0.00  0.00    +0.000 C 
ENDBRANCH  27  30
ENDBRANCH  25  27
ENDBRANCH  24  25
ENDBRANCH   3  24
TORSDOF 7
ENDMDL
MODEL 2
REMARK VINA RESULT:      -6.2      1.388      2.189
REMARK  Name = Simvastatin.pdbqt.pdb
REMARK  7 active torsions:
REMARK  status: ('A' for Active; 'I' for Inactive)
REMARK    1  A    between atoms: C_2  and  C_13
REMARK    2  A    between atoms: C_3  and  O_24
REMARK    3  A    between atoms: C_14  and  C_15
REMARK    4  A    between atoms: C_20  and  O_22
REMARK    5  A    between atoms: O_24  and  C_25
REMARK    6  A    between atoms: C_25  and  C_27
REMARK    7  A    between atoms: C_27  and  C_30
REMARK                            x       y       z     vdW  Elec       q    Type
REMARK                         _______ _______ _______ _____ _____    ______ ____
ROOT
ATOM      1  C   UNL     1     -10.063  -3.411  -0.536  0.00  0.00    +0.000 A 
ATOM      2  C   UNL     1      -8.975  -2.770  -1.370  0.00  0.00    +0.000 A 
ATOM      3  C   UNL     1     -10.389  -3.060   0.892  0.00  0.00    +0.000 A 
ATOM      4  C   UNL     1      -8.944  -2.991  -2.841  0.00  0.00    +0.000 A 
ATOM      5  C   UNL     1     -10.956  -4.454  -1.241  0.00  0.00    +0.000 A 
ATOM      6  C   UNL     1     -11.543  -3.774   1.365  0.00  0.00    +0.000 A 
ATOM      7  C   UNL     1     -12.453  -4.701   0.764  0.00  0.00    +0.000 A 
ATOM      8  C   UNL     1     -11.973  -4.901  -0.566  0.00  0.00    +0.000 A 
ATOM      9  C   UNL     1      -9.949  -3.905  -3.271  0.00  0.00    +0.000 A 
ATOM     10  C   UNL     1     -10.772  -4.507  -2.641  0.00  0.00    +0.000 A 
ATOM     11  C   UNL     1      -7.962  -2.409  -3.811  0.00  0.00    +0.000 C 
ATOM     12  C   UNL     1     -13.919  -4.582   1.027  0.00  0.00    +0.000 C 
ENDROOT
BRANCH   2  13
ATOM     13  C   UNL     1      -7.875  -2.144  -0.714  0.00  0.00    +0.000 C 
ATOM     14  C   UNL     1      -6.739  -1.433   0.031  0.00  0.00    +0.000 C 
BRANCH  14  15
ATOM     15  C   UNL     1      -5.732  -0.762   0.766  0.00  0.00    +0.000 C 
ATOM     16  O   UNL     1      -6.151   0.146   1.807  0.00  0.00    +0.000 OA
ATOM     17  C   UNL     1      -5.205   0.879   2.530  0.00  0.00    +0.000 C 
ATOM     18  O   UNL     1      -5.485   1.664   3.423  0.00  0.00    +0.000 OA
ATOM     19  C   UNL     1      -3.841   0.637   2.128  0.00  0.00    +0.000 C 
ATOM     20  C   UNL     1      -3.252  -0.188   1.146  0.00  0.00    +0.000 C 
ATOM     21  C   UNL     1      -4.336  -0.846   0.524  0.00  0.00    +0.000 C 
BRANCH  20  22
ATOM     22  O   UNL     1      -2.132   0.201   0.470  0.00  0.00    +0.000 OA
ATOM     23  H   UNL     1      -2.338   0.586  -0.403  0.00  0.00    +0.000 HD
ENDBRANCH  20  22
ENDBRANCH  14  15
ENDBRANCH   2  13
BRANCH   3  24
ATOM     24  O   UNL     1     -10.276  -1.703   1.208  0.00  0.00    +0.000 OA
BRANCH  24  25
ATOM     25  C   UNL     1     -11.493  -1.132   1.532  0.00  0.00    +0.000 C 
ATOM     26  O   UNL     1     -12.053  -1.294   2.618  0.00  0.00    +0.000 OA
BRANCH  25  27
ATOM     27  C   UNL     1     -12.053  -0.288   0.335  0.00  0.00    +0.000 C 
ATOM     28  C   UNL     1     -13.095  -1.152  -0.471  0.00  0.00    +0.000 C 
ATOM     29  C   UNL     1     -10.890   0.146  -0.646  0.00  0.00    +0.000 C 
BRANCH  27  30
ATOM     30  C   UNL     1     -12.695   0.926   0.913  0.00  0.00    +0.000 C 
ATOM     31  C   UNL     1     -13.339   2.223   1.485  0.00  0.00    +0.000 C 
ENDBRANCH  27  30
ENDBRANCH  25  27
ENDBRANCH  24  25
ENDBRANCH   3  24
TORSDOF 7
ENDMDL
MODEL 3
REMARK VINA RESULT:      -6.2     25.994     28.065
REMARK  Name = Simvastatin.pdbqt.pdb
REMARK  7 active torsions:
REMARK  status: ('A' for Active; 'I' for Inactive)
REMARK    1  A    between atoms: C_2  and  C_13
REMARK    2  A    between atoms: C_3  and  O_24
REMARK    3  A    between atoms: C_14  and  C_15
REMARK    4  A    between atoms: C_20  and  O_22
REMARK    5  A    between atoms: O_24  and  C_25
REMARK    6  A    between atoms: C_25  and  C_27
REMARK    7  A    between atoms: C_27  and  C_30
REMARK                            x       y       z     vdW  Elec       q    Type
REMARK                         _______ _______ _______ _____ _____    ______ ____
ROOT
ATOM      1  C   UNL     1       9.824   0.717 -18.063  0.00  0.00    +0.000 A 
ATOM      2  C   UNL     1       8.892   0.704 -19.256  0.00  0.00    +0.000 A 
ATOM      3  C   UNL     1      10.702  -0.427 -17.630  0.00  0.00    +0.000 A 
ATOM      4  C   UNL     1       8.305   1.979 -19.749  0.00  0.00    +0.000 A 
ATOM      5  C   UNL     1       9.934   2.043 -17.281  0.00  0.00    +0.000 A 
ATOM      6  C   UNL     1      11.547  -0.061 -16.526  0.00  0.00    +0.000 A 
ATOM      7  C   UNL     1      11.751   1.149 -15.791  0.00  0.00    +0.000 A 
ATOM      8  C   UNL     1      10.834   2.094 -16.345  0.00  0.00    +0.000 A 
ATOM      9  C   UNL     1       8.650   3.088 -18.924  0.00  0.00    +0.000 A 
ATOM     10  C   UNL     1       9.308   3.135 -17.922  0.00  0.00    +0.000 A 
ATOM     11  C   UNL     1       7.396   2.146 -20.928  0.00  0.00    +0.000 C 
ATOM     12  C   UNL     1      13.137   1.570 -15.420  0.00  0.00    +0.000 C 
ENDROOT
BRANCH   2  13
ATOM     13  C   UNL     1       8.419  -0.545 -19.753  0.00  0.00    +0.000 C 
ATOM     14  C   UNL     1       7.924  -1.866 -20.355  0.00  0.00    +0.000 C 
BRANCH  14  15
ATOM     15  C   UNL     1       7.502  -3.072 -20.965  0.00  0.00    +0.000 C 
ATOM     16  O   UNL     1       8.111  -3.442 -22.219  0.00  0.00    +0.000 OA
ATOM     17  C   UNL     1       7.697  -4.594 -22.896  0.00  0.00    +0.000 C 
ATOM     18  O   UNL     1       8.166  -4.968 -23.960  0.00  0.00    +0.000 OA
ATOM     19  C   UNL     1       6.643  -5.319 -22.230  0.00  0.00    +0.000 C 
ATOM     20  C   UNL     1       5.930  -5.110 -21.031  0.00  0.00    +0.000 C 
ATOM     21  C   UNL     1       6.472  -3.925 -20.486  0.00  0.00    +0.000 C 
BRANCH  20  22
ATOM     22  O   UNL     1       4.612  -5.443 -20.920  0.00  0.00    +0.000 OA
ATOM     23  H   UNL     1       4.123  -4.840 -20.327  0.00  0.00    +0.000 HD
ENDBRANCH  20  22
ENDBRANCH  14  15
ENDBRANCH   2  13
BRANCH   3  24
ATOM     24  O   UNL     1      11.264  -1.170 -18.673  0.00  0.00    +0.000 OA
BRANCH  24  25
ATOM     25  C   UNL     1      11.131  -2.533 -18.483  0.00  0.00    +0.000 C 
ATOM     26  O   UNL     1      10.710  -3.037 -17.439  0.00  0.00    +0.000 OA
BRANCH  25  27
ATOM     27  C   UNL     1      11.604  -3.326 -19.751  0.00  0.00    +0.000 C 
ATOM     28  C   UNL     1      10.726  -4.623 -19.914  0.00  0.00    +0.000 C 
ATOM     29  C   UNL     1      13.121  -3.755 -19.617  0.00  0.00    +0.000 C 
BRANCH  27  30
ATOM     30  C   UNL     1      11.446  -2.419 -20.922  0.00  0.00    +0.000 C 
ATOM     31  C   UNL     1      11.232  -1.471 -22.139  0.00  0.00    +0.000 C 
ENDBRANCH  27  30
ENDBRANCH  25  27
ENDBRANCH  24  25
ENDBRANCH   3  24
TORSDOF 7
ENDMDL
MODEL 4
REMARK VINA RESULT:      -6.0     25.951     29.422
REMARK  Name = Simvastatin.pdbqt.pdb
REMARK  7 active torsions:
REMARK  status: ('A' for Active; 'I' for Inactive)
REMARK    1  A    between atoms: C_2  and  C_13
REMARK    2  A    between atoms: C_3  and  O_24
REMARK    3  A    between atoms: C_14  and  C_15
REMARK    4  A    between atoms: C_20  and  O_22
REMARK    5  A    between atoms: O_24  and  C_25
REMARK    6  A    between atoms: C_25  and  C_27
REMARK    7  A    between atoms: C_27  and  C_30
REMARK                            x       y       z     vdW  Elec       q    Type
REMARK                         _______ _______ _______ _____ _____    ______ ____
ROOT
ATOM      1  C   UNL     1      10.781   2.318 -20.261  0.00  0.00    +0.000 A 
ATOM      2  C   UNL     1      10.894   2.167 -21.762  0.00  0.00    +0.000 A 
ATOM      3  C   UNL     1       9.548   2.762 -19.519  0.00  0.00    +0.000 A 
ATOM      4  C   UNL     1      12.057   1.448 -22.348  0.00  0.00    +0.000 A 
ATOM      5  C   UNL     1      12.012   1.905 -19.426  0.00  0.00    +0.000 A 
ATOM      6  C   UNL     1       9.732   2.699 -18.095  0.00  0.00    +0.000 A 
ATOM      7  C   UNL     1      10.807   2.275 -17.251  0.00  0.00    +0.000 A 
ATOM      8  C   UNL     1      11.866   1.905 -18.134  0.00  0.00    +0.000 A 
ATOM      9  C   UNL     1      13.006   1.059 -21.358  0.00  0.00    +0.000 A 
ATOM     10  C   UNL     1      13.006   1.234 -20.172  0.00  0.00    +0.000 A 
ATOM     11  C   UNL     1      12.305   1.185 -23.802  0.00  0.00    +0.000 C 
ATOM     12  C   UNL     1      10.519   1.458 -16.032  0.00  0.00    +0.000 C 
ENDROOT
BRANCH   2  13
ATOM     13  C   UNL     1      10.006   2.900 -22.602  0.00  0.00    +0.000 C 
ATOM     14  C   UNL     1       9.086   3.663 -23.564  0.00  0.00    +0.000 C 
BRANCH  14  15
ATOM     15  C   UNL     1       8.256   4.327 -24.498  0.00  0.00    +0.000 C 
ATOM     16  O   UNL     1       8.877   4.877 -25.679  0.00  0.00    +0.000 OA
ATOM     17  C   UNL     1       8.117   5.590 -26.612  0.00  0.00    +0.000 C 
ATOM     18  O   UNL     1       8.574   6.083 -27.632  0.00  0.00    +0.000 OA
ATOM     19  C   UNL     1       6.722   5.708 -26.267  0.00  0.00    +0.000 C 
ATOM     20  C   UNL     1       5.952   5.256 -25.174  0.00  0.00    +0.000 C 
ATOM     21  C   UNL     1       6.864   4.564 -24.347  0.00  0.00    +0.000 C 
BRANCH  20  22
ATOM     22  O   UNL     1       4.915   5.993 -24.683  0.00  0.00    +0.000 OA
ATOM     23  H   UNL     1       4.292   6.274 -25.380  0.00  0.00    +0.000 HD
ENDBRANCH  20  22
ENDBRANCH  14  15
ENDBRANCH   2  13
BRANCH   3  24
ATOM     24  O   UNL     1       8.340   2.299 -20.050  0.00  0.00    +0.000 OA
BRANCH  24  25
ATOM     25  C   UNL     1       7.731   1.359 -19.239  0.00  0.00    +0.000 C 
ATOM     26  O   UNL     1       7.194   1.632 -18.164  0.00  0.00    +0.000 OA
BRANCH  25  27
ATOM     27  C   UNL     1       7.845  -0.076 -19.862  0.00  0.00    +0.000 C 
ATOM     28  C   UNL     1       7.936   0.042 -21.430  0.00  0.00    +0.000 C 
ATOM     29  C   UNL     1       6.582  -0.956 -19.494  0.00  0.00    +0.000 C 
BRANCH  27  30
ATOM     30  C   UNL     1       9.071  -0.707 -19.298  0.00  0.00    +0.000 C 
ATOM     31  C   UNL     1      10.370  -1.322 -18.700  0.00  0.00    +0.000 C 
ENDBRANCH  27  30
ENDBRANCH  25  27
ENDBRANCH  24  25
ENDBRANCH   3  24
TORSDOF 7
ENDMDL
MODEL 5
REMARK VINA RESULT:      -6.0     17.642     21.031
REMARK  Name = Simvastatin.pdbqt.pdb
REMARK  7 active torsions:
REMARK  status: ('A' for Active; 'I' for Inactive)
REMARK    1  A    between atoms: C_2  and  C_13
REMARK    2  A    between atoms: C_3  and  O_24
REMARK    3  A    between atoms: C_14  and  C_15
REMARK    4  A    between atoms: C_20  and  O_22
REMARK    5  A    between atoms: O_24  and  C_25
REMARK    6  A    between atoms: C_25  and  C_27
REMARK    7  A    between atoms: C_27  and  C_30
REMARK                            x       y       z     vdW  Elec       q    Type
REMARK                         _______ _______ _______ _____ _____    ______ ____
ROOT
ATOM      1  C   UNL     1      -8.821  -3.636 -21.479  0.00  0.00    +0.000 A 
ATOM      2  C   UNL     1      -7.344  -3.419 -21.731  0.00  0.00    +0.000 A 
ATOM      3  C   UNL     1      -9.644  -2.917 -20.442  0.00  0.00    +0.000 A 
ATOM      4  C   UNL     1      -6.716  -3.966 -22.963  0.00  0.00    +0.000 A 
ATOM      5  C   UNL     1      -9.549  -4.618 -22.421  0.00  0.00    +0.000 A 
ATOM      6  C   UNL     1     -11.035  -3.272 -20.529  0.00  0.00    +0.000 A 
ATOM      7  C   UNL     1     -11.792  -4.117 -21.400  0.00  0.00    +0.000 A 
ATOM      8  C   UNL     1     -10.840  -4.699 -22.292  0.00  0.00    +0.000 A 
ATOM      9  C   UNL     1      -7.627  -4.743 -23.735  0.00  0.00    +0.000 A 
ATOM     10  C   UNL     1      -8.777  -5.018 -23.534  0.00  0.00    +0.000 A 
ATOM     11  C   UNL     1      -5.284  -3.816 -23.378  0.00  0.00    +0.000 C 
ATOM     12  C   UNL     1     -13.122  -3.662 -21.908  0.00  0.00    +0.000 C 
ENDROOT
BRANCH   2  13
ATOM     13  C   UNL     1      -6.533  -2.886 -20.686  0.00  0.00    +0.000 C 
ATOM     14  C   UNL     1      -5.685  -2.246 -19.581  0.00  0.00    +0.000 C 
BRANCH  14  15
ATOM     15  C   UNL     1      -4.939  -1.603 -18.564  0.00  0.00    +0.000 C 
ATOM     16  O   UNL     1      -5.269  -1.907 -17.192  0.00  0.00    +0.000 OA
ATOM     17  C   UNL     1      -4.604  -1.264 -16.144  0.00  0.00    +0.000 C 
ATOM     18  O   UNL     1      -4.831  -1.470 -14.961  0.00  0.00    +0.000 OA
ATOM     19  C   UNL     1      -3.612  -0.310 -16.575  0.00  0.00    +0.000 C 
ATOM     20  C   UNL     1      -3.167   0.120 -17.843  0.00  0.00    +0.000 C 
ATOM     21  C   UNL     1      -3.931  -0.624 -18.769  0.00  0.00    +0.000 C 
BRANCH  20  22
ATOM     22  O   UNL     1      -2.786   1.411 -18.063  0.00  0.00    +0.000 OA
ATOM     23  H   UNL     1      -2.033   1.679 -17.502  0.00  0.00    +0.000 HD
ENDBRANCH  20  22
ENDBRANCH  14  15
ENDBRANCH   2  13
BRANCH   3  24
ATOM     24  O   UNL     1      -9.315  -1.572 -20.254  0.00  0.00    +0.000 OA
BRANCH  24  25
ATOM     25  C   UNL     1     -10.389  -0.729 -20.477  0.00  0.00    +0.000 C 
ATOM     26  O   UNL     1     -11.348  -0.630 -19.709  0.00  0.00    +0.000 OA
BRANCH  25  27
ATOM     27  C   UNL     1     -10.221   0.046 -21.830  0.00  0.00    +0.000 C 
ATOM     28  C   UNL     1     -10.877   1.472 -21.700  0.00  0.00    +0.000 C 
ATOM     29  C   UNL     1     -10.925  -0.727 -23.018  0.00  0.00    +0.000 C 
BRANCH  27  30
ATOM     30  C   UNL     1      -8.760   0.149 -22.102  0.00  0.00    +0.000 C 
ATOM     31  C   UNL     1      -7.238   0.227 -22.424  0.00  0.00    +0.000 C 
ENDBRANCH  27  30
ENDBRANCH  25  27
ENDBRANCH  24  25
ENDBRANCH   3  24
TORSDOF 7
ENDMDL
MODEL 6
REMARK VINA RESULT:      -5.9     19.526     22.530
REMARK  Name = Simvastatin.pdbqt.pdb
REMARK  7 active torsions:
REMARK  status: ('A' for Active; 'I' for Inactive)
REMARK    1  A    between atoms: C_2  and  C_13
REMARK    2  A    between atoms: C_3  and  O_24
REMARK    3  A    between atoms: C_14  and  C_15
REMARK    4  A    between atoms: C_20  and  O_22
REMARK    5  A    between atoms: O_24  and  C_25
REMARK    6  A    between atoms: C_25  and  C_27
REMARK    7  A    between atoms: C_27  and  C_30
REMARK                            x       y       z     vdW  Elec       q    Type
REMARK                         _______ _______ _______ _____ _____    ______ ____
ROOT
ATOM      1  C   UNL     1      -3.039  -1.675 -20.943  0.00  0.00    +0.000 A 
ATOM      2  C   UNL     1      -2.662  -1.041 -19.621  0.00  0.00    +0.000 A 
ATOM      3  C   UNL     1      -2.186  -2.642 -21.721  0.00  0.00    +0.000 A 
ATOM      4  C   UNL     1      -3.697  -0.341 -18.815  0.00  0.00    +0.000 A 
ATOM      5  C   UNL     1      -4.448  -1.359 -21.488  0.00  0.00    +0.000 A 
ATOM      6  C   UNL     1      -2.874  -3.143 -22.880  0.00  0.00    +0.000 A 
ATOM      7  C   UNL     1      -4.186  -2.950 -23.417  0.00  0.00    +0.000 A 
ATOM      8  C   UNL     1      -4.821  -2.010 -22.550  0.00  0.00    +0.000 A 
ATOM      9  C   UNL     1      -4.954  -0.282 -19.483  0.00  0.00    +0.000 A 
ATOM     10  C   UNL     1      -5.279  -0.688 -20.564  0.00  0.00    +0.000 A 
ATOM     11  C   UNL     1      -3.500   0.310 -17.479  0.00  0.00    +0.000 C 
ATOM     12  C   UNL     1      -4.950  -4.117 -23.954  0.00  0.00    +0.000 C 
ENDROOT
BRANCH   2  13
ATOM     13  C   UNL     1      -1.284  -0.933 -19.272  0.00  0.00    +0.000 C 
ATOM     14  C   UNL     1       0.197  -0.747 -18.919  0.00  0.00    +0.000 C 
BRANCH  14  15
ATOM     15  C   UNL     1       1.554  -0.512 -18.593  0.00  0.00    +0.000 C 
ATOM     16  O   UNL     1       2.291  -1.582 -17.966  0.00  0.00    +0.000 OA
ATOM     17  C   UNL     1       3.620  -1.392 -17.572  0.00  0.00    +0.000 C 
ATOM     18  O   UNL     1       4.304  -2.251 -17.037  0.00  0.00    +0.000 OA
ATOM     19  C   UNL     1       4.130  -0.072 -17.845  0.00  0.00    +0.000 C 
ATOM     20  C   UNL     1       3.568   1.084 -18.428  0.00  0.00    +0.000 C 
ATOM     21  C   UNL     1       2.246   0.716 -18.764  0.00  0.00    +0.000 C 
BRANCH  20  22
ATOM     22  O   UNL     1       3.904   2.334 -17.997  0.00  0.00    +0.000 OA
ATOM     23  H   UNL     1       4.868   2.443 -17.882  0.00  0.00    +0.000 HD
ENDBRANCH  20  22
ENDBRANCH  14  15
ENDBRANCH   2  13
BRANCH   3  24
ATOM     24  O   UNL     1      -1.456  -3.546 -20.944  0.00  0.00    +0.000 OA
BRANCH  24  25
ATOM     25  C   UNL     1      -0.121  -3.593 -21.302  0.00  0.00    +0.000 C 
ATOM     26  O   UNL     1       0.389  -2.834 -22.129  0.00  0.00    +0.000 OA
BRANCH  25  27
ATOM     27  C   UNL     1       0.625  -4.741 -20.538  0.00  0.00    +0.000 C 
ATOM     28  C   UNL     1      -0.121  -5.036 -19.182  0.00  0.00    +0.000 C 
ATOM     29  C   UNL     1       2.118  -4.331 -20.214  0.00  0.00    +0.000 C 
BRANCH  27  30
ATOM     30  C   UNL     1       0.620  -5.938 -21.425  0.00  0.00    +0.000 C 
ATOM     31  C   UNL     1       0.658  -7.202 -22.333  0.00  0.00    +0.000 C 
ENDBRANCH  27  30
ENDBRANCH  25  27
ENDBRANCH  24  25
ENDBRANCH   3  24
TORSDOF 7
ENDMDL
MODEL 7
REMARK VINA RESULT:      -5.9     23.450     26.536
REMARK  Name = Simvastatin.pdbqt.pdb
REMARK  7 active torsions:
REMARK  status: ('A' for Active; 'I' for Inactive)
REMARK    1  A    between atoms: C_2  and  C_13
REMARK    2  A    between atoms: C_3  and  O_24
REMARK    3  A    between atoms: C_14  and  C_15
REMARK    4  A    between atoms: C_20  and  O_22
REMARK    5  A    between atoms: O_24  and  C_25
REMARK    6  A    between atoms: C_25  and  C_27
REMARK    7  A    between atoms: C_27  and  C_30
REMARK                            x       y       z     vdW  Elec       q    Type
REMARK                         _______ _______ _______ _____ _____    ______ ____
ROOT
ATOM      1  C   UNL     1       4.407 -15.743 -13.700  0.00  0.00    +0.000 A 
ATOM      2  C   UNL     1       4.904 -16.444 -12.453  0.00  0.00    +0.000 A 
ATOM      3  C   UNL     1       5.075 -15.787 -15.049  0.00  0.00    +0.000 A 
ATOM      4  C   UNL     1       4.011 -16.567 -11.269  0.00  0.00    +0.000 A 
ATOM      5  C   UNL     1       3.063 -14.992 -13.587  0.00  0.00    +0.000 A 
ATOM      6  C   UNL     1       4.298 -15.107 -16.049  0.00  0.00    +0.000 A 
ATOM      7  C   UNL     1       3.029 -14.446 -16.040  0.00  0.00    +0.000 A 
ATOM      8  C   UNL     1       2.572 -14.509 -14.689  0.00  0.00    +0.000 A 
ATOM      9  C   UNL     1       2.772 -15.888 -11.454  0.00  0.00    +0.000 A 
ATOM     10  C   UNL     1       2.370 -15.246 -12.383  0.00  0.00    +0.000 A 
ATOM     11  C   UNL     1       4.332 -17.252  -9.976  0.00  0.00    +0.000 C 
ATOM     12  C   UNL     1       2.073 -14.653 -17.171  0.00  0.00    +0.000 C 
ENDROOT
BRANCH   2  13
ATOM     13  C   UNL     1       6.285 -16.781 -12.350  0.00  0.00    +0.000 C 
ATOM     14  C   UNL     1       7.758 -17.169 -12.172  0.00  0.00    +0.000 C 
BRANCH  14  15
ATOM     15  C   UNL     1       9.100 -17.567 -11.960  0.00  0.00    +0.000 C 
ATOM     16  O   UNL     1       9.625 -17.475 -10.619  0.00  0.00    +0.000 OA
ATOM     17  C   UNL     1      10.959 -17.803 -10.357  0.00  0.00    +0.000 C 
ATOM     18  O   UNL     1      11.472 -17.750  -9.250  0.00  0.00    +0.000 OA
ATOM     19  C   UNL     1      11.703 -18.212 -11.522  0.00  0.00    +0.000 C 
ATOM     20  C   UNL     1      11.370 -18.350 -12.887  0.00  0.00    +0.000 C 
ATOM     21  C   UNL     1      10.007 -17.987 -12.968  0.00  0.00    +0.000 C 
BRANCH  20  22
ATOM     22  O   UNL     1      12.273 -18.070 -13.871  0.00  0.00    +0.000 OA
ATOM     23  H   UNL     1      12.427 -17.112 -13.975  0.00  0.00    +0.000 HD
ENDBRANCH  20  22
ENDBRANCH  14  15
ENDBRANCH   2  13
BRANCH   3  24
ATOM     24  O   UNL     1       5.655 -17.014 -15.384  0.00  0.00    +0.000 OA
BRANCH  24  25
ATOM     25  C   UNL     1       6.948 -16.877 -15.855  0.00  0.00    +0.000 C 
ATOM     26  O   UNL     1       7.540 -15.797 -15.914  0.00  0.00    +0.000 OA
BRANCH  25  27
ATOM     27  C   UNL     1       7.527 -18.260 -16.314  0.00  0.00    +0.000 C 
ATOM     28  C   UNL     1       9.082 -18.129 -16.530  0.00  0.00    +0.000 C 
ATOM     29  C   UNL     1       6.866 -18.730 -17.672  0.00  0.00    +0.000 C 
BRANCH  27  30
ATOM     30  C   UNL     1       7.215 -19.247 -15.242  0.00  0.00    +0.000 C 
ATOM     31  C   UNL     1       6.856 -20.246 -14.104  0.00  0.00    +0.000 C 
ENDBRANCH  27  30
ENDBRANCH  25  27
ENDBRANCH  24  25
ENDBRANCH   3  24
TORSDOF 7
ENDMDL
MODEL 8
REMARK VINA RESULT:      -5.8     23.878     26.988
REMARK  Name = Simvastatin.pdbqt.pdb
REMARK  7 active torsions:
REMARK  status: ('A' for Active; 'I' for Inactive)
REMARK    1  A    between atoms: C_2  and  C_13
REMARK    2  A    between atoms: C_3  and  O_24
REMARK    3  A    between atoms: C_14  and  C_15
REMARK    4  A    between atoms: C_20  and  O_22
REMARK    5  A    between atoms: O_24  and  C_25
REMARK    6  A    between atoms: C_25  and  C_27
REMARK    7  A    between atoms: C_27  and  C_30
REMARK                            x       y       z     vdW  Elec       q    Type
REMARK                         _______ _______ _______ _____ _____    ______ ____
ROOT
ATOM      1  C   UNL     1       4.522 -15.539 -14.340  0.00  0.00    +0.000 A 
ATOM      2  C   UNL     1       5.356 -15.949 -13.145  0.00  0.00    +0.000 A 
ATOM      3  C   UNL     1       4.824 -15.883 -15.774  0.00  0.00    +0.000 A 
ATOM      4  C   UNL     1       4.803 -15.803 -11.772  0.00  0.00    +0.000 A 
ATOM      5  C   UNL     1       3.214 -14.773 -14.044  0.00  0.00    +0.000 A 
ATOM      6  C   UNL     1       3.783 -15.437 -16.659  0.00  0.00    +0.000 A 
ATOM      7  C   UNL     1       2.526 -14.782 -16.462  0.00  0.00    +0.000 A 
ATOM      8  C   UNL     1       2.433 -14.543 -15.058  0.00  0.00    +0.000 A 
ATOM      9  C   UNL     1       3.524 -15.174 -11.768  0.00  0.00    +0.000 A 
ATOM     10  C   UNL     1       2.865 -14.750 -12.676  0.00  0.00    +0.000 A 
ATOM     11  C   UNL     1       5.479 -16.187 -10.491  0.00  0.00    +0.000 C 
ATOM     12  C   UNL     1       1.325 -15.229 -17.233  0.00  0.00    +0.000 C 
ENDROOT
BRANCH   2  13
ATOM     13  C   UNL     1       6.733 -16.264 -13.336  0.00  0.00    +0.000 C 
ATOM     14  C   UNL     1       8.208 -16.583 -13.610  0.00  0.00    +0.000 C 
BRANCH  14  15
ATOM     15  C   UNL     1       9.565 -16.841 -13.917  0.00  0.00    +0.000 C 
ATOM     16  O   UNL     1      10.291 -17.742 -13.055  0.00  0.00    +0.000 OA
ATOM     17  C   UNL     1      11.649 -17.994 -13.275  0.00  0.00    +0.000 C 
ATOM     18  O   UNL     1      12.326 -18.743 -12.587  0.00  0.00    +0.000 OA
ATOM     19  C   UNL     1      12.204 -17.281 -14.398  0.00  0.00    +0.000 C 
ATOM     20  C   UNL     1      11.665 -16.369 -15.330  0.00  0.00    +0.000 C 
ATOM     21  C   UNL     1      10.306 -16.235 -14.966  0.00  0.00    +0.000 C 
BRANCH  20  22
ATOM     22  O   UNL     1      12.406 -15.336 -15.825  0.00  0.00    +0.000 OA
ATOM     23  H   UNL     1      12.389 -15.297 -16.800  0.00  0.00    +0.000 HD
ENDBRANCH  20  22
ENDBRANCH  14  15
ENDBRANCH   2  13
BRANCH   3  24
ATOM     24  O   UNL     1       5.362 -17.157 -15.977  0.00  0.00    +0.000 OA
BRANCH  24  25
ATOM     25  C   UNL     1       6.512 -17.130 -16.745  0.00  0.00    +0.000 C 
ATOM     26  O   UNL     1       6.978 -16.100 -17.237  0.00  0.00    +0.000 OA
BRANCH  25  27
ATOM     27  C   UNL     1       7.108 -18.571 -16.914  0.00  0.00    +0.000 C 
ATOM     28  C   UNL     1       8.634 -18.464 -17.289  0.00  0.00    +0.000 C 
ATOM     29  C   UNL     1       6.360 -19.363 -18.060  0.00  0.00    +0.000 C 
BRANCH  27  30
ATOM     30  C   UNL     1       6.923 -19.280 -15.617  0.00  0.00    +0.000 C 
ATOM     31  C   UNL     1       6.753 -19.985 -14.239  0.00  0.00    +0.000 C 
ENDBRANCH  27  30
ENDBRANCH  25  27
ENDBRANCH  24  25
ENDBRANCH   3  24
TORSDOF 7
ENDMDL
MODEL 9
REMARK VINA RESULT:      -5.8      2.756      6.676
REMARK  Name = Simvastatin.pdbqt.pdb
REMARK  7 active torsions:
REMARK  status: ('A' for Active; 'I' for Inactive)
REMARK    1  A    between atoms: C_2  and  C_13
REMARK    2  A    between atoms: C_3  and  O_24
REMARK    3  A    between atoms: C_14  and  C_15
REMARK    4  A    between atoms: C_20  and  O_22
REMARK    5  A    between atoms: O_24  and  C_25
REMARK    6  A    between atoms: C_25  and  C_27
REMARK    7  A    between atoms: C_27  and  C_30
REMARK                            x       y       z     vdW  Elec       q    Type
REMARK                         _______ _______ _______ _____ _____    ______ ____
ROOT
ATOM      1  C   UNL     1      -8.554  -1.181  -0.204  0.00  0.00    +0.000 A 
ATOM      2  C   UNL     1      -9.873  -1.712  -0.722  0.00  0.00    +0.000 A 
ATOM      3  C   UNL     1      -8.396  -0.133   0.867  0.00  0.00    +0.000 A 
ATOM      4  C   UNL     1      -9.898  -2.942  -1.559  0.00  0.00    +0.000 A 
ATOM      5  C   UNL     1      -7.273  -1.831  -0.768  0.00  0.00    +0.000 A 
ATOM      6  C   UNL     1      -7.015   0.074   1.208  0.00  0.00    +0.000 A 
ATOM      7  C   UNL     1      -5.786  -0.523   0.781  0.00  0.00    +0.000 A 
ATOM      8  C   UNL     1      -6.149  -1.471  -0.223  0.00  0.00    +0.000 A 
ATOM      9  C   UNL     1      -8.589  -3.424  -1.848  0.00  0.00    +0.000 A 
ATOM     10  C   UNL     1      -7.515  -2.990  -1.538  0.00  0.00    +0.000 A 
ATOM     11  C   UNL     1     -11.113  -3.613  -2.123  0.00  0.00    +0.000 C 
ATOM     12  C   UNL     1      -4.730  -0.854   1.786  0.00  0.00    +0.000 C 
ENDROOT
BRANCH   2  13
ATOM     13  C   UNL     1     -11.045  -0.911  -0.587  0.00  0.00    +0.000 C 
ATOM     14  C   UNL     1     -12.345  -0.110  -0.440  0.00  0.00    +0.000 C 
BRANCH  14  15
ATOM     15  C   UNL     1     -13.573   0.575  -0.282  0.00  0.00    +0.000 C 
ATOM     16  O   UNL     1     -13.782   1.771  -1.062  0.00  0.00    +0.000 OA
ATOM     17  C   UNL     1     -14.953   2.521  -0.910  0.00  0.00    +0.000 C 
ATOM     18  O   UNL     1     -15.197   3.542  -1.535  0.00  0.00    +0.000 OA
ATOM     19  C   UNL     1     -15.868   1.989   0.069  0.00  0.00    +0.000 C 
ATOM     20  C   UNL     1     -15.833   0.862   0.918  0.00  0.00    +0.000 C 
ATOM     21  C   UNL     1     -14.602   0.229   0.634  0.00  0.00    +0.000 C 
BRANCH  20  22
ATOM     22  O   UNL     1     -16.378   0.896   2.168  0.00  0.00    +0.000 OA
ATOM     23  H   UNL     1     -17.085   1.565   2.249  0.00  0.00    +0.000 HD
ENDBRANCH  20  22
ENDBRANCH  14  15
ENDBRANCH   2  13
BRANCH   3  24
ATOM     24  O   UNL     1      -9.330  -0.201   1.905  0.00  0.00    +0.000 OA
BRANCH  24  25
ATOM     25  C   UNL     1      -9.189  -1.345   2.669  0.00  0.00    +0.000 C 
ATOM     26  O   UNL     1      -8.111  -1.914   2.851  0.00  0.00    +0.000 OA
BRANCH  25  27
ATOM     27  C   UNL     1     -10.575  -1.814   3.236  0.00  0.00    +0.000 C 
ATOM     28  C   UNL     1     -11.628  -0.656   3.064  0.00  0.00    +0.000 C 
ATOM     29  C   UNL     1     -10.465  -2.175   4.772  0.00  0.00    +0.000 C 
BRANCH  27  30
ATOM     30  C   UNL     1     -10.978  -3.026   2.468  0.00  0.00    +0.000 C 
ATOM     31  C   UNL     1     -11.368  -4.280   1.631  0.00  0.00    +0.000 C 
ENDBRANCH  27  30
ENDBRANCH  25  27
ENDBRANCH  24  25
ENDBRANCH   3  24
TORSDOF 7
ENDMDL
