MODEL 1
REMARK VINA RESULT:      -7.6      0.000      0.000
REMARK  Name = Staurosporine.pdbqt.pdb
REMARK  2 active torsions:
REMARK  status: ('A' for Active; 'I' for Inactive)
REMARK    1  A    between atoms: C_3  and  O_11
REMARK    2  A    between atoms: C_5  and  N_8
REMARK                            x       y       z     vdW  Elec       q    Type
REMARK                         _______ _______ _______ _____ _____    ______ ____
ROOT
ATOM      1  O   UNL     1       9.315   1.371 -19.976  0.00  0.00    +0.000 OA
ATOM      2  C   UNL     1      10.321   0.373 -19.647  0.00  0.00    +0.000 C 
ATOM      3  C   UNL     1      10.869   0.452 -18.209  0.00  0.00    +0.000 C 
ATOM      4  C   UNL     1       8.302   1.458 -19.035  0.00  0.00    +0.000 C 
ATOM      5  C   UNL     1      10.055   1.100 -17.184  0.00  0.00    +0.000 C 
ATOM      6  C   UNL     1       8.850   1.570 -17.740  0.00  0.00    +0.000 C 
ATOM      7  C   UNL     1      11.506   0.731 -20.607  0.00  0.00    +0.000 C 
ATOM      8  N   UNL     1       9.744  -0.954 -19.962  0.00  0.00    +0.000 N 
ATOM      9  C   UNL     1       8.444  -1.386 -20.042  0.00  0.00    +0.000 A 
ATOM     10  C   UNL     1       7.284  -0.677 -19.715  0.00  0.00    +0.000 A 
ATOM     11  C   UNL     1       8.194  -2.710 -20.427  0.00  0.00    +0.000 A 
ATOM     12  N   UNL     1       7.247   0.585 -19.205  0.00  0.00    +0.000 N 
ATOM     13  C   UNL     1       6.094  -1.415 -19.792  0.00  0.00    +0.000 A 
ATOM     14  C   UNL     1       5.893   0.663 -18.823  0.00  0.00    +0.000 A 
ATOM     15  C   UNL     1       5.167  -0.524 -19.207  0.00  0.00    +0.000 A 
ATOM     16  C   UNL     1       5.238   1.728 -18.183  0.00  0.00    +0.000 A 
ATOM     17  C   UNL     1       3.792  -0.583 -18.906  0.00  0.00    +0.000 A 
ATOM     18  C   UNL     1       3.160   0.484 -18.270  0.00  0.00    +0.000 A 
ATOM     19  C   UNL     1       3.875   1.619 -17.914  0.00  0.00    +0.000 A 
ATOM     20  C   UNL     1       5.831  -2.742 -20.187  0.00  0.00    +0.000 A 
ATOM     21  C   UNL     1       7.011  -3.451 -20.548  0.00  0.00    +0.000 A 
ATOM     22  C   UNL     1       4.674  -3.601 -20.288  0.00  0.00    +0.000 C 
ATOM     23  C   UNL     1       6.589  -4.833 -20.899  0.00  0.00    +0.000 C 
ATOM     24  N   UNL     1       5.251  -4.805 -20.716  0.00  0.00    +0.000 N 
ATOM     25  H   UNL     1       4.667  -5.612 -20.882  0.00  0.00    +0.000 HD
ATOM     26  O   UNL     1       3.479  -3.442 -20.087  0.00  0.00    +0.000 OA
ATOM     27  C   UNL     1       9.490  -3.224 -20.595  0.00  0.00    +0.000 A 
ATOM     28  C   UNL     1      10.419  -2.160 -20.295  0.00  0.00    +0.000 A 
ATOM     29  C   UNL     1      10.005  -4.488 -20.948  0.00  0.00    +0.000 A 
ATOM     30  C   UNL     1      11.802  -2.405 -20.365  0.00  0.00    +0.000 A 
ATOM     31  C   UNL     1      12.264  -3.672 -20.723  0.00  0.00    +0.000 A 
ATOM     32  C   UNL     1      11.381  -4.699 -21.012  0.00  0.00    +0.000 A 
ENDROOT
BRANCH   5  33
ATOM     33  N   UNL     1      10.343   1.059 -15.792  0.00  0.00    +0.000 N 
ATOM     34  C   UNL     1      11.144   2.157 -15.299  0.00  0.00    +0.000 C 
ATOM     35  H   UNL     1      10.583   0.134 -15.429  0.00  0.00    +0.000 HD
ENDBRANCH   5  33
BRANCH   3  36
ATOM     36  O   UNL     1      11.785  -0.519 -17.864  0.00  0.00    +0.000 OA
ATOM     37  C   UNL     1      11.264  -1.418 -16.922  0.00  0.00    +0.000 C 
ENDBRANCH   3  36
TORSDOF 2
ENDMDL
MODEL 2
REMARK VINA RESULT:      -7.4     24.676     28.010
REMARK  Name = Staurosporine.pdbqt.pdb
REMARK  2 active torsions:
REMARK  status: ('A' for Active; 'I' for Inactive)
REMARK    1  A    between atoms: C_3  and  O_11
REMARK    2  A    between atoms: C_5  and  N_8
REMARK                            x       y       z     vdW  Elec       q    Type
REMARK                         _______ _______ _______ _____ _____    ______ ____
ROOT
ATOM      1  O   UNL     1     -11.921  -1.772   3.007  0.00  0.00    +0.000 OA
ATOM      2  C   UNL     1     -10.526  -1.740   3.416  0.00  0.00    +0.000 C 
ATOM      3  C   UNL     1     -10.138  -2.782   4.484  0.00  0.00    +0.000 C 
ATOM      4  C   UNL     1     -12.368  -3.043   2.682  0.00  0.00    +0.000 C 
ATOM      5  C   UNL     1     -10.961  -3.981   4.623  0.00  0.00    +0.000 C 
ATOM      6  C   UNL     1     -12.027  -3.953   3.705  0.00  0.00    +0.000 C 
ATOM      7  C   UNL     1     -10.382  -0.330   4.083  0.00  0.00    +0.000 C 
ATOM      8  N   UNL     1      -9.704  -1.852   2.190  0.00  0.00    +0.000 N 
ATOM      9  C   UNL     1      -9.977  -2.389   0.957  0.00  0.00    +0.000 A 
ATOM     10  C   UNL     1     -11.112  -3.106   0.567  0.00  0.00    +0.000 A 
ATOM     11  C   UNL     1      -9.007  -2.296  -0.050  0.00  0.00    +0.000 A 
ATOM     12  N   UNL     1     -12.152  -3.441   1.379  0.00  0.00    +0.000 N 
ATOM     13  C   UNL     1     -11.067  -3.631  -0.733  0.00  0.00    +0.000 A 
ATOM     14  C   UNL     1     -12.831  -4.359   0.554  0.00  0.00    +0.000 A 
ATOM     15  C   UNL     1     -12.212  -4.458  -0.746  0.00  0.00    +0.000 A 
ATOM     16  C   UNL     1     -13.986  -5.099   0.856  0.00  0.00    +0.000 A 
ATOM     17  C   UNL     1     -12.793  -5.328  -1.689  0.00  0.00    +0.000 A 
ATOM     18  C   UNL     1     -13.939  -6.054  -1.371  0.00  0.00    +0.000 A 
ATOM     19  C   UNL     1     -14.522  -5.941  -0.117  0.00  0.00    +0.000 A 
ATOM     20  C   UNL     1     -10.103  -3.535  -1.755  0.00  0.00    +0.000 A 
ATOM     21  C   UNL     1      -8.962  -2.780  -1.365  0.00  0.00    +0.000 A 
ATOM     22  C   UNL     1      -9.940  -4.038  -3.100  0.00  0.00    +0.000 C 
ATOM     23  C   UNL     1      -8.021  -2.798  -2.517  0.00  0.00    +0.000 C 
ATOM     24  N   UNL     1      -8.676  -3.537  -3.439  0.00  0.00    +0.000 N 
ATOM     25  H   UNL     1      -8.286  -3.729  -4.351  0.00  0.00    +0.000 HD
ATOM     26  O   UNL     1     -10.634  -4.717  -3.842  0.00  0.00    +0.000 OA
ATOM     27  C   UNL     1      -7.953  -1.642   0.608  0.00  0.00    +0.000 A 
ATOM     28  C   UNL     1      -8.377  -1.394   1.965  0.00  0.00    +0.000 A 
ATOM     29  C   UNL     1      -6.656  -1.241   0.223  0.00  0.00    +0.000 A 
ATOM     30  C   UNL     1      -7.500  -0.760   2.862  0.00  0.00    +0.000 A 
ATOM     31  C   UNL     1      -6.228  -0.379   2.434  0.00  0.00    +0.000 A 
ATOM     32  C   UNL     1      -5.810  -0.613   1.135  0.00  0.00    +0.000 A 
ENDROOT
BRANCH   5  33
ATOM     33  N   UNL     1     -10.603  -5.107   5.414  0.00  0.00    +0.000 N 
ATOM     34  C   UNL     1     -10.688  -6.383   4.738  0.00  0.00    +0.000 C 
ATOM     35  H   UNL     1     -10.953  -5.089   6.374  0.00  0.00    +0.000 HD
ENDBRANCH   5  33
BRANCH   3  36
ATOM     36  O   UNL     1      -8.808  -2.801   4.846  0.00  0.00    +0.000 OA
ATOM     37  C   UNL     1      -8.623  -2.396   6.175  0.00  0.00    +0.000 C 
ENDBRANCH   3  36
TORSDOF 2
ENDMDL
MODEL 3
REMARK VINA RESULT:      -7.2     22.820     26.879
REMARK  Name = Staurosporine.pdbqt.pdb
REMARK  2 active torsions:
REMARK  status: ('A' for Active; 'I' for Inactive)
REMARK    1  A    between atoms: C_3  and  O_11
REMARK    2  A    between atoms: C_5  and  N_8
REMARK                            x       y       z     vdW  Elec       q    Type
REMARK                         _______ _______ _______ _____ _____    ______ ____
ROOT
ATOM      1  O   UNL     1     -14.347  10.857  -9.684  0.00  0.00    +0.000 OA
ATOM      2  C   UNL     1     -14.731  10.829  -8.282  0.00  0.00    +0.000 C 
ATOM      3  C   UNL     1     -16.218  10.513  -8.022  0.00  0.00    +0.000 C 
ATOM      4  C   UNL     1     -14.777   9.747 -10.393  0.00  0.00    +0.000 C 
ATOM      5  C   UNL     1     -16.972   9.798  -9.049  0.00  0.00    +0.000 C 
ATOM      6  C   UNL     1     -16.150   9.522 -10.157  0.00  0.00    +0.000 C 
ATOM      7  C   UNL     1     -14.491  12.305  -7.816  0.00  0.00    +0.000 C 
ATOM      8  N   UNL     1     -13.823   9.883  -7.595  0.00  0.00    +0.000 N 
ATOM      9  C   UNL     1     -13.097   8.816  -8.062  0.00  0.00    +0.000 A 
ATOM     10  C   UNL     1     -13.128   8.252  -9.342  0.00  0.00    +0.000 A 
ATOM     11  C   UNL     1     -12.261   8.126  -7.174  0.00  0.00    +0.000 A 
ATOM     12  N   UNL     1     -13.939   8.652 -10.360  0.00  0.00    +0.000 N 
ATOM     13  C   UNL     1     -12.357   7.092  -9.500  0.00  0.00    +0.000 A 
ATOM     14  C   UNL     1     -13.746   7.590 -11.267  0.00  0.00    +0.000 A 
ATOM     15  C   UNL     1     -12.760   6.655 -10.781  0.00  0.00    +0.000 A 
ATOM     16  C   UNL     1     -14.359   7.402 -12.516  0.00  0.00    +0.000 A 
ATOM     17  C   UNL     1     -12.447   5.545 -11.592  0.00  0.00    +0.000 A 
ATOM     18  C   UNL     1     -13.067   5.376 -12.828  0.00  0.00    +0.000 A 
ATOM     19  C   UNL     1     -14.008   6.289 -13.279  0.00  0.00    +0.000 A 
ATOM     20  C   UNL     1     -11.505   6.398  -8.618  0.00  0.00    +0.000 A 
ATOM     21  C   UNL     1     -11.453   6.991  -7.326  0.00  0.00    +0.000 A 
ATOM     22  C   UNL     1     -10.689   5.207  -8.661  0.00  0.00    +0.000 C 
ATOM     23  C   UNL     1     -10.559   6.138  -6.498  0.00  0.00    +0.000 C 
ATOM     24  N   UNL     1     -10.185   5.161  -7.353  0.00  0.00    +0.000 N 
ATOM     25  H   UNL     1      -9.561   4.416  -7.081  0.00  0.00    +0.000 HD
ATOM     26  O   UNL     1     -10.429   4.387  -9.528  0.00  0.00    +0.000 OA
ATOM     27  C   UNL     1     -12.482   8.806  -5.965  0.00  0.00    +0.000 A 
ATOM     28  C   UNL     1     -13.440   9.854  -6.226  0.00  0.00    +0.000 A 
ATOM     29  C   UNL     1     -11.999   8.648  -4.649  0.00  0.00    +0.000 A 
ATOM     30  C   UNL     1     -13.862  10.687  -5.175  0.00  0.00    +0.000 A 
ATOM     31  C   UNL     1     -13.353  10.494  -3.891  0.00  0.00    +0.000 A 
ATOM     32  C   UNL     1     -12.435   9.491  -3.629  0.00  0.00    +0.000 A 
ENDROOT
BRANCH   5  33
ATOM     33  N   UNL     1     -18.276   9.266  -8.855  0.00  0.00    +0.000 N 
ATOM     34  C   UNL     1     -18.412   7.855  -9.146  0.00  0.00    +0.000 C 
ATOM     35  H   UNL     1     -19.038   9.863  -9.182  0.00  0.00    +0.000 HD
ENDBRANCH   5  33
BRANCH   3  36
ATOM     36  O   UNL     1     -16.588  10.431  -6.697  0.00  0.00    +0.000 OA
ATOM     37  C   UNL     1     -17.551  11.394  -6.362  0.00  0.00    +0.000 C 
ENDBRANCH   3  36
TORSDOF 2
ENDMDL
MODEL 4
REMARK VINA RESULT:      -7.2     15.858     18.960
REMARK  Name = Staurosporine.pdbqt.pdb
REMARK  2 active torsions:
REMARK  status: ('A' for Active; 'I' for Inactive)
REMARK    1  A    between atoms: C_3  and  O_11
REMARK    2  A    between atoms: C_5  and  N_8
REMARK                            x       y       z     vdW  Elec       q    Type
REMARK                         _______ _______ _______ _____ _____    ______ ____
ROOT
ATOM      1  O   UNL     1       3.665 -14.744 -13.190  0.00  0.00    +0.000 OA
ATOM      2  C   UNL     1       3.351 -15.402 -14.447  0.00  0.00    +0.000 C 
ATOM      3  C   UNL     1       4.572 -15.919 -15.233  0.00  0.00    +0.000 C 
ATOM      4  C   UNL     1       4.530 -15.473 -12.390  0.00  0.00    +0.000 C 
ATOM      5  C   UNL     1       5.811 -16.184 -14.506  0.00  0.00    +0.000 C 
ATOM      6  C   UNL     1       5.650 -15.889 -13.140  0.00  0.00    +0.000 C 
ATOM      7  C   UNL     1       2.712 -14.255 -15.301  0.00  0.00    +0.000 C 
ATOM      8  N   UNL     1       2.373 -16.474 -14.151  0.00  0.00    +0.000 N 
ATOM      9  C   UNL     1       2.110 -17.174 -13.001  0.00  0.00    +0.000 A 
ATOM     10  C   UNL     1       2.815 -17.134 -11.793  0.00  0.00    +0.000 A 
ATOM     11  C   UNL     1       1.065 -18.107 -13.001  0.00  0.00    +0.000 A 
ATOM     12  N   UNL     1       3.940 -16.404 -11.560  0.00  0.00    +0.000 N 
ATOM     13  C   UNL     1       2.381 -18.047 -10.820  0.00  0.00    +0.000 A 
ATOM     14  C   UNL     1       4.347 -16.954 -10.328  0.00  0.00    +0.000 A 
ATOM     15  C   UNL     1       3.393 -17.923  -9.843  0.00  0.00    +0.000 A 
ATOM     16  C   UNL     1       5.492 -16.637  -9.579  0.00  0.00    +0.000 A 
ATOM     17  C   UNL     1       3.657 -18.547  -8.608  0.00  0.00    +0.000 A 
ATOM     18  C   UNL     1       4.799 -18.220  -7.879  0.00  0.00    +0.000 A 
ATOM     19  C   UNL     1       5.700 -17.281  -8.360  0.00  0.00    +0.000 A 
ATOM     20  C   UNL     1       1.326 -18.979 -10.807  0.00  0.00    +0.000 A 
ATOM     21  C   UNL     1       0.593 -18.997 -12.026  0.00  0.00    +0.000 A 
ATOM     22  C   UNL     1       0.804 -19.966  -9.890  0.00  0.00    +0.000 C 
ATOM     23  C   UNL     1      -0.451 -20.046 -11.883  0.00  0.00    +0.000 C 
ATOM     24  N   UNL     1      -0.239 -20.528 -10.639  0.00  0.00    +0.000 N 
ATOM     25  H   UNL     1      -0.804 -21.264 -10.242  0.00  0.00    +0.000 HD
ATOM     26  O   UNL     1       1.100 -20.310  -8.755  0.00  0.00    +0.000 OA
ATOM     27  C   UNL     1       0.596 -18.033 -14.323  0.00  0.00    +0.000 A 
ATOM     28  C   UNL     1       1.404 -17.056 -15.014  0.00  0.00    +0.000 A 
ATOM     29  C   UNL     1      -0.416 -18.700 -15.043  0.00  0.00    +0.000 A 
ATOM     30  C   UNL     1       1.163 -16.792 -16.373  0.00  0.00    +0.000 A 
ATOM     31  C   UNL     1       0.148 -17.476 -17.043  0.00  0.00    +0.000 A 
ATOM     32  C   UNL     1      -0.633 -18.415 -16.389  0.00  0.00    +0.000 A 
ENDROOT
BRANCH   5  33
ATOM     33  N   UNL     1       6.936 -16.852 -15.063  0.00  0.00    +0.000 N 
ATOM     34  C   UNL     1       8.170 -16.098 -15.041  0.00  0.00    +0.000 C 
ATOM     35  H   UNL     1       6.747 -17.370 -15.924  0.00  0.00    +0.000 HD
ENDBRANCH   5  33
BRANCH   3  36
ATOM     36  O   UNL     1       4.289 -16.593 -16.402  0.00  0.00    +0.000 OA
ATOM     37  C   UNL     1       4.593 -17.959 -16.305  0.00  0.00    +0.000 C 
ENDBRANCH   3  36
TORSDOF 2
ENDMDL
MODEL 5
REMARK VINA RESULT:      -7.0     19.302     23.192
REMARK  Name = Staurosporine.pdbqt.pdb
REMARK  2 active torsions:
REMARK  status: ('A' for Active; 'I' for Inactive)
REMARK    1  A    between atoms: C_3  and  O_11
REMARK    2  A    between atoms: C_5  and  N_8
REMARK                            x       y       z     vdW  Elec       q    Type
REMARK                         _______ _______ _______ _____ _____    ______ ____
ROOT
ATOM      1  O   UNL     1       6.332   0.732   4.022  0.00  0.00    +0.000 OA
ATOM      2  C   UNL     1       4.987   1.280   4.104  0.00  0.00    +0.000 C 
ATOM      3  C   UNL     1       4.699   2.105   5.374  0.00  0.00    +0.000 C 
ATOM      4  C   UNL     1       7.322   1.668   4.272  0.00  0.00    +0.000 C 
ATOM      5  C   UNL     1       5.824   2.694   6.096  0.00  0.00    +0.000 C 
ATOM      6  C   UNL     1       7.037   2.369   5.463  0.00  0.00    +0.000 C 
ATOM      7  C   UNL     1       4.084   0.002   4.177  0.00  0.00    +0.000 C 
ATOM      8  N   UNL     1       4.748   2.049   2.862  0.00  0.00    +0.000 N 
ATOM      9  C   UNL     1       5.613   2.655   1.985  0.00  0.00    +0.000 A 
ATOM     10  C   UNL     1       6.997   2.807   2.115  0.00  0.00    +0.000 A 
ATOM     11  C   UNL     1       5.093   3.272   0.840  0.00  0.00    +0.000 A 
ATOM     12  N   UNL     1       7.739   2.406   3.184  0.00  0.00    +0.000 N 
ATOM     13  C   UNL     1       7.609   3.571   1.110  0.00  0.00    +0.000 A 
ATOM     14  C   UNL     1       8.961   3.047   2.897  0.00  0.00    +0.000 A 
ATOM     15  C   UNL     1       8.915   3.725   1.624  0.00  0.00    +0.000 A 
ATOM     16  C   UNL     1      10.134   3.051   3.670  0.00  0.00    +0.000 A 
ATOM     17  C   UNL     1      10.075   4.399   1.193  0.00  0.00    +0.000 A 
ATOM     18  C   UNL     1      11.229   4.391   1.974  0.00  0.00    +0.000 A 
ATOM     19  C   UNL     1      11.254   3.729   3.193  0.00  0.00    +0.000 A 
ATOM     20  C   UNL     1       7.097   4.185  -0.050  0.00  0.00    +0.000 A 
ATOM     21  C   UNL     1       5.693   4.003  -0.194  0.00  0.00    +0.000 A 
ATOM     22  C   UNL     1       7.614   4.997  -1.128  0.00  0.00    +0.000 C 
ATOM     23  C   UNL     1       5.291   4.733  -1.426  0.00  0.00    +0.000 C 
ATOM     24  N   UNL     1       6.454   5.256  -1.870  0.00  0.00    +0.000 N 
ATOM     25  H   UNL     1       6.509   5.813  -2.711  0.00  0.00    +0.000 HD
ATOM     26  O   UNL     1       8.727   5.409  -1.421  0.00  0.00    +0.000 OA
ATOM     27  C   UNL     1       3.711   3.073   0.993  0.00  0.00    +0.000 A 
ATOM     28  C   UNL     1       3.512   2.349   2.226  0.00  0.00    +0.000 A 
ATOM     29  C   UNL     1       2.578   3.442   0.239  0.00  0.00    +0.000 A 
ATOM     30  C   UNL     1       2.208   2.028   2.640  0.00  0.00    +0.000 A 
ATOM     31  C   UNL     1       1.118   2.412   1.859  0.00  0.00    +0.000 A 
ATOM     32  C   UNL     1       1.298   3.108   0.675  0.00  0.00    +0.000 A 
ENDROOT
BRANCH   5  33
ATOM     33  N   UNL     1       5.688   3.639   7.149  0.00  0.00    +0.000 N 
ATOM     34  C   UNL     1       6.024   3.143   8.466  0.00  0.00    +0.000 C 
ATOM     35  H   UNL     1       4.854   4.229   7.096  0.00  0.00    +0.000 HD
ENDBRANCH   5  33
BRANCH   3  36
ATOM     36  O   UNL     1       3.446   2.676   5.444  0.00  0.00    +0.000 OA
ATOM     37  C   UNL     1       2.693   2.156   6.507  0.00  0.00    +0.000 C 
ENDBRANCH   3  36
TORSDOF 2
ENDMDL
MODEL 6
REMARK VINA RESULT:      -7.0     12.532     16.082
REMARK  Name = Staurosporine.pdbqt.pdb
REMARK  2 active torsions:
REMARK  status: ('A' for Active; 'I' for Inactive)
REMARK    1  A    between atoms: C_3  and  O_11
REMARK    2  A    between atoms: C_5  and  N_8
REMARK                            x       y       z     vdW  Elec       q    Type
REMARK                         _______ _______ _______ _____ _____    ______ ____
ROOT
ATOM      1  O   UNL     1      14.367  13.760 -18.641  0.00  0.00    +0.000 OA
ATOM      2  C   UNL     1      13.446  12.643 -18.512  0.00  0.00    +0.000 C 
ATOM      3  C   UNL     1      13.081  11.944 -19.838  0.00  0.00    +0.000 C 
ATOM      4  C   UNL     1      15.488  13.462 -19.400  0.00  0.00    +0.000 C 
ATOM      5  C   UNL     1      13.996  12.070 -20.970  0.00  0.00    +0.000 C 
ATOM      6  C   UNL     1      15.104  12.864 -20.619  0.00  0.00    +0.000 C 
ATOM      7  C   UNL     1      12.137  13.318 -17.979  0.00  0.00    +0.000 C 
ATOM      8  N   UNL     1      14.023  11.708 -17.520  0.00  0.00    +0.000 N 
ATOM      9  C   UNL     1      15.316  11.496 -17.113  0.00  0.00    +0.000 A 
ATOM     10  C   UNL     1      16.484  12.053 -17.645  0.00  0.00    +0.000 A 
ATOM     11  C   UNL     1      15.561  10.569 -16.092  0.00  0.00    +0.000 A 
ATOM     12  N   UNL     1      16.541  12.892 -18.716  0.00  0.00    +0.000 N 
ATOM     13  C   UNL     1      17.679  11.566 -17.097  0.00  0.00    +0.000 A 
ATOM     14  C   UNL     1      17.929  12.896 -18.959  0.00  0.00    +0.000 A 
ATOM     15  C   UNL     1      18.641  12.130 -17.964  0.00  0.00    +0.000 A 
ATOM     16  C   UNL     1      18.623  13.558 -19.986  0.00  0.00    +0.000 A 
ATOM     17  C   UNL     1      20.044  12.058 -18.066  0.00  0.00    +0.000 A 
ATOM     18  C   UNL     1      20.715  12.721 -19.092  0.00  0.00    +0.000 A 
ATOM     19  C   UNL     1      20.012  13.456 -20.036  0.00  0.00    +0.000 A 
ATOM     20  C   UNL     1      17.935  10.642 -16.064  0.00  0.00    +0.000 A 
ATOM     21  C   UNL     1      16.745  10.100 -15.506  0.00  0.00    +0.000 A 
ATOM     22  C   UNL     1      19.099  10.059 -15.438  0.00  0.00    +0.000 C 
ATOM     23  C   UNL     1      17.166   9.121 -14.468  0.00  0.00    +0.000 C 
ATOM     24  N   UNL     1      18.514   9.180 -14.516  0.00  0.00    +0.000 N 
ATOM     25  H   UNL     1      19.100   8.620 -13.913  0.00  0.00    +0.000 HD
ATOM     26  O   UNL     1      20.304  10.207 -15.580  0.00  0.00    +0.000 OA
ATOM     27  C   UNL     1      14.272  10.088 -15.808  0.00  0.00    +0.000 A 
ATOM     28  C   UNL     1      13.353  10.769 -16.688  0.00  0.00    +0.000 A 
ATOM     29  C   UNL     1      13.760   9.125 -14.914  0.00  0.00    +0.000 A 
ATOM     30  C   UNL     1      11.982  10.465 -16.630  0.00  0.00    +0.000 A 
ATOM     31  C   UNL     1      11.522   9.506 -15.727  0.00  0.00    +0.000 A 
ATOM     32  C   UNL     1      12.396   8.846 -14.880  0.00  0.00    +0.000 A 
ENDROOT
BRANCH   5  33
ATOM     33  N   UNL     1      13.888  11.317 -22.170  0.00  0.00    +0.000 N 
ATOM     34  C   UNL     1      13.008  11.879 -23.171  0.00  0.00    +0.000 C 
ATOM     35  H   UNL     1      13.823  10.305 -22.039  0.00  0.00    +0.000 HD
ENDBRANCH   5  33
BRANCH   3  36
ATOM     36  O   UNL     1      12.250  10.850 -19.728  0.00  0.00    +0.000 OA
ATOM     37  C   UNL     1      10.940  11.146 -20.134  0.00  0.00    +0.000 C 
ENDBRANCH   3  36
TORSDOF 2
ENDMDL
MODEL 7
REMARK VINA RESULT:      -6.9     24.847     27.065
REMARK  Name = Staurosporine.pdbqt.pdb
REMARK  2 active torsions:
REMARK  status: ('A' for Active; 'I' for Inactive)
REMARK    1  A    between atoms: C_3  and  O_11
REMARK    2  A    between atoms: C_5  and  N_8
REMARK                            x       y       z     vdW  Elec       q    Type
REMARK                         _______ _______ _______ _____ _____    ______ ____
ROOT
ATOM      1  O   UNL     1      -5.439  20.072  -5.537  0.00  0.00    +0.000 OA
ATOM      2  C   UNL     1      -4.643  19.406  -4.519  0.00  0.00    +0.000 C 
ATOM      3  C   UNL     1      -5.042  17.944  -4.234  0.00  0.00    +0.000 C 
ATOM      4  C   UNL     1      -5.571  19.331  -6.701  0.00  0.00    +0.000 C 
ATOM      5  C   UNL     1      -5.762  17.202  -5.266  0.00  0.00    +0.000 C 
ATOM      6  C   UNL     1      -5.978  18.015  -6.394  0.00  0.00    +0.000 C 
ATOM      7  C   UNL     1      -4.962  20.226  -3.223  0.00  0.00    +0.000 C 
ATOM      8  N   UNL     1      -3.222  19.538  -4.914  0.00  0.00    +0.000 N 
ATOM      9  C   UNL     1      -2.631  19.729  -6.137  0.00  0.00    +0.000 A 
ATOM     10  C   UNL     1      -3.244  19.726  -7.395  0.00  0.00    +0.000 A 
ATOM     11  C   UNL     1      -1.239  19.880  -6.200  0.00  0.00    +0.000 A 
ATOM     12  N   UNL     1      -4.563  19.484  -7.629  0.00  0.00    +0.000 N 
ATOM     13  C   UNL     1      -2.368  19.837  -8.484  0.00  0.00    +0.000 A 
ATOM     14  C   UNL     1      -4.547  19.335  -9.030  0.00  0.00    +0.000 A 
ATOM     15  C   UNL     1      -3.232  19.585  -9.572  0.00  0.00    +0.000 A 
ATOM     16  C   UNL     1      -5.624  19.023  -9.876  0.00  0.00    +0.000 A 
ATOM     17  C   UNL     1      -3.065  19.490 -10.968  0.00  0.00    +0.000 A 
ATOM     18  C   UNL     1      -4.146  19.179 -11.791  0.00  0.00    +0.000 A 
ATOM     19  C   UNL     1      -5.402  18.948 -11.251  0.00  0.00    +0.000 A 
ATOM     20  C   UNL     1      -0.970  20.000  -8.557  0.00  0.00    +0.000 A 
ATOM     21  C   UNL     1      -0.354  20.031  -7.275  0.00  0.00    +0.000 A 
ATOM     22  C   UNL     1       0.025  20.105  -9.600  0.00  0.00    +0.000 C 
ATOM     23  C   UNL     1       1.110  20.165  -7.507  0.00  0.00    +0.000 C 
ATOM     24  N   UNL     1       1.208  20.196  -8.854  0.00  0.00    +0.000 N 
ATOM     25  H   UNL     1       2.096  20.287  -9.328  0.00  0.00    +0.000 HD
ATOM     26  O   UNL     1      -0.024  20.122 -10.821  0.00  0.00    +0.000 OA
ATOM     27  C   UNL     1      -0.862  19.745  -4.854  0.00  0.00    +0.000 A 
ATOM     28  C   UNL     1      -2.064  19.522  -4.088  0.00  0.00    +0.000 A 
ATOM     29  C   UNL     1       0.375  19.762  -4.177  0.00  0.00    +0.000 A 
ATOM     30  C   UNL     1      -1.977  19.333  -2.697  0.00  0.00    +0.000 A 
ATOM     31  C   UNL     1      -0.731  19.361  -2.071  0.00  0.00    +0.000 A 
ATOM     32  C   UNL     1       0.429  19.574  -2.798  0.00  0.00    +0.000 A 
ENDROOT
BRANCH   5  33
ATOM     33  N   UNL     1      -6.005  15.802  -5.218  0.00  0.00    +0.000 N 
ATOM     34  C   UNL     1      -7.384  15.426  -4.997  0.00  0.00    +0.000 C 
ATOM     35  H   UNL     1      -5.308  15.261  -4.702  0.00  0.00    +0.000 HD
ENDBRANCH   5  33
BRANCH   3  36
ATOM     36  O   UNL     1      -4.265  17.282  -3.309  0.00  0.00    +0.000 OA
ATOM     37  C   UNL     1      -4.998  16.931  -2.166  0.00  0.00    +0.000 C 
ENDBRANCH   3  36
TORSDOF 2
ENDMDL
MODEL 8
REMARK VINA RESULT:      -6.9     19.265     23.667
REMARK  Name = Staurosporine.pdbqt.pdb
REMARK  2 active torsions:
REMARK  status: ('A' for Active; 'I' for Inactive)
REMARK    1  A    between atoms: C_3  and  O_11
REMARK    2  A    between atoms: C_5  and  N_8
REMARK                            x       y       z     vdW  Elec       q    Type
REMARK                         _______ _______ _______ _____ _____    ______ ____
ROOT
ATOM      1  O   UNL     1      -5.003  16.011 -13.654  0.00  0.00    +0.000 OA
ATOM      2  C   UNL     1      -5.656  17.308 -13.593  0.00  0.00    +0.000 C 
ATOM      3  C   UNL     1      -4.699  18.515 -13.512  0.00  0.00    +0.000 C 
ATOM      4  C   UNL     1      -3.999  15.946 -14.607  0.00  0.00    +0.000 C 
ATOM      5  C   UNL     1      -3.330  18.355 -13.996  0.00  0.00    +0.000 C 
ATOM      6  C   UNL     1      -3.126  17.045 -14.467  0.00  0.00    +0.000 C 
ATOM      7  C   UNL     1      -6.435  17.253 -12.236  0.00  0.00    +0.000 C 
ATOM      8  N   UNL     1      -6.576  17.393 -14.750  0.00  0.00    +0.000 N 
ATOM      9  C   UNL     1      -6.572  16.756 -15.965  0.00  0.00    +0.000 A 
ATOM     10  C   UNL     1      -5.584  15.916 -16.489  0.00  0.00    +0.000 A 
ATOM     11  C   UNL     1      -7.627  16.994 -16.857  0.00  0.00    +0.000 A 
ATOM     12  N   UNL     1      -4.403  15.613 -15.883  0.00  0.00    +0.000 N 
ATOM     13  C   UNL     1      -5.799  15.495 -17.810  0.00  0.00    +0.000 A 
ATOM     14  C   UNL     1      -3.725  14.991 -16.950  0.00  0.00    +0.000 A 
ATOM     15  C   UNL     1      -4.569  14.874 -18.115  0.00  0.00    +0.000 A 
ATOM     16  C   UNL     1      -2.414  14.487 -16.960  0.00  0.00    +0.000 A 
ATOM     17  C   UNL     1      -4.030  14.254 -19.260  0.00  0.00    +0.000 A 
ATOM     18  C   UNL     1      -2.727  13.760 -19.251  0.00  0.00    +0.000 A 
ATOM     19  C   UNL     1      -1.934  13.878 -18.119  0.00  0.00    +0.000 A 
ATOM     20  C   UNL     1      -6.860  15.720 -18.709  0.00  0.00    +0.000 A 
ATOM     21  C   UNL     1      -7.877  16.550 -18.162  0.00  0.00    +0.000 A 
ATOM     22  C   UNL     1      -7.178  15.361 -20.072  0.00  0.00    +0.000 C 
ATOM     23  C   UNL     1      -8.900  16.732 -19.227  0.00  0.00    +0.000 C 
ATOM     24  N   UNL     1      -8.402  16.018 -20.260  0.00  0.00    +0.000 N 
ATOM     25  H   UNL     1      -8.883  15.943 -21.145  0.00  0.00    +0.000 HD
ATOM     26  O   UNL     1      -6.622  14.684 -20.924  0.00  0.00    +0.000 OA
ATOM     27  C   UNL     1      -8.410  17.924 -16.154  0.00  0.00    +0.000 A 
ATOM     28  C   UNL     1      -7.758  18.171 -14.890  0.00  0.00    +0.000 A 
ATOM     29  C   UNL     1      -9.602  18.619 -16.444  0.00  0.00    +0.000 A 
ATOM     30  C   UNL     1      -8.323  19.086 -13.985  0.00  0.00    +0.000 A 
ATOM     31  C   UNL     1      -9.506  19.748 -14.316  0.00  0.00    +0.000 A 
ATOM     32  C   UNL     1     -10.138  19.519 -15.526  0.00  0.00    +0.000 A 
ENDROOT
BRANCH   5  33
ATOM     33  N   UNL     1      -2.416  19.430 -14.171  0.00  0.00    +0.000 N 
ATOM     34  C   UNL     1      -1.560  19.698 -13.036  0.00  0.00    +0.000 C 
ATOM     35  H   UNL     1      -2.801  20.252 -14.641  0.00  0.00    +0.000 HD
ENDBRANCH   5  33
BRANCH   3  36
ATOM     36  O   UNL     1      -5.300  19.755 -13.507  0.00  0.00    +0.000 OA
ATOM     37  C   UNL     1      -5.148  20.404 -12.272  0.00  0.00    +0.000 C 
ENDBRANCH   3  36
TORSDOF 2
ENDMDL
MODEL 9
REMARK VINA RESULT:      -6.9     24.064     27.119
REMARK  Name = Staurosporine.pdbqt.pdb
REMARK  2 active torsions:
REMARK  status: ('A' for Active; 'I' for Inactive)
REMARK    1  A    between atoms: C_3  and  O_11
REMARK    2  A    between atoms: C_5  and  N_8
REMARK                            x       y       z     vdW  Elec       q    Type
REMARK                         _______ _______ _______ _____ _____    ______ ____
ROOT
ATOM      1  O   UNL     1      -9.025   2.036   2.850  0.00  0.00    +0.000 OA
ATOM      2  C   UNL     1      -7.719   1.529   3.238  0.00  0.00    +0.000 C 
ATOM      3  C   UNL     1      -7.652   0.922   4.654  0.00  0.00    +0.000 C 
ATOM      4  C   UNL     1     -10.053   1.135   3.081  0.00  0.00    +0.000 C 
ATOM      5  C   UNL     1      -8.886   0.438   5.267  0.00  0.00    +0.000 C 
ATOM      6  C   UNL     1      -9.975   0.639   4.399  0.00  0.00    +0.000 C 
ATOM      7  C   UNL     1      -6.827   2.817   3.252  0.00  0.00    +0.000 C 
ATOM      8  N   UNL     1      -7.286   0.575   2.192  0.00  0.00    +0.000 N 
ATOM      9  C   UNL     1      -8.002  -0.176   1.294  0.00  0.00    +0.000 A 
ATOM     10  C   UNL     1      -9.390  -0.328   1.217  0.00  0.00    +0.000 A 
ATOM     11  C   UNL     1      -7.307  -0.960   0.363  0.00  0.00    +0.000 A 
ATOM     12  N   UNL     1     -10.293   0.226   2.072  0.00  0.00    +0.000 N 
ATOM     13  C   UNL     1      -9.836  -1.252   0.261  0.00  0.00    +0.000 A 
ATOM     14  C   UNL     1     -11.458  -0.472   1.695  0.00  0.00    +0.000 A 
ATOM     15  C   UNL     1     -11.210  -1.344   0.572  0.00  0.00    +0.000 A 
ATOM     16  C   UNL     1     -12.742  -0.371   2.255  0.00  0.00    +0.000 A 
ATOM     17  C   UNL     1     -12.291  -2.096   0.070  0.00  0.00    +0.000 A 
ATOM     18  C   UNL     1     -13.557  -1.983   0.640  0.00  0.00    +0.000 A 
ATOM     19  C   UNL     1     -13.776  -1.135   1.716  0.00  0.00    +0.000 A 
ATOM     20  C   UNL     1      -9.146  -2.036  -0.686  0.00  0.00    +0.000 A 
ATOM     21  C   UNL     1      -7.737  -1.857  -0.624  0.00  0.00    +0.000 A 
ATOM     22  C   UNL     1      -9.488  -3.017  -1.689  0.00  0.00    +0.000 C 
ATOM     23  C   UNL     1      -7.145  -2.768  -1.640  0.00  0.00    +0.000 C 
ATOM     24  N   UNL     1      -8.225  -3.373  -2.180  0.00  0.00    +0.000 N 
ATOM     25  H   UNL     1      -8.146  -4.059  -2.918  0.00  0.00    +0.000 HD
ATOM     26  O   UNL     1     -10.542  -3.489  -2.091  0.00  0.00    +0.000 OA
ATOM     27  C   UNL     1      -5.967  -0.717   0.707  0.00  0.00    +0.000 A 
ATOM     28  C   UNL     1      -5.966   0.198   1.823  0.00  0.00    +0.000 A 
ATOM     29  C   UNL     1      -4.729  -1.184   0.218  0.00  0.00    +0.000 A 
ATOM     30  C   UNL     1      -4.744   0.602   2.389  0.00  0.00    +0.000 A 
ATOM     31  C   UNL     1      -3.545   0.115   1.869  0.00  0.00    +0.000 A 
ATOM     32  C   UNL     1      -3.535  -0.764   0.799  0.00  0.00    +0.000 A 
ENDROOT
BRANCH   5  33
ATOM     33  N   UNL     1      -8.936  -0.324   6.466  0.00  0.00    +0.000 N 
ATOM     34  C   UNL     1      -9.205   0.437   7.666  0.00  0.00    +0.000 C 
ATOM     35  H   UNL     1      -8.216  -1.045   6.548  0.00  0.00    +0.000 HD
ENDBRANCH   5  33
BRANCH   3  36
ATOM     36  O   UNL     1      -6.434   0.390   5.019  0.00  0.00    +0.000 OA
ATOM     37  C   UNL     1      -5.848   1.102   6.076  0.00  0.00    +0.000 C 
ENDBRANCH   3  36
TORSDOF 2
ENDMDL
