MODEL 1
REMARK VINA RESULT:      -6.1      0.000      0.000
REMARK  Name = Testosterone.pdbqt.pdb
REMARK  1 active torsions:
REMARK  status: ('A' for Active; 'I' for Inactive)
REMARK    1  A    between atoms: C_9  and  O_21
REMARK                            x       y       z     vdW  Elec       q    Type
REMARK                         _______ _______ _______ _____ _____    ______ ____
ROOT
ATOM      1  O   UNL     1      16.527  -2.052 -22.639  0.00  0.00    +0.000 OA
ATOM      2  C   UNL     1      11.351   0.147 -17.444  0.00  0.00    +0.000 C 
ATOM      3  C   UNL     1      10.915   1.679 -17.276  0.00  0.00    +0.000 C 
ATOM      4  C   UNL     1      11.843  -0.380 -18.733  0.00  0.00    +0.000 C 
ATOM      5  C   UNL     1      12.293   0.440 -19.911  0.00  0.00    +0.000 C 
ATOM      6  C   UNL     1      12.714  -0.162 -21.270  0.00  0.00    +0.000 C 
ATOM      7  C   UNL     1      11.540   2.396 -18.390  0.00  0.00    +0.000 C 
ATOM      8  C   UNL     1      12.165   1.831 -19.643  0.00  0.00    +0.000 C 
ATOM      9  C   UNL     1      11.519   2.082 -15.909  0.00  0.00    +0.000 C 
ATOM     10  C   UNL     1      12.013  -0.225 -16.229  0.00  0.00    +0.000 C 
ATOM     11  C   UNL     1      12.080  -1.763 -18.913  0.00  0.00    +0.000 C 
ATOM     12  C   UNL     1      12.166   0.965 -15.315  0.00  0.00    +0.000 C 
ATOM     13  C   UNL     1      13.150  -1.759 -21.229  0.00  0.00    +0.000 C 
ATOM     14  C   UNL     1      12.699  -2.461 -20.085  0.00  0.00    +0.000 C 
ATOM     15  C   UNL     1       9.371   1.800 -17.253  0.00  0.00    +0.000 C 
ATOM     16  C   UNL     1      13.957   0.510 -21.775  0.00  0.00    +0.000 C 
ATOM     17  C   UNL     1      11.543  -0.038 -22.283  0.00  0.00    +0.000 C 
ATOM     18  C   UNL     1      15.308  -0.036 -22.289  0.00  0.00    +0.000 C 
ATOM     19  C   UNL     1      14.323  -2.085 -21.731  0.00  0.00    +0.000 C 
ATOM     20  C   UNL     1      15.520  -1.470 -22.286  0.00  0.00    +0.000 C 
ENDROOT
BRANCH   9  21
ATOM     21  O   UNL     1      10.954   3.064 -15.115  0.00  0.00    +0.000 OA
ATOM     22  H   UNL     1      10.767   3.873 -15.630  0.00  0.00    +0.000 HD
ENDBRANCH   9  21
TORSDOF 1
ENDMDL
MODEL 2
REMARK VINA RESULT:      -5.7     21.606     23.843
REMARK  Name = Testosterone.pdbqt.pdb
REMARK  1 active torsions:
REMARK  status: ('A' for Active; 'I' for Inactive)
REMARK    1  A    between atoms: C_9  and  O_21
REMARK                            x       y       z     vdW  Elec       q    Type
REMARK                         _______ _______ _______ _____ _____    ______ ____
ROOT
ATOM      1  O   UNL     1      -1.261 -18.211  -5.009  0.00  0.00    +0.000 OA
ATOM      2  C   UNL     1       3.872 -17.579 -10.654  0.00  0.00    +0.000 C 
ATOM      3  C   UNL     1       5.394 -17.162 -10.374  0.00  0.00    +0.000 C 
ATOM      4  C   UNL     1       3.057 -18.261  -9.629  0.00  0.00    +0.000 C 
ATOM      5  C   UNL     1       3.386 -18.372  -8.166  0.00  0.00    +0.000 C 
ATOM      6  C   UNL     1       2.543 -19.176  -7.151  0.00  0.00    +0.000 C 
ATOM      7  C   UNL     1       5.545 -17.156  -8.918  0.00  0.00    +0.000 C 
ATOM      8  C   UNL     1       4.627 -17.741  -7.873  0.00  0.00    +0.000 C 
ATOM      9  C   UNL     1       5.500 -15.742 -10.980  0.00  0.00    +0.000 C 
ATOM     10  C   UNL     1       3.294 -16.520 -11.427  0.00  0.00    +0.000 C 
ATOM     11  C   UNL     1       1.770 -18.761  -9.935  0.00  0.00    +0.000 C 
ATOM     12  C   UNL     1       4.265 -15.376 -11.581  0.00  0.00    +0.000 C 
ATOM     13  C   UNL     1       0.985 -19.487  -7.618  0.00  0.00    +0.000 C 
ATOM     14  C   UNL     1       0.752 -19.353  -9.008  0.00  0.00    +0.000 C 
ATOM     15  C   UNL     1       6.359 -18.139 -11.090  0.00  0.00    +0.000 C 
ATOM     16  C   UNL     1       2.361 -18.390  -5.886  0.00  0.00    +0.000 C 
ATOM     17  C   UNL     1       3.218 -20.549  -6.881  0.00  0.00    +0.000 C 
ATOM     18  C   UNL     1       1.112 -18.018  -5.054  0.00  0.00    +0.000 C 
ATOM     19  C   UNL     1       0.019 -19.140  -6.793  0.00  0.00    +0.000 C 
ATOM     20  C   UNL     1      -0.189 -18.439  -5.535  0.00  0.00    +0.000 C 
ENDROOT
BRANCH   9  21
ATOM     21  O   UNL     1       6.691 -15.238 -11.472  0.00  0.00    +0.000 OA
ATOM     22  H   UNL     1       7.445 -15.492 -10.906  0.00  0.00    +0.000 HD
ENDBRANCH   9  21
TORSDOF 1
ENDMDL
MODEL 3
REMARK VINA RESULT:      -5.6     26.559     28.565
REMARK  Name = Testosterone.pdbqt.pdb
REMARK  1 active torsions:
REMARK  status: ('A' for Active; 'I' for Inactive)
REMARK    1  A    between atoms: C_9  and  O_21
REMARK                            x       y       z     vdW  Elec       q    Type
REMARK                         _______ _______ _______ _____ _____    ______ ____
ROOT
ATOM      1  O   UNL     1     -15.096 -14.769 -19.350  0.00  0.00    +0.000 OA
ATOM      2  C   UNL     1     -12.752 -10.791 -13.244  0.00  0.00    +0.000 C 
ATOM      3  C   UNL     1     -11.449 -11.207 -12.409  0.00  0.00    +0.000 C 
ATOM      4  C   UNL     1     -12.892 -11.125 -14.675  0.00  0.00    +0.000 C 
ATOM      5  C   UNL     1     -12.056 -12.116 -15.438  0.00  0.00    +0.000 C 
ATOM      6  C   UNL     1     -12.185 -12.362 -16.958  0.00  0.00    +0.000 C 
ATOM      7  C   UNL     1     -10.810 -12.279 -13.174  0.00  0.00    +0.000 C 
ATOM      8  C   UNL     1     -11.065 -12.699 -14.601  0.00  0.00    +0.000 C 
ATOM      9  C   UNL     1     -12.025 -11.710 -11.063  0.00  0.00    +0.000 C 
ATOM     10  C   UNL     1     -13.872 -10.959 -12.365  0.00  0.00    +0.000 C 
ATOM     11  C   UNL     1     -13.970 -10.623 -15.439  0.00  0.00    +0.000 C 
ATOM     12  C   UNL     1     -13.439 -11.570 -11.056  0.00  0.00    +0.000 C 
ATOM     13  C   UNL     1     -13.618 -11.881 -17.632  0.00  0.00    +0.000 C 
ATOM     14  C   UNL     1     -14.353 -10.955 -16.850  0.00  0.00    +0.000 C 
ATOM     15  C   UNL     1     -10.535  -9.976 -12.189  0.00  0.00    +0.000 C 
ATOM     16  C   UNL     1     -12.157 -13.834 -17.251  0.00  0.00    +0.000 C 
ATOM     17  C   UNL     1     -11.055 -11.606 -17.709  0.00  0.00    +0.000 C 
ATOM     18  C   UNL     1     -13.086 -14.756 -18.074  0.00  0.00    +0.000 C 
ATOM     19  C   UNL     1     -14.293 -12.768 -18.334  0.00  0.00    +0.000 C 
ATOM     20  C   UNL     1     -14.262 -14.178 -18.692  0.00  0.00    +0.000 C 
ENDROOT
BRANCH   9  21
ATOM     21  O   UNL     1     -11.311 -11.631  -9.881  0.00  0.00    +0.000 OA
ATOM     22  H   UNL     1     -11.140 -12.519  -9.509  0.00  0.00    +0.000 HD
ENDBRANCH   9  21
TORSDOF 1
ENDMDL
MODEL 4
REMARK VINA RESULT:      -5.4     22.290     23.997
REMARK  Name = Testosterone.pdbqt.pdb
REMARK  1 active torsions:
REMARK  status: ('A' for Active; 'I' for Inactive)
REMARK    1  A    between atoms: C_9  and  O_21
REMARK                            x       y       z     vdW  Elec       q    Type
REMARK                         _______ _______ _______ _____ _____    ______ ____
ROOT
ATOM      1  O   UNL     1       6.651 -15.043 -10.277  0.00  0.00    +0.000 OA
ATOM      2  C   UNL     1       1.386 -18.984  -6.357  0.00  0.00    +0.000 C 
ATOM      3  C   UNL     1       0.098 -19.620  -7.069  0.00  0.00    +0.000 C 
ATOM      4  C   UNL     1       2.645 -18.762  -7.096  0.00  0.00    +0.000 C 
ATOM      5  C   UNL     1       2.811 -18.784  -8.590  0.00  0.00    +0.000 C 
ATOM      6  C   UNL     1       4.170 -18.635  -9.310  0.00  0.00    +0.000 C 
ATOM      7  C   UNL     1       0.308 -19.441  -8.507  0.00  0.00    +0.000 C 
ATOM      8  C   UNL     1       1.578 -19.076  -9.236  0.00  0.00    +0.000 C 
ATOM      9  C   UNL     1      -1.073 -18.760  -6.536  0.00  0.00    +0.000 C 
ATOM     10  C   UNL     1       0.903 -17.974  -5.463  0.00  0.00    +0.000 C 
ATOM     11  C   UNL     1       3.819 -18.346  -6.426  0.00  0.00    +0.000 C 
ATOM     12  C   UNL     1      -0.588 -17.797  -5.609  0.00  0.00    +0.000 C 
ATOM     13  C   UNL     1       5.371 -17.934  -8.411  0.00  0.00    +0.000 C 
ATOM     14  C   UNL     1       5.138 -17.943  -7.013  0.00  0.00    +0.000 C 
ATOM     15  C   UNL     1      -0.072 -21.101  -6.649  0.00  0.00    +0.000 C 
ATOM     16  C   UNL     1       4.041 -17.702 -10.478  0.00  0.00    +0.000 C 
ATOM     17  C   UNL     1       4.688 -20.033  -9.746  0.00  0.00    +0.000 C 
ATOM     18  C   UNL     1       4.847 -16.458 -10.919  0.00  0.00    +0.000 C 
ATOM     19  C   UNL     1       5.993 -16.894  -8.926  0.00  0.00    +0.000 C 
ATOM     20  C   UNL     1       5.939 -16.009 -10.080  0.00  0.00    +0.000 C 
ENDROOT
BRANCH   9  21
ATOM     21  O   UNL     1      -2.357 -19.258  -6.414  0.00  0.00    +0.000 OA
ATOM     22  H   UNL     1      -3.000 -18.710  -6.905  0.00  0.00    +0.000 HD
ENDBRANCH   9  21
TORSDOF 1
ENDMDL
MODEL 5
REMARK VINA RESULT:      -5.3     26.107     30.021
REMARK  Name = Testosterone.pdbqt.pdb
REMARK  1 active torsions:
REMARK  status: ('A' for Active; 'I' for Inactive)
REMARK    1  A    between atoms: C_9  and  O_21
REMARK                            x       y       z     vdW  Elec       q    Type
REMARK                         _______ _______ _______ _____ _____    ______ ____
ROOT
ATOM      1  O   UNL     1     -13.894   7.294  -1.615  0.00  0.00    +0.000 OA
ATOM      2  C   UNL     1     -11.768   7.550  -8.965  0.00  0.00    +0.000 C 
ATOM      3  C   UNL     1     -12.744   7.083 -10.147  0.00  0.00    +0.000 C 
ATOM      4  C   UNL     1     -12.296   8.063  -7.685  0.00  0.00    +0.000 C 
ATOM      5  C   UNL     1     -13.712   7.932  -7.195  0.00  0.00    +0.000 C 
ATOM      6  C   UNL     1     -14.234   8.567  -5.887  0.00  0.00    +0.000 C 
ATOM      7  C   UNL     1     -14.043   6.840  -9.519  0.00  0.00    +0.000 C 
ATOM      8  C   UNL     1     -14.521   7.254  -8.149  0.00  0.00    +0.000 C 
ATOM      9  C   UNL     1     -12.090   5.780 -10.665  0.00  0.00    +0.000 C 
ATOM     10  C   UNL     1     -10.665   6.635  -8.959  0.00  0.00    +0.000 C 
ATOM     11  C   UNL     1     -11.434   8.615  -6.709  0.00  0.00    +0.000 C 
ATOM     12  C   UNL     1     -10.884   5.525  -9.956  0.00  0.00    +0.000 C 
ATOM     13  C   UNL     1     -13.068   8.960  -4.780  0.00  0.00    +0.000 C 
ATOM     14  C   UNL     1     -11.760   9.056  -5.314  0.00  0.00    +0.000 C 
ATOM     15  C   UNL     1     -12.789   8.157 -11.263  0.00  0.00    +0.000 C 
ATOM     16  C   UNL     1     -15.088   7.586  -5.137  0.00  0.00    +0.000 C 
ATOM     17  C   UNL     1     -15.010   9.873  -6.212  0.00  0.00    +0.000 C 
ATOM     18  C   UNL     1     -15.076   7.093  -3.672  0.00  0.00    +0.000 C 
ATOM     19  C   UNL     1     -13.202   8.491  -3.557  0.00  0.00    +0.000 C 
ATOM     20  C   UNL     1     -14.049   7.596  -2.782  0.00  0.00    +0.000 C 
ENDROOT
BRANCH   9  21
ATOM     21  O   UNL     1     -12.231   5.354 -11.974  0.00  0.00    +0.000 OA
ATOM     22  H   UNL     1     -13.090   4.909 -12.112  0.00  0.00    +0.000 HD
ENDBRANCH   9  21
TORSDOF 1
ENDMDL
MODEL 6
REMARK VINA RESULT:      -5.2     19.837     21.723
REMARK  Name = Testosterone.pdbqt.pdb
REMARK  1 active torsions:
REMARK  status: ('A' for Active; 'I' for Inactive)
REMARK    1  A    between atoms: C_9  and  O_21
REMARK                            x       y       z     vdW  Elec       q    Type
REMARK                         _______ _______ _______ _____ _____    ______ ____
ROOT
ATOM      1  O   UNL     1       7.136 -22.423  -8.975  0.00  0.00    +0.000 OA
ATOM      2  C   UNL     1       4.828 -15.826 -12.100  0.00  0.00    +0.000 C 
ATOM      3  C   UNL     1       3.277 -15.450 -12.238  0.00  0.00    +0.000 C 
ATOM      4  C   UNL     1       5.312 -16.730 -11.037  0.00  0.00    +0.000 C 
ATOM      5  C   UNL     1       4.461 -17.632 -10.186  0.00  0.00    +0.000 C 
ATOM      6  C   UNL     1       5.008 -18.491  -9.025  0.00  0.00    +0.000 C 
ATOM      7  C   UNL     1       2.548 -16.484 -11.501  0.00  0.00    +0.000 C 
ATOM      8  C   UNL     1       3.084 -17.495 -10.517  0.00  0.00    +0.000 C 
ATOM      9  C   UNL     1       3.019 -15.525 -13.762  0.00  0.00    +0.000 C 
ATOM     10  C   UNL     1       5.336 -15.967 -13.433  0.00  0.00    +0.000 C 
ATOM     11  C   UNL     1       6.696 -16.935 -10.828  0.00  0.00    +0.000 C 
ATOM     12  C   UNL     1       4.225 -15.838 -14.446  0.00  0.00    +0.000 C 
ATOM     13  C   UNL     1       6.636 -18.787  -9.074  0.00  0.00    +0.000 C 
ATOM     14  C   UNL     1       7.369 -17.903  -9.903  0.00  0.00    +0.000 C 
ATOM     15  C   UNL     1       3.022 -14.017 -11.707  0.00  0.00    +0.000 C 
ATOM     16  C   UNL     1       4.417 -19.870  -9.074  0.00  0.00    +0.000 C 
ATOM     17  C   UNL     1       4.715 -17.789  -7.671  0.00  0.00    +0.000 C 
ATOM     18  C   UNL     1       5.047 -21.281  -9.040  0.00  0.00    +0.000 C 
ATOM     19  C   UNL     1       7.032 -20.041  -9.007  0.00  0.00    +0.000 C 
ATOM     20  C   UNL     1       6.491 -21.392  -8.987  0.00  0.00    +0.000 C 
ENDROOT
BRANCH   9  21
ATOM     21  O   UNL     1       2.045 -14.764 -14.383  0.00  0.00    +0.000 OA
ATOM     22  H   UNL     1       2.313 -14.512 -15.288  0.00  0.00    +0.000 HD
ENDBRANCH   9  21
TORSDOF 1
ENDMDL
MODEL 7
REMARK VINA RESULT:      -5.0      6.553      8.000
REMARK  Name = Testosterone.pdbqt.pdb
REMARK  1 active torsions:
REMARK  status: ('A' for Active; 'I' for Inactive)
REMARK    1  A    between atoms: C_9  and  O_21
REMARK                            x       y       z     vdW  Elec       q    Type
REMARK                         _______ _______ _______ _____ _____    ______ ____
ROOT
ATOM      1  O   UNL     1       7.285   5.255 -24.873  0.00  0.00    +0.000 OA
ATOM      2  C   UNL     1       5.532   0.602 -19.052  0.00  0.00    +0.000 C 
ATOM      3  C   UNL     1       4.297  -0.418 -19.122  0.00  0.00    +0.000 C 
ATOM      4  C   UNL     1       6.237   1.046 -20.271  0.00  0.00    +0.000 C 
ATOM      5  C   UNL     1       5.747   0.891 -21.684  0.00  0.00    +0.000 C 
ATOM      6  C   UNL     1       6.566   1.292 -22.930  0.00  0.00    +0.000 C 
ATOM      7  C   UNL     1       3.813  -0.363 -20.503  0.00  0.00    +0.000 C 
ATOM      8  C   UNL     1       4.491   0.222 -21.717  0.00  0.00    +0.000 C 
ATOM      9  C   UNL     1       3.278   0.175 -18.120  0.00  0.00    +0.000 C 
ATOM     10  C   UNL     1       5.217   1.555 -18.029  0.00  0.00    +0.000 C 
ATOM     11  C   UNL     1       7.417   1.821 -20.189  0.00  0.00    +0.000 C 
ATOM     12  C   UNL     1       3.823   1.331 -17.498  0.00  0.00    +0.000 C 
ATOM     13  C   UNL     1       7.787   2.375 -22.652  0.00  0.00    +0.000 C 
ATOM     14  C   UNL     1       8.188   2.472 -21.297  0.00  0.00    +0.000 C 
ATOM     15  C   UNL     1       4.743  -1.834 -18.680  0.00  0.00    +0.000 C 
ATOM     16  C   UNL     1       5.695   2.018 -23.914  0.00  0.00    +0.000 C 
ATOM     17  C   UNL     1       7.215   0.029 -23.560  0.00  0.00    +0.000 C 
ATOM     18  C   UNL     1       5.853   3.364 -24.658  0.00  0.00    +0.000 C 
ATOM     19  C   UNL     1       7.813   3.470 -23.383  0.00  0.00    +0.000 C 
ATOM     20  C   UNL     1       7.026   4.171 -24.387  0.00  0.00    +0.000 C 
ENDROOT
BRANCH   9  21
ATOM     21  O   UNL     1       2.365  -0.614 -17.444  0.00  0.00    +0.000 OA
ATOM     22  H   UNL     1       1.451  -0.432 -17.738  0.00  0.00    +0.000 HD
ENDBRANCH   9  21
TORSDOF 1
ENDMDL
MODEL 8
REMARK VINA RESULT:      -4.9     20.406     22.169
REMARK  Name = Testosterone.pdbqt.pdb
REMARK  1 active torsions:
REMARK  status: ('A' for Active; 'I' for Inactive)
REMARK    1  A    between atoms: C_9  and  O_21
REMARK                            x       y       z     vdW  Elec       q    Type
REMARK                         _______ _______ _______ _____ _____    ______ ____
ROOT
ATOM      1  O   UNL     1      14.427   1.990   3.391  0.00  0.00    +0.000 OA
ATOM      2  C   UNL     1       7.521   4.754   1.580  0.00  0.00    +0.000 C 
ATOM      3  C   UNL     1       6.601   4.071   0.459  0.00  0.00    +0.000 C 
ATOM      4  C   UNL     1       8.514   3.973   2.345  0.00  0.00    +0.000 C 
ATOM      5  C   UNL     1       9.017   2.599   1.999  0.00  0.00    +0.000 C 
ATOM      6  C   UNL     1       9.989   1.788   2.884  0.00  0.00    +0.000 C 
ATOM      7  C   UNL     1       7.274   2.823   0.097  0.00  0.00    +0.000 C 
ATOM      8  C   UNL     1       8.388   2.107   0.821  0.00  0.00    +0.000 C 
ATOM      9  C   UNL     1       6.612   5.100  -0.697  0.00  0.00    +0.000 C 
ATOM     10  C   UNL     1       7.871   6.053   1.085  0.00  0.00    +0.000 C 
ATOM     11  C   UNL     1       9.211   4.547   3.433  0.00  0.00    +0.000 C 
ATOM     12  C   UNL     1       7.365   6.246  -0.322  0.00  0.00    +0.000 C 
ATOM     13  C   UNL     1      10.868   2.681   3.967  0.00  0.00    +0.000 C 
ATOM     14  C   UNL     1      10.337   3.967   4.233  0.00  0.00    +0.000 C 
ATOM     15  C   UNL     1       5.164   3.864   0.997  0.00  0.00    +0.000 C 
ATOM     16  C   UNL     1      11.053   1.149   2.039  0.00  0.00    +0.000 C 
ATOM     17  C   UNL     1       9.197   0.733   3.704  0.00  0.00    +0.000 C 
ATOM     18  C   UNL     1      12.596   1.133   2.132  0.00  0.00    +0.000 C 
ATOM     19  C   UNL     1      12.178   2.545   3.952  0.00  0.00    +0.000 C 
ATOM     20  C   UNL     1      13.232   1.887   3.194  0.00  0.00    +0.000 C 
ENDROOT
BRANCH   9  21
ATOM     21  O   UNL     1       5.560   5.219  -1.587  0.00  0.00    +0.000 OA
ATOM     22  H   UNL     1       5.567   4.496  -2.244  0.00  0.00    +0.000 HD
ENDBRANCH   9  21
TORSDOF 1
ENDMDL
MODEL 9
REMARK VINA RESULT:      -4.9     11.035     12.671
REMARK  Name = Testosterone.pdbqt.pdb
REMARK  1 active torsions:
REMARK  status: ('A' for Active; 'I' for Inactive)
REMARK    1  A    between atoms: C_9  and  O_21
REMARK                            x       y       z     vdW  Elec       q    Type
REMARK                         _______ _______ _______ _____ _____    ______ ____
ROOT
ATOM      1  O   UNL     1      10.098  13.653 -22.180  0.00  0.00    +0.000 OA
ATOM      2  C   UNL     1      11.776  12.273 -14.839  0.00  0.00    +0.000 C 
ATOM      3  C   UNL     1      11.745  10.793 -14.225  0.00  0.00    +0.000 C 
ATOM      4  C   UNL     1      12.043  12.510 -16.272  0.00  0.00    +0.000 C 
ATOM      5  C   UNL     1      12.003  11.475 -17.363  0.00  0.00    +0.000 C 
ATOM      6  C   UNL     1      12.378  11.757 -18.834  0.00  0.00    +0.000 C 
ATOM      7  C   UNL     1      11.548   9.894 -15.363  0.00  0.00    +0.000 C 
ATOM      8  C   UNL     1      11.691  10.191 -16.836  0.00  0.00    +0.000 C 
ATOM      9  C   UNL     1      10.521  10.818 -13.278  0.00  0.00    +0.000 C 
ATOM     10  C   UNL     1      10.738  13.011 -14.181  0.00  0.00    +0.000 C 
ATOM     11  C   UNL     1      12.220  13.820 -16.775  0.00  0.00    +0.000 C 
ATOM     12  C   UNL     1       9.937  12.114 -13.271  0.00  0.00    +0.000 C 
ATOM     13  C   UNL     1      12.329  13.351 -19.281  0.00  0.00    +0.000 C 
ATOM     14  C   UNL     1      12.361  14.265 -18.198  0.00  0.00    +0.000 C 
ATOM     15  C   UNL     1      13.047  10.512 -13.434  0.00  0.00    +0.000 C 
ATOM     16  C   UNL     1      11.381  11.122 -19.758  0.00  0.00    +0.000 C 
ATOM     17  C   UNL     1      13.821  11.253 -19.113  0.00  0.00    +0.000 C 
ATOM     18  C   UNL     1      10.559  11.668 -20.948  0.00  0.00    +0.000 C 
ATOM     19  C   UNL     1      11.609  13.669 -20.336  0.00  0.00    +0.000 C 
ATOM     20  C   UNL     1      10.686  13.071 -21.290  0.00  0.00    +0.000 C 
ENDROOT
BRANCH   9  21
ATOM     21  O   UNL     1      10.441  10.012 -12.157  0.00  0.00    +0.000 OA
ATOM     22  H   UNL     1      10.829   9.131 -12.325  0.00  0.00    +0.000 HD
ENDBRANCH   9  21
TORSDOF 1
ENDMDL
