MODEL 1
REMARK VINA RESULT:      -2.9      0.000      0.000
REMARK  Name = Tetrachloroethylene.pdbqt.pdb
REMARK  0 active torsions:
REMARK  status: ('A' for Active; 'I' for Inactive)
REMARK                            x       y       z     vdW  Elec       q    Type
REMARK                         _______ _______ _______ _____ _____    ______ ____
ROOT
ATOM      1 CL   UNL     1      -2.874  -1.949   0.152  0.00  0.00    +0.000 Cl
ATOM      2 CL   UNL     1      -2.036   0.853   0.288  0.00  0.00    +0.000 Cl
ATOM      3 CL   UNL     1      -5.108   1.756   0.606  0.00  0.00    +0.000 Cl
ATOM      4 CL   UNL     1      -5.946  -1.046   0.471  0.00  0.00    +0.000 Cl
ATOM      5  C   UNL     1      -3.350  -0.285   0.313  0.00  0.00    +0.000 C 
ATOM      6  C   UNL     1      -4.633   0.092   0.446  0.00  0.00    +0.000 C 
ENDROOT
TORSDOF 0
ENDMDL
MODEL 2
REMARK VINA RESULT:      -2.7     20.704     22.073
REMARK  Name = Tetrachloroethylene.pdbqt.pdb
REMARK  0 active torsions:
REMARK  status: ('A' for Active; 'I' for Inactive)
REMARK                            x       y       z     vdW  Elec       q    Type
REMARK                         _______ _______ _______ _____ _____    ______ ____
ROOT
ATOM      1 CL   UNL     1       4.882 -15.503 -15.439  0.00  0.00    +0.000 Cl
ATOM      2 CL   UNL     1       2.176 -14.476 -14.997  0.00  0.00    +0.000 Cl
ATOM      3 CL   UNL     1       2.627 -14.654 -11.816  0.00  0.00    +0.000 Cl
ATOM      4 CL   UNL     1       5.333 -15.681 -12.257  0.00  0.00    +0.000 Cl
ATOM      5  C   UNL     1       3.660 -15.041 -14.292  0.00  0.00    +0.000 C 
ATOM      6  C   UNL     1       3.849 -15.116 -12.963  0.00  0.00    +0.000 C 
ENDROOT
TORSDOF 0
ENDMDL
MODEL 3
REMARK VINA RESULT:      -2.7     20.715     22.077
REMARK  Name = Tetrachloroethylene.pdbqt.pdb
REMARK  0 active torsions:
REMARK  status: ('A' for Active; 'I' for Inactive)
REMARK                            x       y       z     vdW  Elec       q    Type
REMARK                         _______ _______ _______ _____ _____    ______ ____
ROOT
ATOM      1 CL   UNL     1       5.343 -15.750 -12.213  0.00  0.00    +0.000 Cl
ATOM      2 CL   UNL     1       2.669 -14.628 -11.806  0.00  0.00    +0.000 Cl
ATOM      3 CL   UNL     1       2.263 -14.441 -14.993  0.00  0.00    +0.000 Cl
ATOM      4 CL   UNL     1       4.937 -15.564 -15.400  0.00  0.00    +0.000 Cl
ATOM      5  C   UNL     1       3.888 -15.135 -12.938  0.00  0.00    +0.000 C 
ATOM      6  C   UNL     1       3.718 -15.057 -14.269  0.00  0.00    +0.000 C 
ENDROOT
TORSDOF 0
ENDMDL
MODEL 4
REMARK VINA RESULT:      -2.7     21.710     22.424
REMARK  Name = Tetrachloroethylene.pdbqt.pdb
REMARK  0 active torsions:
REMARK  status: ('A' for Active; 'I' for Inactive)
REMARK                            x       y       z     vdW  Elec       q    Type
REMARK                         _______ _______ _______ _____ _____    ______ ____
ROOT
ATOM      1 CL   UNL     1      -4.679  15.244 -18.242  0.00  0.00    +0.000 Cl
ATOM      2 CL   UNL     1      -2.240  13.755 -17.603  0.00  0.00    +0.000 Cl
ATOM      3 CL   UNL     1      -2.910  14.004 -14.465  0.00  0.00    +0.000 Cl
ATOM      4 CL   UNL     1      -5.349  15.493 -15.104  0.00  0.00    +0.000 Cl
ATOM      5  C   UNL     1      -3.655  14.572 -17.009  0.00  0.00    +0.000 C 
ATOM      6  C   UNL     1      -3.935  14.676 -15.698  0.00  0.00    +0.000 C 
ENDROOT
TORSDOF 0
ENDMDL
MODEL 5
REMARK VINA RESULT:      -2.7     20.695     22.082
REMARK  Name = Tetrachloroethylene.pdbqt.pdb
REMARK  0 active torsions:
REMARK  status: ('A' for Active; 'I' for Inactive)
REMARK                            x       y       z     vdW  Elec       q    Type
REMARK                         _______ _______ _______ _____ _____    ______ ____
ROOT
ATOM      1 CL   UNL     1       2.831 -14.287 -11.815  0.00  0.00    +0.000 Cl
ATOM      2 CL   UNL     1       5.350 -15.746 -12.125  0.00  0.00    +0.000 Cl
ATOM      3 CL   UNL     1       4.884 -15.876 -15.306  0.00  0.00    +0.000 Cl
ATOM      4 CL   UNL     1       2.364 -14.417 -14.996  0.00  0.00    +0.000 Cl
ATOM      5  C   UNL     1       3.955 -15.054 -12.896  0.00  0.00    +0.000 C 
ATOM      6  C   UNL     1       3.760 -15.108 -14.225  0.00  0.00    +0.000 C 
ENDROOT
TORSDOF 0
ENDMDL
MODEL 6
REMARK VINA RESULT:      -2.6     19.828     20.335
REMARK  Name = Tetrachloroethylene.pdbqt.pdb
REMARK  0 active torsions:
REMARK  status: ('A' for Active; 'I' for Inactive)
REMARK                            x       y       z     vdW  Elec       q    Type
REMARK                         _______ _______ _______ _____ _____    ______ ____
ROOT
ATOM      1 CL   UNL     1      -9.784  -2.044 -17.492  0.00  0.00    +0.000 Cl
ATOM      2 CL   UNL     1     -10.529  -4.157 -19.378  0.00  0.00    +0.000 Cl
ATOM      3 CL   UNL     1      -7.438  -4.518 -20.195  0.00  0.00    +0.000 Cl
ATOM      4 CL   UNL     1      -6.692  -2.405 -18.309  0.00  0.00    +0.000 Cl
ATOM      5  C   UNL     1      -9.256  -3.206 -18.673  0.00  0.00    +0.000 C 
ATOM      6  C   UNL     1      -7.965  -3.356 -19.014  0.00  0.00    +0.000 C 
ENDROOT
TORSDOF 0
ENDMDL
MODEL 7
REMARK VINA RESULT:      -2.6     22.911     23.066
REMARK  Name = Tetrachloroethylene.pdbqt.pdb
REMARK  0 active torsions:
REMARK  status: ('A' for Active; 'I' for Inactive)
REMARK                            x       y       z     vdW  Elec       q    Type
REMARK                         _______ _______ _______ _____ _____    ______ ____
ROOT
ATOM      1 CL   UNL     1       9.344   0.522 -18.134  0.00  0.00    +0.000 Cl
ATOM      2 CL   UNL     1      10.500   3.070 -17.272  0.00  0.00    +0.000 Cl
ATOM      3 CL   UNL     1      12.762   1.484 -15.620  0.00  0.00    +0.000 Cl
ATOM      4 CL   UNL     1      11.605  -1.064 -16.483  0.00  0.00    +0.000 Cl
ATOM      5  C   UNL     1      10.580   1.334 -17.222  0.00  0.00    +0.000 C 
ATOM      6  C   UNL     1      11.525   0.672 -16.532  0.00  0.00    +0.000 C 
ENDROOT
TORSDOF 0
ENDMDL
MODEL 8
REMARK VINA RESULT:      -2.6     22.888     23.033
REMARK  Name = Tetrachloroethylene.pdbqt.pdb
REMARK  0 active torsions:
REMARK  status: ('A' for Active; 'I' for Inactive)
REMARK                            x       y       z     vdW  Elec       q    Type
REMARK                         _______ _______ _______ _____ _____    ______ ____
ROOT
ATOM      1 CL   UNL     1      12.708   1.522 -15.607  0.00  0.00    +0.000 Cl
ATOM      2 CL   UNL     1      11.539  -1.022 -16.464  0.00  0.00    +0.000 Cl
ATOM      3 CL   UNL     1       9.304   0.570 -18.145  0.00  0.00    +0.000 Cl
ATOM      4 CL   UNL     1      10.473   3.114 -17.289  0.00  0.00    +0.000 Cl
ATOM      5  C   UNL     1      11.472   0.713 -16.525  0.00  0.00    +0.000 C 
ATOM      6  C   UNL     1      10.539   1.378 -17.227  0.00  0.00    +0.000 C 
ENDROOT
TORSDOF 0
ENDMDL
MODEL 9
REMARK VINA RESULT:      -2.6     12.601     13.625
REMARK  Name = Tetrachloroethylene.pdbqt.pdb
REMARK  0 active torsions:
REMARK  status: ('A' for Active; 'I' for Inactive)
REMARK                            x       y       z     vdW  Elec       q    Type
REMARK                         _______ _______ _______ _____ _____    ______ ____
ROOT
ATOM      1 CL   UNL     1     -10.178   6.998  -7.299  0.00  0.00    +0.000 Cl
ATOM      2 CL   UNL     1     -11.703   8.164  -9.510  0.00  0.00    +0.000 Cl
ATOM      3 CL   UNL     1     -11.549   5.366 -11.092  0.00  0.00    +0.000 Cl
ATOM      4 CL   UNL     1     -10.024   4.200  -8.881  0.00  0.00    +0.000 Cl
ATOM      5  C   UNL     1     -10.896   6.766  -8.865  0.00  0.00    +0.000 C 
ATOM      6  C   UNL     1     -10.831   5.598  -9.526  0.00  0.00    +0.000 C 
ENDROOT
TORSDOF 0
ENDMDL
