MODEL 1
REMARK VINA RESULT:      -6.4      0.000      0.000
REMARK  Name = Thalidomide.pdbqt.pdb
REMARK  1 active torsions:
REMARK  status: ('A' for Active; 'I' for Inactive)
REMARK    1  A    between atoms: N_3  and  C_12
REMARK                            x       y       z     vdW  Elec       q    Type
REMARK                         _______ _______ _______ _____ _____    ______ ____
ROOT
ATOM      1  O   UNL     1       7.064  -1.875 -19.580  0.00  0.00    +0.000 OA
ATOM      2  O   UNL     1       4.069   1.522 -18.771  0.00  0.00    +0.000 OA
ATOM      3  N   UNL     1       5.232  -0.516 -18.989  0.00  0.00    +0.000 N 
ATOM      4  C   UNL     1       6.543  -0.817 -19.280  0.00  0.00    +0.000 C 
ATOM      5  C   UNL     1       5.076   0.841 -18.803  0.00  0.00    +0.000 C 
ATOM      6  C   UNL     1       7.301   0.422 -19.148  0.00  0.00    +0.000 A 
ATOM      7  C   UNL     1       6.410   1.428 -18.838  0.00  0.00    +0.000 A 
ATOM      8  C   UNL     1       8.651   0.659 -19.306  0.00  0.00    +0.000 A 
ATOM      9  C   UNL     1       6.807   2.739 -18.679  0.00  0.00    +0.000 A 
ATOM     10  C   UNL     1       9.080   1.976 -19.134  0.00  0.00    +0.000 A 
ATOM     11  C   UNL     1       8.171   3.003 -18.825  0.00  0.00    +0.000 A 
ENDROOT
BRANCH   3  12
ATOM     12  C   UNL     1       4.199  -1.419 -19.010  0.00  0.00    +0.000 C 
ATOM     13  C   UNL     1       3.690  -1.985 -20.201  0.00  0.00    +0.000 C 
ATOM     14  C   UNL     1       2.459  -2.837 -20.215  0.00  0.00    +0.000 C 
ATOM     15  C   UNL     1       1.750  -3.177 -19.016  0.00  0.00    +0.000 C 
ATOM     16  O   UNL     1       0.793  -3.933 -19.020  0.00  0.00    +0.000 OA
ATOM     17  N   UNL     1       2.308  -2.605 -17.875  0.00  0.00    +0.000 N 
ATOM     18  C   UNL     1       3.527  -1.926 -17.738  0.00  0.00    +0.000 C 
ATOM     19  H   UNL     1       1.913  -2.936 -17.008  0.00  0.00    +0.000 HD
ATOM     20  O   UNL     1       4.077  -1.872 -16.642  0.00  0.00    +0.000 OA
ENDBRANCH   3  12
TORSDOF 1
ENDMDL
MODEL 2
REMARK VINA RESULT:      -6.3      0.657      2.102
REMARK  Name = Thalidomide.pdbqt.pdb
REMARK  1 active torsions:
REMARK  status: ('A' for Active; 'I' for Inactive)
REMARK    1  A    between atoms: N_3  and  C_12
REMARK                            x       y       z     vdW  Elec       q    Type
REMARK                         _______ _______ _______ _____ _____    ______ ____
ROOT
ATOM      1  O   UNL     1       4.580   1.908 -18.323  0.00  0.00    +0.000 OA
ATOM      2  O   UNL     1       7.070  -1.797 -19.438  0.00  0.00    +0.000 OA
ATOM      3  N   UNL     1       5.407  -0.167 -19.074  0.00  0.00    +0.000 N 
ATOM      4  C   UNL     1       5.462   1.154 -18.693  0.00  0.00    +0.000 C 
ATOM      5  C   UNL     1       6.674  -0.653 -19.319  0.00  0.00    +0.000 C 
ATOM      6  C   UNL     1       6.852   1.576 -18.823  0.00  0.00    +0.000 A 
ATOM      7  C   UNL     1       7.586   0.480 -19.224  0.00  0.00    +0.000 A 
ATOM      8  C   UNL     1       7.433   2.805 -18.591  0.00  0.00    +0.000 A 
ATOM      9  C   UNL     1       8.952   0.536 -19.405  0.00  0.00    +0.000 A 
ATOM     10  C   UNL     1       8.813   2.892 -18.784  0.00  0.00    +0.000 A 
ATOM     11  C   UNL     1       9.563   1.773 -19.185  0.00  0.00    +0.000 A 
ENDROOT
BRANCH   3  12
ATOM     12  C   UNL     1       4.267  -0.932 -19.084  0.00  0.00    +0.000 C 
ATOM     13  C   UNL     1       3.359  -0.951 -20.166  0.00  0.00    +0.000 C 
ATOM     14  C   UNL     1       2.043  -1.662 -20.088  0.00  0.00    +0.000 C 
ATOM     15  C   UNL     1       1.645  -2.409 -18.932  0.00  0.00    +0.000 C 
ATOM     16  O   UNL     1       0.607  -3.050 -18.898  0.00  0.00    +0.000 OA
ATOM     17  N   UNL     1       2.587  -2.366 -17.907  0.00  0.00    +0.000 N 
ATOM     18  C   UNL     1       3.896  -1.864 -17.935  0.00  0.00    +0.000 C 
ATOM     19  H   UNL     1       2.395  -2.992 -17.138  0.00  0.00    +0.000 HD
ATOM     20  O   UNL     1       4.728  -2.277 -17.133  0.00  0.00    +0.000 OA
ENDBRANCH   3  12
TORSDOF 1
ENDMDL
MODEL 3
REMARK VINA RESULT:      -6.1     15.357     17.746
REMARK  Name = Thalidomide.pdbqt.pdb
REMARK  1 active torsions:
REMARK  status: ('A' for Active; 'I' for Inactive)
REMARK    1  A    between atoms: N_3  and  C_12
REMARK                            x       y       z     vdW  Elec       q    Type
REMARK                         _______ _______ _______ _____ _____    ______ ____
ROOT
ATOM      1  O   UNL     1       2.571 -14.914 -11.465  0.00  0.00    +0.000 OA
ATOM      2  O   UNL     1       6.316 -16.932 -13.216  0.00  0.00    +0.000 OA
ATOM      3  N   UNL     1       4.451 -16.249 -11.947  0.00  0.00    +0.000 N 
ATOM      4  C   UNL     1       3.404 -15.395 -12.209  0.00  0.00    +0.000 C 
ATOM      5  C   UNL     1       5.205 -16.456 -13.082  0.00  0.00    +0.000 C 
ATOM      6  C   UNL     1       3.420 -15.135 -13.645  0.00  0.00    +0.000 A 
ATOM      7  C   UNL     1       4.505 -15.798 -14.179  0.00  0.00    +0.000 A 
ATOM      8  C   UNL     1       2.572 -14.369 -14.418  0.00  0.00    +0.000 A 
ATOM      9  C   UNL     1       4.823 -15.726 -15.519  0.00  0.00    +0.000 A 
ATOM     10  C   UNL     1       2.864 -14.294 -15.781  0.00  0.00    +0.000 A 
ATOM     11  C   UNL     1       3.975 -14.963 -16.325  0.00  0.00    +0.000 A 
ENDROOT
BRANCH   3  12
ATOM     12  C   UNL     1       4.778 -16.727 -10.702  0.00  0.00    +0.000 C 
ATOM     13  C   UNL     1       4.183 -17.875 -10.133  0.00  0.00    +0.000 C 
ATOM     14  C   UNL     1       4.431 -18.281  -8.713  0.00  0.00    +0.000 C 
ATOM     15  C   UNL     1       5.328 -17.561  -7.858  0.00  0.00    +0.000 C 
ATOM     16  O   UNL     1       5.588 -17.936  -6.727  0.00  0.00    +0.000 OA
ATOM     17  N   UNL     1       5.896 -16.451  -8.479  0.00  0.00    +0.000 N 
ATOM     18  C   UNL     1       5.847 -16.076  -9.829  0.00  0.00    +0.000 C 
ATOM     19  H   UNL     1       6.631 -16.007  -7.948  0.00  0.00    +0.000 HD
ATOM     20  O   UNL     1       6.723 -15.355 -10.297  0.00  0.00    +0.000 OA
ENDBRANCH   3  12
TORSDOF 1
ENDMDL
MODEL 4
REMARK VINA RESULT:      -6.0     15.368     17.681
REMARK  Name = Thalidomide.pdbqt.pdb
REMARK  1 active torsions:
REMARK  status: ('A' for Active; 'I' for Inactive)
REMARK    1  A    between atoms: N_3  and  C_12
REMARK                            x       y       z     vdW  Elec       q    Type
REMARK                         _______ _______ _______ _____ _____    ______ ____
ROOT
ATOM      1  O   UNL     1       6.010 -17.351 -13.276  0.00  0.00    +0.000 OA
ATOM      2  O   UNL     1       2.431 -15.062 -11.512  0.00  0.00    +0.000 OA
ATOM      3  N   UNL     1       4.440 -16.220 -11.933  0.00  0.00    +0.000 N 
ATOM      4  C   UNL     1       5.082 -16.586 -13.094  0.00  0.00    +0.000 C 
ATOM      5  C   UNL     1       3.369 -15.397 -12.210  0.00  0.00    +0.000 C 
ATOM      6  C   UNL     1       4.450 -15.844 -14.179  0.00  0.00    +0.000 A 
ATOM      7  C   UNL     1       3.420 -15.105 -13.637  0.00  0.00    +0.000 A 
ATOM      8  C   UNL     1       4.735 -15.830 -15.529  0.00  0.00    +0.000 A 
ATOM      9  C   UNL     1       2.596 -14.314 -14.410  0.00  0.00    +0.000 A 
ATOM     10  C   UNL     1       3.925 -15.024 -16.331  0.00  0.00    +0.000 A 
ATOM     11  C   UNL     1       2.869 -14.276 -15.779  0.00  0.00    +0.000 A 
ENDROOT
BRANCH   3  12
ATOM     12  C   UNL     1       4.741 -16.708 -10.685  0.00  0.00    +0.000 C 
ATOM     13  C   UNL     1       4.081 -17.816 -10.109  0.00  0.00    +0.000 C 
ATOM     14  C   UNL     1       4.309 -18.227  -8.687  0.00  0.00    +0.000 C 
ATOM     15  C   UNL     1       5.247 -17.556  -7.837  0.00  0.00    +0.000 C 
ATOM     16  O   UNL     1       5.487 -17.938  -6.704  0.00  0.00    +0.000 OA
ATOM     17  N   UNL     1       5.877 -16.483  -8.465  0.00  0.00    +0.000 N 
ATOM     18  C   UNL     1       5.847 -16.115  -9.818  0.00  0.00    +0.000 C 
ATOM     19  H   UNL     1       6.637 -16.080  -7.938  0.00  0.00    +0.000 HD
ATOM     20  O   UNL     1       6.763 -15.449 -10.291  0.00  0.00    +0.000 OA
ENDBRANCH   3  12
TORSDOF 1
ENDMDL
MODEL 5
REMARK VINA RESULT:      -6.0      5.350      6.947
REMARK  Name = Thalidomide.pdbqt.pdb
REMARK  1 active torsions:
REMARK  status: ('A' for Active; 'I' for Inactive)
REMARK    1  A    between atoms: N_3  and  C_12
REMARK                            x       y       z     vdW  Elec       q    Type
REMARK                         _______ _______ _______ _____ _____    ______ ____
ROOT
ATOM      1  O   UNL     1       8.956  -1.743 -20.062  0.00  0.00    +0.000 OA
ATOM      2  O   UNL     1      12.254  -2.484 -16.940  0.00  0.00    +0.000 OA
ATOM      3  N   UNL     1      10.822  -2.456 -18.811  0.00  0.00    +0.000 N 
ATOM      4  C   UNL     1       9.802  -1.616 -19.196  0.00  0.00    +0.000 C 
ATOM      5  C   UNL     1      11.479  -1.950 -17.711  0.00  0.00    +0.000 C 
ATOM      6  C   UNL     1       9.894  -0.427 -18.355  0.00  0.00    +0.000 A 
ATOM      7  C   UNL     1      10.928  -0.623 -17.464  0.00  0.00    +0.000 A 
ATOM      8  C   UNL     1       9.128   0.720 -18.352  0.00  0.00    +0.000 A 
ATOM      9  C   UNL     1      11.256   0.309 -16.502  0.00  0.00    +0.000 A 
ATOM     10  C   UNL     1       9.450   1.686 -17.397  0.00  0.00    +0.000 A 
ATOM     11  C   UNL     1      10.499   1.483 -16.484  0.00  0.00    +0.000 A 
ENDROOT
BRANCH   3  12
ATOM     12  C   UNL     1      11.069  -3.689 -19.363  0.00  0.00    +0.000 C 
ATOM     13  C   UNL     1      11.999  -3.897 -20.406  0.00  0.00    +0.000 C 
ATOM     14  C   UNL     1      12.132  -5.216 -21.104  0.00  0.00    +0.000 C 
ATOM     15  C   UNL     1      11.363  -6.363 -20.723  0.00  0.00    +0.000 C 
ATOM     16  O   UNL     1      11.526  -7.455 -21.241  0.00  0.00    +0.000 OA
ATOM     17  N   UNL     1      10.477  -6.101 -19.680  0.00  0.00    +0.000 N 
ATOM     18  C   UNL     1      10.384  -4.960 -18.870  0.00  0.00    +0.000 C 
ATOM     19  H   UNL     1      10.023  -6.920 -19.303  0.00  0.00    +0.000 HD
ATOM     20  O   UNL     1       9.882  -5.041 -17.753  0.00  0.00    +0.000 OA
ENDBRANCH   3  12
TORSDOF 1
ENDMDL
MODEL 6
REMARK VINA RESULT:      -5.9     20.477     21.818
REMARK  Name = Thalidomide.pdbqt.pdb
REMARK  1 active torsions:
REMARK  status: ('A' for Active; 'I' for Inactive)
REMARK    1  A    between atoms: N_3  and  C_12
REMARK                            x       y       z     vdW  Elec       q    Type
REMARK                         _______ _______ _______ _____ _____    ______ ____
ROOT
ATOM      1  O   UNL     1     -11.276   4.528  -9.664  0.00  0.00    +0.000 OA
ATOM      2  O   UNL     1     -14.775   7.399  -8.839  0.00  0.00    +0.000 OA
ATOM      3  N   UNL     1     -13.356   5.597  -9.382  0.00  0.00    +0.000 N 
ATOM      4  C   UNL     1     -12.010   5.379  -9.197  0.00  0.00    +0.000 C 
ATOM      5  C   UNL     1     -13.756   6.744  -8.730  0.00  0.00    +0.000 C 
ATOM      6  C   UNL     1     -11.543   6.391  -8.257  0.00  0.00    +0.000 A 
ATOM      7  C   UNL     1     -12.611   7.210  -7.957  0.00  0.00    +0.000 A 
ATOM      8  C   UNL     1     -10.287   6.595  -7.723  0.00  0.00    +0.000 A 
ATOM      9  C   UNL     1     -12.492   8.296  -7.116  0.00  0.00    +0.000 A 
ATOM     10  C   UNL     1     -10.144   7.680  -6.855  0.00  0.00    +0.000 A 
ATOM     11  C   UNL     1     -11.232   8.520  -6.556  0.00  0.00    +0.000 A 
ENDROOT
BRANCH   3  12
ATOM     12  C   UNL     1     -14.163   4.853 -10.207  0.00  0.00    +0.000 C 
ATOM     13  C   UNL     1     -14.395   5.179 -11.562  0.00  0.00    +0.000 C 
ATOM     14  C   UNL     1     -15.406   4.452 -12.394  0.00  0.00    +0.000 C 
ATOM     15  C   UNL     1     -16.163   3.347 -11.886  0.00  0.00    +0.000 C 
ATOM     16  O   UNL     1     -16.930   2.708 -12.587  0.00  0.00    +0.000 OA
ATOM     17  N   UNL     1     -15.880   3.062 -10.552  0.00  0.00    +0.000 N 
ATOM     18  C   UNL     1     -14.858   3.577  -9.741  0.00  0.00    +0.000 C 
ATOM     19  H   UNL     1     -16.295   2.209 -10.210  0.00  0.00    +0.000 HD
ATOM     20  O   UNL     1     -14.466   2.936  -8.770  0.00  0.00    +0.000 OA
ENDBRANCH   3  12
TORSDOF 1
ENDMDL
MODEL 7
REMARK VINA RESULT:      -5.8     14.448     16.094
REMARK  Name = Thalidomide.pdbqt.pdb
REMARK  1 active torsions:
REMARK  status: ('A' for Active; 'I' for Inactive)
REMARK    1  A    between atoms: N_3  and  C_12
REMARK                            x       y       z     vdW  Elec       q    Type
REMARK                         _______ _______ _______ _____ _____    ______ ____
ROOT
ATOM      1  O   UNL     1      13.796  -6.292  -5.156  0.00  0.00    +0.000 OA
ATOM      2  O   UNL     1      10.463  -3.888  -7.222  0.00  0.00    +0.000 OA
ATOM      3  N   UNL     1      12.426  -5.034  -6.602  0.00  0.00    +0.000 N 
ATOM      4  C   UNL     1      12.724  -5.878  -5.556  0.00  0.00    +0.000 C 
ATOM      5  C   UNL     1      11.077  -4.753  -6.628  0.00  0.00    +0.000 C 
ATOM      6  C   UNL     1      11.456  -6.262  -4.947  0.00  0.00    +0.000 A 
ATOM      7  C   UNL     1      10.451  -5.592  -5.613  0.00  0.00    +0.000 A 
ATOM      8  C   UNL     1      11.199  -7.108  -3.888  0.00  0.00    +0.000 A 
ATOM      9  C   UNL     1       9.125  -5.712  -5.256  0.00  0.00    +0.000 A 
ATOM     10  C   UNL     1       9.862  -7.258  -3.517  0.00  0.00    +0.000 A 
ATOM     11  C   UNL     1       8.838  -6.569  -4.191  0.00  0.00    +0.000 A 
ENDROOT
BRANCH   3  12
ATOM     12  C   UNL     1      13.356  -4.447  -7.424  0.00  0.00    +0.000 C 
ATOM     13  C   UNL     1      13.850  -5.063  -8.595  0.00  0.00    +0.000 C 
ATOM     14  C   UNL     1      14.982  -4.481  -9.384  0.00  0.00    +0.000 C 
ATOM     15  C   UNL     1      15.601  -3.237  -9.031  0.00  0.00    +0.000 C 
ATOM     16  O   UNL     1      16.471  -2.727  -9.717  0.00  0.00    +0.000 OA
ATOM     17  N   UNL     1      15.061  -2.671  -7.879  0.00  0.00    +0.000 N 
ATOM     18  C   UNL     1      13.917  -3.053  -7.163  0.00  0.00    +0.000 C 
ATOM     19  H   UNL     1      15.382  -1.734  -7.685  0.00  0.00    +0.000 HD
ATOM     20  O   UNL     1      13.331  -2.232  -6.463  0.00  0.00    +0.000 OA
ENDBRANCH   3  12
TORSDOF 1
ENDMDL
MODEL 8
REMARK VINA RESULT:      -5.8      5.911      7.106
REMARK  Name = Thalidomide.pdbqt.pdb
REMARK  1 active torsions:
REMARK  status: ('A' for Active; 'I' for Inactive)
REMARK    1  A    between atoms: N_3  and  C_12
REMARK                            x       y       z     vdW  Elec       q    Type
REMARK                         _______ _______ _______ _____ _____    ______ ____
ROOT
ATOM      1  O   UNL     1      10.833  -0.249 -20.710  0.00  0.00    +0.000 OA
ATOM      2  O   UNL     1       9.294   3.310 -18.234  0.00  0.00    +0.000 OA
ATOM      3  N   UNL     1       9.762   1.670 -19.860  0.00  0.00    +0.000 N 
ATOM      4  C   UNL     1      10.441   0.474 -19.813  0.00  0.00    +0.000 C 
ATOM      5  C   UNL     1       9.610   2.192 -18.594  0.00  0.00    +0.000 C 
ATOM      6  C   UNL     1      10.626   0.148 -18.403  0.00  0.00    +0.000 A 
ATOM      7  C   UNL     1      10.102   1.185 -17.661  0.00  0.00    +0.000 A 
ATOM      8  C   UNL     1      11.221  -0.950 -17.816  0.00  0.00    +0.000 A 
ATOM      9  C   UNL     1      10.150   1.201 -16.283  0.00  0.00    +0.000 A 
ATOM     10  C   UNL     1      11.267  -0.965 -16.421  0.00  0.00    +0.000 A 
ATOM     11  C   UNL     1      10.740   0.097 -15.664  0.00  0.00    +0.000 A 
ENDROOT
BRANCH   3  12
ATOM     12  C   UNL     1       9.402   2.319 -21.015  0.00  0.00    +0.000 C 
ATOM     13  C   UNL     1       8.061   2.452 -21.441  0.00  0.00    +0.000 C 
ATOM     14  C   UNL     1       7.704   3.017 -22.782  0.00  0.00    +0.000 C 
ATOM     15  C   UNL     1       8.695   3.505 -23.695  0.00  0.00    +0.000 C 
ATOM     16  O   UNL     1       8.398   4.033 -24.753  0.00  0.00    +0.000 OA
ATOM     17  N   UNL     1       9.994   3.362 -23.213  0.00  0.00    +0.000 N 
ATOM     18  C   UNL     1      10.421   2.992 -21.930  0.00  0.00    +0.000 C 
ATOM     19  H   UNL     1      10.699   3.819 -23.773  0.00  0.00    +0.000 HD
ATOM     20  O   UNL     1      11.534   3.327 -21.534  0.00  0.00    +0.000 OA
ENDBRANCH   3  12
TORSDOF 1
ENDMDL
MODEL 9
REMARK VINA RESULT:      -5.7     17.878     19.782
REMARK  Name = Thalidomide.pdbqt.pdb
REMARK  1 active torsions:
REMARK  status: ('A' for Active; 'I' for Inactive)
REMARK    1  A    between atoms: N_3  and  C_12
REMARK                            x       y       z     vdW  Elec       q    Type
REMARK                         _______ _______ _______ _____ _____    ______ ____
ROOT
ATOM      1  O   UNL     1      -4.610  17.620 -17.424  0.00  0.00    +0.000 OA
ATOM      2  O   UNL     1      -3.168  14.136 -14.789  0.00  0.00    +0.000 OA
ATOM      3  N   UNL     1      -4.261  15.979 -15.770  0.00  0.00    +0.000 N 
ATOM      4  C   UNL     1      -4.182  16.556 -17.017  0.00  0.00    +0.000 C 
ATOM      5  C   UNL     1      -3.542  14.803 -15.734  0.00  0.00    +0.000 C 
ATOM      6  C   UNL     1      -3.465  15.619 -17.873  0.00  0.00    +0.000 A 
ATOM      7  C   UNL     1      -3.092  14.542 -17.096  0.00  0.00    +0.000 A 
ATOM      8  C   UNL     1      -3.144  15.705 -19.212  0.00  0.00    +0.000 A 
ATOM      9  C   UNL     1      -2.362  13.487 -17.602  0.00  0.00    +0.000 A 
ATOM     10  C   UNL     1      -2.418  14.642 -19.752  0.00  0.00    +0.000 A 
ATOM     11  C   UNL     1      -2.032  13.547 -18.958  0.00  0.00    +0.000 A 
ENDROOT
BRANCH   3  12
ATOM     12  C   UNL     1      -4.860  16.555 -14.678  0.00  0.00    +0.000 C 
ATOM     13  C   UNL     1      -4.373  17.728 -14.058  0.00  0.00    +0.000 C 
ATOM     14  C   UNL     1      -4.942  18.244 -12.772  0.00  0.00    +0.000 C 
ATOM     15  C   UNL     1      -6.049  17.612 -12.117  0.00  0.00    +0.000 C 
ATOM     16  O   UNL     1      -6.559  18.077 -11.112  0.00  0.00    +0.000 OA
ATOM     17  N   UNL     1      -6.495  16.473 -12.783  0.00  0.00    +0.000 N 
ATOM     18  C   UNL     1      -6.135  15.998 -14.053  0.00  0.00    +0.000 C 
ATOM     19  H   UNL     1      -7.354  16.088 -12.420  0.00  0.00    +0.000 HD
ATOM     20  O   UNL     1      -6.901  15.266 -14.672  0.00  0.00    +0.000 OA
ENDBRANCH   3  12
TORSDOF 1
ENDMDL
