MODEL 1
REMARK VINA RESULT:      -6.8      0.000      0.000
REMARK  Name = Thapsigargin.pdbqt.pdb
REMARK  10 active torsions:
REMARK  status: ('A' for Active; 'I' for Inactive)
REMARK    1  A    between atoms: O_2  and  C_24
REMARK    2  A    between atoms: C_17  and  O_43
REMARK    3  A    between atoms: C_19  and  C_24
REMARK    4  A    between atoms: C_19  and  O_47
REMARK    5  A    between atoms: C_27  and  C_35
REMARK    6  A    between atoms: C_35  and  C_36
REMARK    7  A    between atoms: C_37  and  C_38
REMARK    8  A    between atoms: C_39  and  C_40
REMARK    9  A    between atoms: C_42  and  O_43
REMARK   10  A    between atoms: C_42  and  C_44
REMARK                            x       y       z     vdW  Elec       q    Type
REMARK                         _______ _______ _______ _____ _____    ______ ____
ROOT
ATOM      1  O   UNL     1       5.053   1.607 -18.683  0.00  0.00    +0.000 OA
ATOM      2  O   UNL     1       8.612  -2.208 -21.761  0.00  0.00    +0.000 OA
ATOM      3  O   UNL     1       9.978  -1.711 -19.656  0.00  0.00    +0.000 OA
ATOM      4  O   UNL     1       9.454   1.993 -21.510  0.00  0.00    +0.000 OA
ATOM      5  O   UNL     1       3.329   2.022 -17.240  0.00  0.00    +0.000 OA
ATOM      6  O   UNL     1       9.036  -2.821 -19.430  0.00  0.00    +0.000 OA
ATOM      7  O   UNL     1      12.263  -1.402 -20.478  0.00  0.00    +0.000 OA
ATOM      8  O   UNL     1       8.902   3.340 -19.489  0.00  0.00    +0.000 OA
ATOM      9  C   UNL     1       6.847  -0.396 -21.535  0.00  0.00    +0.000 C 
ATOM     10  C   UNL     1       4.398  -0.501 -19.404  0.00  0.00    +0.000 C 
ATOM     11  C   UNL     1       5.338   0.568 -19.558  0.00  0.00    +0.000 C 
ATOM     12  C   UNL     1       6.185  -1.701 -21.822  0.00  0.00    +0.000 C 
ATOM     13  C   UNL     1       6.346   0.607 -20.456  0.00  0.00    +0.000 C 
ATOM     14  C   UNL     1       4.459  -1.485 -20.239  0.00  0.00    +0.000 C 
ATOM     15  C   UNL     1       5.022  -2.175 -21.335  0.00  0.00    +0.000 C 
ATOM     16  C   UNL     1       7.780   0.372 -22.328  0.00  0.00    +0.000 C 
ATOM     17  C   UNL     1       3.435  -0.160 -18.341  0.00  0.00    +0.000 C 
ATOM     18  C   UNL     1       8.137   1.535 -21.616  0.00  0.00    +0.000 C 
ATOM     19  C   UNL     1       7.242   1.756 -20.630  0.00  0.00    +0.000 C 
ATOM     20  C   UNL     1       7.459  -1.676 -21.080  0.00  0.00    +0.000 C 
ATOM     21  C   UNL     1       3.909   1.256 -18.003  0.00  0.00    +0.000 C 
ATOM     22  C   UNL     1       7.768   2.692 -19.730  0.00  0.00    +0.000 C 
ATOM     23  C   UNL     1       8.169  -2.912 -20.593  0.00  0.00    +0.000 C 
ATOM     24  C   UNL     1      11.225  -2.215 -20.040  0.00  0.00    +0.000 C 
ATOM     25  C   UNL     1       9.845   2.592 -20.255  0.00  0.00    +0.000 C 
ATOM     26  C   UNL     1       7.686  -4.337 -20.897  0.00  0.00    +0.000 C 
ATOM     27  C   UNL     1      11.014   2.224 -19.691  0.00  0.00    +0.000 C 
ATOM     28  C   UNL     1      11.462   2.779 -18.357  0.00  0.00    +0.000 C 
ATOM     29  C   UNL     1      11.666   1.031 -20.112  0.00  0.00    +0.000 C 
ATOM     30  C   UNL     1      11.995  -0.107 -20.318  0.00  0.00    +0.000 C 
ENDROOT
BRANCH  17  31
ATOM     31  O   UNL     1       2.107  -0.197 -18.833  0.00  0.00    +0.000 OA
ATOM     32  H   UNL     1       1.659   0.574 -18.437  0.00  0.00    +0.000 HD
ENDBRANCH  17  31
BRANCH  17  33
ATOM     33  C   UNL     1       3.569  -1.082 -17.199  0.00  0.00    +0.000 C 
BRANCH  33  34
ATOM     34  O   UNL     1       3.670  -1.905 -16.156  0.00  0.00    +0.000 OA
ATOM     35  H   UNL     1       2.807  -2.025 -15.718  0.00  0.00    +0.000 HD
ENDBRANCH  33  34
ENDBRANCH  17  33
BRANCH  24  36
ATOM     36  C   UNL     1      11.425  -3.490 -20.188  0.00  0.00    +0.000 C 
BRANCH  36  37
ATOM     37  C   UNL     1      11.706  -4.984 -20.383  0.00  0.00    +0.000 C 
ATOM     38  C   UNL     1      11.956  -6.145 -20.553  0.00  0.00    +0.000 C 
BRANCH  38  39
ATOM     39  C   UNL     1      12.301  -7.620 -20.782  0.00  0.00    +0.000 C 
ATOM     40  C   UNL     1      12.559  -8.780 -20.952  0.00  0.00    +0.000 C 
BRANCH  40  41
ATOM     41  C   UNL     1      12.882 -10.262 -21.167  0.00  0.00    +0.000 C 
ATOM     42  C   UNL     1      13.159 -11.552 -21.354  0.00  0.00    +0.000 C 
ENDBRANCH  40  41
ENDBRANCH  38  39
ENDBRANCH  36  37
ENDBRANCH  24  36
BRANCH  15  43
ATOM     43  O   UNL     1       4.273  -3.111 -22.056  0.00  0.00    +0.000 OA
BRANCH  43  45
ATOM     44  O   UNL     1       2.246  -2.157 -22.694  0.00  0.00    +0.000 OA
ATOM     45  C   UNL     1       2.922  -2.906 -22.003  0.00  0.00    +0.000 C 
BRANCH  45  46
ATOM     46  C   UNL     1       2.307  -3.700 -20.983  0.00  0.00    +0.000 C 
ATOM     47  C   UNL     1       1.787  -4.361 -20.131  0.00  0.00    +0.000 C 
ATOM     48  C   UNL     1       1.137  -5.211 -19.037  0.00  0.00    +0.000 C 
ENDBRANCH  45  46
ENDBRANCH  43  45
ENDBRANCH  15  43
TORSDOF 10
ENDMDL
MODEL 2
REMARK VINA RESULT:      -6.8      4.678      9.478
REMARK  Name = Thapsigargin.pdbqt.pdb
REMARK  10 active torsions:
REMARK  status: ('A' for Active; 'I' for Inactive)
REMARK    1  A    between atoms: O_2  and  C_24
REMARK    2  A    between atoms: C_17  and  O_43
REMARK    3  A    between atoms: C_19  and  C_24
REMARK    4  A    between atoms: C_19  and  O_47
REMARK    5  A    between atoms: C_27  and  C_35
REMARK    6  A    between atoms: C_35  and  C_36
REMARK    7  A    between atoms: C_37  and  C_38
REMARK    8  A    between atoms: C_39  and  C_40
REMARK    9  A    between atoms: C_42  and  O_43
REMARK   10  A    between atoms: C_42  and  C_44
REMARK                            x       y       z     vdW  Elec       q    Type
REMARK                         _______ _______ _______ _____ _____    ______ ____
ROOT
ATOM      1  O   UNL     1      13.775  -3.189 -20.279  0.00  0.00    +0.000 OA
ATOM      2  O   UNL     1      11.539   1.953 -22.573  0.00  0.00    +0.000 OA
ATOM      3  O   UNL     1      10.870   0.202 -24.313  0.00  0.00    +0.000 OA
ATOM      4  O   UNL     1      15.041   0.071 -24.188  0.00  0.00    +0.000 OA
ATOM      5  O   UNL     1      13.620  -5.006 -18.901  0.00  0.00    +0.000 OA
ATOM      6  O   UNL     1       9.872   0.287 -23.233  0.00  0.00    +0.000 OA
ATOM      7  O   UNL     1      11.321   1.284 -26.462  0.00  0.00    +0.000 OA
ATOM      8  O   UNL     1      15.331  -2.403 -24.207  0.00  0.00    +0.000 OA
ATOM      9  C   UNL     1      13.185   0.571 -21.220  0.00  0.00    +0.000 C 
ATOM     10  C   UNL     1      12.316  -1.777 -19.150  0.00  0.00    +0.000 C 
ATOM     11  C   UNL     1      13.244  -1.906 -20.233  0.00  0.00    +0.000 C 
ATOM     12  C   UNL     1      12.230   1.250 -20.297  0.00  0.00    +0.000 C 
ATOM     13  C   UNL     1      13.608  -0.920 -21.081  0.00  0.00    +0.000 C 
ATOM     14  C   UNL     1      11.835  -0.602 -18.903  0.00  0.00    +0.000 C 
ATOM     15  C   UNL     1      11.690   0.778 -19.157  0.00  0.00    +0.000 C 
ATOM     16  C   UNL     1      14.147   1.129 -22.143  0.00  0.00    +0.000 C 
ATOM     17  C   UNL     1      12.206  -3.064 -18.441  0.00  0.00    +0.000 C 
ATOM     18  C   UNL     1      14.805   0.075 -22.810  0.00  0.00    +0.000 C 
ATOM     19  C   UNL     1      14.619  -1.078 -22.132  0.00  0.00    +0.000 C 
ATOM     20  C   UNL     1      11.791   0.873 -21.653  0.00  0.00    +0.000 C 
ATOM     21  C   UNL     1      13.251  -3.877 -19.209  0.00  0.00    +0.000 C 
ATOM     22  C   UNL     1      14.975  -2.157 -22.951  0.00  0.00    +0.000 C 
ATOM     23  C   UNL     1      10.413   1.149 -22.194  0.00  0.00    +0.000 C 
ATOM     24  C   UNL     1      10.494   1.032 -25.375  0.00  0.00    +0.000 C 
ATOM     25  C   UNL     1      14.946  -1.200 -24.870  0.00  0.00    +0.000 C 
ATOM     26  C   UNL     1       9.345   1.935 -21.421  0.00  0.00    +0.000 C 
ATOM     27  C   UNL     1      14.254  -1.272 -26.025  0.00  0.00    +0.000 C 
ATOM     28  C   UNL     1      14.079  -2.579 -26.766  0.00  0.00    +0.000 C 
ATOM     29  C   UNL     1      13.343  -0.237 -26.379  0.00  0.00    +0.000 C 
ATOM     30  C   UNL     1      12.409   0.516 -26.461  0.00  0.00    +0.000 C 
ENDROOT
BRANCH  17  31
ATOM     31  O   UNL     1      12.522  -2.911 -17.068  0.00  0.00    +0.000 OA
ATOM     32  H   UNL     1      12.050  -3.631 -16.608  0.00  0.00    +0.000 HD
ENDBRANCH  17  31
BRANCH  17  33
ATOM     33  C   UNL     1      10.849  -3.623 -18.579  0.00  0.00    +0.000 C 
BRANCH  33  34
ATOM     34  O   UNL     1       9.625  -4.127 -18.729  0.00  0.00    +0.000 OA
ATOM     35  H   UNL     1       8.946  -3.432 -18.644  0.00  0.00    +0.000 HD
ENDBRANCH  33  34
ENDBRANCH  17  33
BRANCH  24  36
ATOM     36  C   UNL     1       9.424   1.766 -25.315  0.00  0.00    +0.000 C 
BRANCH  36  37
ATOM     37  C   UNL     1       8.185   2.663 -25.214  0.00  0.00    +0.000 C 
ATOM     38  C   UNL     1       7.231   3.389 -25.157  0.00  0.00    +0.000 C 
BRANCH  38  39
ATOM     39  C   UNL     1       6.025   4.332 -25.103  0.00  0.00    +0.000 C 
ATOM     40  C   UNL     1       5.072   5.061 -25.069  0.00  0.00    +0.000 C 
BRANCH  40  41
ATOM     41  C   UNL     1       3.851   5.985 -25.026  0.00  0.00    +0.000 C 
ATOM     42  C   UNL     1       2.787   6.787 -24.987  0.00  0.00    +0.000 C 
ENDBRANCH  40  41
ENDBRANCH  38  39
ENDBRANCH  36  37
ENDBRANCH  24  36
BRANCH  15  43
ATOM     43  O   UNL     1      11.271   1.654 -18.149  0.00  0.00    +0.000 OA
BRANCH  43  45
ATOM     44  O   UNL     1      10.462   0.449 -16.327  0.00  0.00    +0.000 OA
ATOM     45  C   UNL     1      10.308   1.138 -17.326  0.00  0.00    +0.000 C 
BRANCH  45  46
ATOM     46  C   UNL     1       8.993   1.492 -17.765  0.00  0.00    +0.000 C 
ATOM     47  C   UNL     1       7.895   1.792 -18.136  0.00  0.00    +0.000 C 
ATOM     48  C   UNL     1       6.486   2.168 -18.599  0.00  0.00    +0.000 C 
ENDBRANCH  45  46
ENDBRANCH  43  45
ENDBRANCH  15  43
TORSDOF 10
ENDMDL
MODEL 3
REMARK VINA RESULT:      -6.5      6.082     11.084
REMARK  Name = Thapsigargin.pdbqt.pdb
REMARK  10 active torsions:
REMARK  status: ('A' for Active; 'I' for Inactive)
REMARK    1  A    between atoms: O_2  and  C_24
REMARK    2  A    between atoms: C_17  and  O_43
REMARK    3  A    between atoms: C_19  and  C_24
REMARK    4  A    between atoms: C_19  and  O_47
REMARK    5  A    between atoms: C_27  and  C_35
REMARK    6  A    between atoms: C_35  and  C_36
REMARK    7  A    between atoms: C_37  and  C_38
REMARK    8  A    between atoms: C_39  and  C_40
REMARK    9  A    between atoms: C_42  and  O_43
REMARK   10  A    between atoms: C_42  and  C_44
REMARK                            x       y       z     vdW  Elec       q    Type
REMARK                         _______ _______ _______ _____ _____    ______ ____
ROOT
ATOM      1  O   UNL     1      -1.474   2.175 -19.395  0.00  0.00    +0.000 OA
ATOM      2  O   UNL     1      -1.164  -3.560 -21.322  0.00  0.00    +0.000 OA
ATOM      3  O   UNL     1      -2.784  -2.478 -22.979  0.00  0.00    +0.000 OA
ATOM      4  O   UNL     1      -4.596  -2.037 -19.244  0.00  0.00    +0.000 OA
ATOM      5  O   UNL     1      -0.670   4.313 -19.320  0.00  0.00    +0.000 OA
ATOM      6  O   UNL     1      -1.386  -2.292 -23.404  0.00  0.00    +0.000 OA
ATOM      7  O   UNL     1      -4.564  -4.136 -23.253  0.00  0.00    +0.000 OA
ATOM      8  O   UNL     1      -5.352   0.325 -19.479  0.00  0.00    +0.000 OA
ATOM      9  C   UNL     1      -1.089  -1.723 -19.570  0.00  0.00    +0.000 C 
ATOM     10  C   UNL     1       0.501   1.085 -19.949  0.00  0.00    +0.000 C 
ATOM     11  C   UNL     1      -0.879   0.936 -19.597  0.00  0.00    +0.000 C 
ATOM     12  C   UNL     1       0.301  -2.146 -19.905  0.00  0.00    +0.000 C 
ATOM     13  C   UNL     1      -1.528  -0.237 -19.429  0.00  0.00    +0.000 C 
ATOM     14  C   UNL     1       1.219   0.014 -20.044  0.00  0.00    +0.000 C 
ATOM     15  C   UNL     1       1.407  -1.384 -20.007  0.00  0.00    +0.000 C 
ATOM     16  C   UNL     1      -2.178  -2.472 -18.987  0.00  0.00    +0.000 C 
ATOM     17  C   UNL     1       0.842   2.517 -20.007  0.00  0.00    +0.000 C 
ATOM     18  C   UNL     1      -3.307  -1.633 -18.883  0.00  0.00    +0.000 C 
ATOM     19  C   UNL     1      -2.925  -0.343 -18.995  0.00  0.00    +0.000 C 
ATOM     20  C   UNL     1      -0.756  -2.235 -20.930  0.00  0.00    +0.000 C 
ATOM     21  C   UNL     1      -0.489   3.122 -19.554  0.00  0.00    +0.000 C 
ATOM     22  C   UNL     1      -4.054   0.454 -19.229  0.00  0.00    +0.000 C 
ATOM     23  C   UNL     1      -0.528  -2.755 -22.325  0.00  0.00    +0.000 C 
ATOM     24  C   UNL     1      -3.320  -3.617 -23.589  0.00  0.00    +0.000 C 
ATOM     25  C   UNL     1      -5.450  -1.047 -19.858  0.00  0.00    +0.000 C 
ATOM     26  C   UNL     1       0.811  -3.335 -22.801  0.00  0.00    +0.000 C 
ATOM     27  C   UNL     1      -6.146  -1.380 -20.966  0.00  0.00    +0.000 C 
ATOM     28  C   UNL     1      -7.023  -0.379 -21.684  0.00  0.00    +0.000 C 
ATOM     29  C   UNL     1      -5.781  -2.532 -21.719  0.00  0.00    +0.000 C 
ATOM     30  C   UNL     1      -5.244  -3.333 -22.436  0.00  0.00    +0.000 C 
ENDROOT
BRANCH  17  31
ATOM     31  O   UNL     1       1.914   2.816 -19.128  0.00  0.00    +0.000 OA
ATOM     32  H   UNL     1       2.160   3.740 -19.320  0.00  0.00    +0.000 HD
ENDBRANCH  17  31
BRANCH  17  33
ATOM     33  C   UNL     1       1.200   2.915 -21.381  0.00  0.00    +0.000 C 
BRANCH  33  34
ATOM     34  O   UNL     1       1.544   3.263 -22.619  0.00  0.00    +0.000 OA
ATOM     35  H   UNL     1       1.121   2.680 -23.278  0.00  0.00    +0.000 HD
ENDBRANCH  33  34
ENDBRANCH  17  33
BRANCH  24  36
ATOM     36  C   UNL     1      -2.604  -4.367 -24.372  0.00  0.00    +0.000 C 
BRANCH  36  37
ATOM     37  C   UNL     1      -1.746  -5.278 -25.256  0.00  0.00    +0.000 C 
ATOM     38  C   UNL     1      -1.075  -6.018 -25.922  0.00  0.00    +0.000 C 
BRANCH  38  39
ATOM     39  C   UNL     1      -0.221  -6.981 -26.753  0.00  0.00    +0.000 C 
ATOM     40  C   UNL     1       0.458  -7.737 -27.393  0.00  0.00    +0.000 C 
BRANCH  40  41
ATOM     41  C   UNL     1       1.327  -8.703 -28.202  0.00  0.00    +0.000 C 
ATOM     42  C   UNL     1       2.083  -9.543 -28.908  0.00  0.00    +0.000 C 
ENDBRANCH  40  41
ENDBRANCH  38  39
ENDBRANCH  36  37
ENDBRANCH  24  36
BRANCH  15  43
ATOM     43  O   UNL     1       2.676  -1.933 -19.792  0.00  0.00    +0.000 OA
BRANCH  43  45
ATOM     44  O   UNL     1       2.943  -2.423 -17.530  0.00  0.00    +0.000 OA
ATOM     45  C   UNL     1       3.159  -1.745 -18.526  0.00  0.00    +0.000 C 
BRANCH  45  46
ATOM     46  C   UNL     1       4.002  -0.592 -18.448  0.00  0.00    +0.000 C 
ATOM     47  C   UNL     1       4.705   0.375 -18.388  0.00  0.00    +0.000 C 
ATOM     48  C   UNL     1       5.613   1.604 -18.302  0.00  0.00    +0.000 C 
ENDBRANCH  45  46
ENDBRANCH  43  45
ENDBRANCH  15  43
TORSDOF 10
ENDMDL
MODEL 4
REMARK VINA RESULT:      -6.4      5.155      9.684
REMARK  Name = Thapsigargin.pdbqt.pdb
REMARK  10 active torsions:
REMARK  status: ('A' for Active; 'I' for Inactive)
REMARK    1  A    between atoms: O_2  and  C_24
REMARK    2  A    between atoms: C_17  and  O_43
REMARK    3  A    between atoms: C_19  and  C_24
REMARK    4  A    between atoms: C_19  and  O_47
REMARK    5  A    between atoms: C_27  and  C_35
REMARK    6  A    between atoms: C_35  and  C_36
REMARK    7  A    between atoms: C_37  and  C_38
REMARK    8  A    between atoms: C_39  and  C_40
REMARK    9  A    between atoms: C_42  and  O_43
REMARK   10  A    between atoms: C_42  and  C_44
REMARK                            x       y       z     vdW  Elec       q    Type
REMARK                         _______ _______ _______ _____ _____    ______ ____
ROOT
ATOM      1  O   UNL     1      13.816  -3.733 -16.729  0.00  0.00    +0.000 OA
ATOM      2  O   UNL     1      12.810  -1.323 -22.195  0.00  0.00    +0.000 OA
ATOM      3  O   UNL     1      13.559   0.688 -20.802  0.00  0.00    +0.000 OA
ATOM      4  O   UNL     1      10.116  -0.722 -18.908  0.00  0.00    +0.000 OA
ATOM      5  O   UNL     1      15.154  -4.826 -15.232  0.00  0.00    +0.000 OA
ATOM      6  O   UNL     1      14.716  -0.029 -21.366  0.00  0.00    +0.000 OA
ATOM      7  O   UNL     1      12.032   2.484 -21.465  0.00  0.00    +0.000 OA
ATOM      8  O   UNL     1      10.907  -0.575 -16.551  0.00  0.00    +0.000 OA
ATOM      9  C   UNL     1      12.429  -2.994 -20.320  0.00  0.00    +0.000 C 
ATOM     10  C   UNL     1      14.819  -4.470 -18.690  0.00  0.00    +0.000 C 
ATOM     11  C   UNL     1      13.740  -3.724 -18.115  0.00  0.00    +0.000 C 
ATOM     12  C   UNL     1      13.249  -3.629 -21.392  0.00  0.00    +0.000 C 
ATOM     13  C   UNL     1      12.744  -3.124 -18.802  0.00  0.00    +0.000 C 
ATOM     14  C   UNL     1      14.811  -4.658 -19.968  0.00  0.00    +0.000 C 
ATOM     15  C   UNL     1      14.270  -4.496 -21.262  0.00  0.00    +0.000 C 
ATOM     16  C   UNL     1      11.083  -2.471 -20.360  0.00  0.00    +0.000 C 
ATOM     17  C   UNL     1      15.682  -4.992 -17.615  0.00  0.00    +0.000 C 
ATOM     18  C   UNL     1      10.755  -1.952 -19.091  0.00  0.00    +0.000 C 
ATOM     19  C   UNL     1      11.616  -2.432 -18.168  0.00  0.00    +0.000 C 
ATOM     20  C   UNL     1      13.346  -2.175 -21.164  0.00  0.00    +0.000 C 
ATOM     21  C   UNL     1      14.893  -4.520 -16.392  0.00  0.00    +0.000 C 
ATOM     22  C   UNL     1      11.507  -1.673 -16.996  0.00  0.00    +0.000 C 
ATOM     23  C   UNL     1      14.226  -1.257 -21.971  0.00  0.00    +0.000 C 
ATOM     24  C   UNL     1      13.188   1.736 -21.652  0.00  0.00    +0.000 C 
ATOM     25  C   UNL     1      10.514   0.065 -17.765  0.00  0.00    +0.000 C 
ATOM     26  C   UNL     1      15.047  -1.724 -23.180  0.00  0.00    +0.000 C 
ATOM     27  C   UNL     1      10.762   1.381 -17.929  0.00  0.00    +0.000 C 
ATOM     28  C   UNL     1      11.224   2.253 -16.783  0.00  0.00    +0.000 C 
ATOM     29  C   UNL     1      10.985   1.908 -19.234  0.00  0.00    +0.000 C 
ATOM     30  C   UNL     1      11.434   2.211 -20.307  0.00  0.00    +0.000 C 
ENDROOT
BRANCH  17  31
ATOM     31  O   UNL     1      15.789  -6.403 -17.695  0.00  0.00    +0.000 OA
ATOM     32  H   UNL     1      16.680  -6.579 -18.051  0.00  0.00    +0.000 HD
ENDBRANCH  17  31
BRANCH  17  33
ATOM     33  C   UNL     1      17.025  -4.387 -17.683  0.00  0.00    +0.000 C 
BRANCH  33  34
ATOM     34  O   UNL     1      18.240  -3.848 -17.767  0.00  0.00    +0.000 OA
ATOM     35  H   UNL     1      18.229  -3.042 -18.316  0.00  0.00    +0.000 HD
ENDBRANCH  33  34
ENDBRANCH  17  33
BRANCH  24  36
ATOM     36  C   UNL     1      13.806   1.949 -22.776  0.00  0.00    +0.000 C 
BRANCH  36  37
ATOM     37  C   UNL     1      14.566   2.232 -24.076  0.00  0.00    +0.000 C 
ATOM     38  C   UNL     1      15.179   2.480 -25.077  0.00  0.00    +0.000 C 
BRANCH  38  39
ATOM     39  C   UNL     1      15.977   2.816 -26.341  0.00  0.00    +0.000 C 
ATOM     40  C   UNL     1      16.609   3.067 -27.330  0.00  0.00    +0.000 C 
BRANCH  40  41
ATOM     41  C   UNL     1      17.419   3.378 -28.592  0.00  0.00    +0.000 C 
ATOM     42  C   UNL     1      18.122   3.647 -29.692  0.00  0.00    +0.000 C 
ENDBRANCH  40  41
ENDBRANCH  38  39
ENDBRANCH  36  37
ENDBRANCH  24  36
BRANCH  15  43
ATOM     43  O   UNL     1      14.579  -5.396 -22.288  0.00  0.00    +0.000 OA
BRANCH  43  45
ATOM     44  O   UNL     1      12.788  -6.405 -23.382  0.00  0.00    +0.000 OA
ATOM     45  C   UNL     1      13.627  -6.356 -22.494  0.00  0.00    +0.000 C 
BRANCH  45  46
ATOM     46  C   UNL     1      13.691  -7.385 -21.502  0.00  0.00    +0.000 C 
ATOM     47  C   UNL     1      13.743  -8.241 -20.667  0.00  0.00    +0.000 C 
ATOM     48  C   UNL     1      13.816  -9.346 -19.610  0.00  0.00    +0.000 C 
ENDBRANCH  45  46
ENDBRANCH  43  45
ENDBRANCH  15  43
TORSDOF 10
ENDMDL
MODEL 5
REMARK VINA RESULT:      -6.4     15.261     20.474
REMARK  Name = Thapsigargin.pdbqt.pdb
REMARK  10 active torsions:
REMARK  status: ('A' for Active; 'I' for Inactive)
REMARK    1  A    between atoms: O_2  and  C_24
REMARK    2  A    between atoms: C_17  and  O_43
REMARK    3  A    between atoms: C_19  and  C_24
REMARK    4  A    between atoms: C_19  and  O_47
REMARK    5  A    between atoms: C_27  and  C_35
REMARK    6  A    between atoms: C_35  and  C_36
REMARK    7  A    between atoms: C_37  and  C_38
REMARK    8  A    between atoms: C_39  and  C_40
REMARK    9  A    between atoms: C_42  and  O_43
REMARK   10  A    between atoms: C_42  and  C_44
REMARK                            x       y       z     vdW  Elec       q    Type
REMARK                         _______ _______ _______ _____ _____    ______ ____
ROOT
ATOM      1  O   UNL     1      -7.554  -4.190 -24.700  0.00  0.00    +0.000 OA
ATOM      2  O   UNL     1     -12.286  -1.627 -21.917  0.00  0.00    +0.000 OA
ATOM      3  O   UNL     1     -10.294  -0.300 -21.015  0.00  0.00    +0.000 OA
ATOM      4  O   UNL     1      -9.580  -4.250 -19.862  0.00  0.00    +0.000 OA
ATOM      5  O   UNL     1      -6.155  -4.401 -26.495  0.00  0.00    +0.000 OA
ATOM      6  O   UNL     1     -10.776   0.264 -22.287  0.00  0.00    +0.000 OA
ATOM      7  O   UNL     1     -10.762  -0.060 -18.623  0.00  0.00    +0.000 OA
ATOM      8  O   UNL     1      -7.156  -4.363 -20.425  0.00  0.00    +0.000 OA
ATOM      9  C   UNL     1     -11.032  -3.547 -23.009  0.00  0.00    +0.000 C 
ATOM     10  C   UNL     1      -9.391  -3.290 -25.801  0.00  0.00    +0.000 C 
ATOM     11  C   UNL     1      -8.876  -3.785 -24.560  0.00  0.00    +0.000 C 
ATOM     12  C   UNL     1     -12.042  -3.006 -23.964  0.00  0.00    +0.000 C 
ATOM     13  C   UNL     1      -9.570  -3.899 -23.407  0.00  0.00    +0.000 C 
ATOM     14  C   UNL     1     -10.649  -2.995 -25.858  0.00  0.00    +0.000 C 
ATOM     15  C   UNL     1     -11.937  -2.858 -25.298  0.00  0.00    +0.000 C 
ATOM     16  C   UNL     1     -11.209  -4.170 -21.717  0.00  0.00    +0.000 C 
ATOM     17  C   UNL     1      -8.338  -3.349 -26.830  0.00  0.00    +0.000 C 
ATOM     18  C   UNL     1      -9.943  -4.497 -21.190  0.00  0.00    +0.000 C 
ATOM     19  C   UNL     1      -9.022  -4.481 -22.177  0.00  0.00    +0.000 C 
ATOM     20  C   UNL     1     -11.427  -2.110 -22.968  0.00  0.00    +0.000 C 
ATOM     21  C   UNL     1      -7.222  -4.019 -26.024  0.00  0.00    +0.000 C 
ATOM     22  C   UNL     1      -7.740  -4.471 -21.613  0.00  0.00    +0.000 C 
ATOM     23  C   UNL     1     -11.768  -0.650 -22.830  0.00  0.00    +0.000 C 
ATOM     24  C   UNL     1     -10.898   0.362 -19.940  0.00  0.00    +0.000 C 
ATOM     25  C   UNL     1      -8.214  -3.851 -19.615  0.00  0.00    +0.000 C 
ATOM     26  C   UNL     1     -12.863   0.041 -23.655  0.00  0.00    +0.000 C 
ATOM     27  C   UNL     1      -7.975  -2.804 -18.798  0.00  0.00    +0.000 C 
ATOM     28  C   UNL     1      -6.571  -2.308 -18.532  0.00  0.00    +0.000 C 
ATOM     29  C   UNL     1      -9.021  -1.892 -18.481  0.00  0.00    +0.000 C 
ATOM     30  C   UNL     1      -9.863  -1.034 -18.493  0.00  0.00    +0.000 C 
ENDROOT
BRANCH  17  31
ATOM     31  O   UNL     1      -8.760  -4.122 -27.940  0.00  0.00    +0.000 OA
ATOM     32  H   UNL     1      -8.271  -4.964 -27.874  0.00  0.00    +0.000 HD
ENDBRANCH  17  31
BRANCH  17  33
ATOM     33  C   UNL     1      -7.969  -1.994 -27.278  0.00  0.00    +0.000 C 
BRANCH  33  34
ATOM     34  O   UNL     1      -7.643  -0.761 -27.661  0.00  0.00    +0.000 OA
ATOM     35  H   UNL     1      -6.698  -0.580 -27.496  0.00  0.00    +0.000 HD
ENDBRANCH  33  34
ENDBRANCH  17  33
BRANCH  24  36
ATOM     36  C   UNL     1     -11.775   1.302 -20.130  0.00  0.00    +0.000 C 
BRANCH  36  37
ATOM     37  C   UNL     1     -12.809   2.398 -20.402  0.00  0.00    +0.000 C 
ATOM     38  C   UNL     1     -13.636   3.249 -20.585  0.00  0.00    +0.000 C 
BRANCH  38  39
ATOM     39  C   UNL     1     -14.703   4.329 -20.792  0.00  0.00    +0.000 C 
ATOM     40  C   UNL     1     -15.530   5.182 -20.966  0.00  0.00    +0.000 C 
BRANCH  40  41
ATOM     41  C   UNL     1     -16.582   6.271 -21.194  0.00  0.00    +0.000 C 
ATOM     42  C   UNL     1     -17.498   7.217 -21.395  0.00  0.00    +0.000 C 
ENDBRANCH  40  41
ENDBRANCH  38  39
ENDBRANCH  36  37
ENDBRANCH  24  36
BRANCH  15  43
ATOM     43  O   UNL     1     -13.077  -2.861 -26.110  0.00  0.00    +0.000 OA
BRANCH  43  45
ATOM     44  O   UNL     1     -13.935  -4.994 -25.741  0.00  0.00    +0.000 OA
ATOM     45  C   UNL     1     -13.505  -4.109 -26.468  0.00  0.00    +0.000 C 
BRANCH  45  46
ATOM     46  C   UNL     1     -13.396  -4.321 -27.879  0.00  0.00    +0.000 C 
ATOM     47  C   UNL     1     -13.305  -4.505 -29.058  0.00  0.00    +0.000 C 
ATOM     48  C   UNL     1     -13.185  -4.724 -30.568  0.00  0.00    +0.000 C 
ENDBRANCH  45  46
ENDBRANCH  43  45
ENDBRANCH  15  43
TORSDOF 10
ENDMDL
MODEL 6
REMARK VINA RESULT:      -6.3      3.298      8.301
REMARK  Name = Thapsigargin.pdbqt.pdb
REMARK  10 active torsions:
REMARK  status: ('A' for Active; 'I' for Inactive)
REMARK    1  A    between atoms: O_2  and  C_24
REMARK    2  A    between atoms: C_17  and  O_43
REMARK    3  A    between atoms: C_19  and  C_24
REMARK    4  A    between atoms: C_19  and  O_47
REMARK    5  A    between atoms: C_27  and  C_35
REMARK    6  A    between atoms: C_35  and  C_36
REMARK    7  A    between atoms: C_37  and  C_38
REMARK    8  A    between atoms: C_39  and  C_40
REMARK    9  A    between atoms: C_42  and  O_43
REMARK   10  A    between atoms: C_42  and  C_44
REMARK                            x       y       z     vdW  Elec       q    Type
REMARK                         _______ _______ _______ _____ _____    ______ ____
ROOT
ATOM      1  O   UNL     1       5.270   1.288 -20.772  0.00  0.00    +0.000 OA
ATOM      2  O   UNL     1       2.592  -4.035 -19.677  0.00  0.00    +0.000 OA
ATOM      3  O   UNL     1       1.141  -3.025 -21.526  0.00  0.00    +0.000 OA
ATOM      4  O   UNL     1       0.899  -0.318 -18.357  0.00  0.00    +0.000 OA
ATOM      5  O   UNL     1       6.863   2.557 -21.809  0.00  0.00    +0.000 OA
ATOM      6  O   UNL     1       2.290  -3.755 -22.090  0.00  0.00    +0.000 OA
ATOM      7  O   UNL     1      -1.154  -3.508 -20.825  0.00  0.00    +0.000 OA
ATOM      8  O   UNL     1       1.150   1.792 -19.656  0.00  0.00    +0.000 OA
ATOM      9  C   UNL     1       3.944  -1.977 -19.054  0.00  0.00    +0.000 C 
ATOM     10  C   UNL     1       6.350  -0.766 -20.870  0.00  0.00    +0.000 C 
ATOM     11  C   UNL     1       5.210  -0.046 -20.388  0.00  0.00    +0.000 C 
ATOM     12  C   UNL     1       4.863  -3.137 -19.242  0.00  0.00    +0.000 C 
ATOM     13  C   UNL     1       4.220  -0.556 -19.623  0.00  0.00    +0.000 C 
ATOM     14  C   UNL     1       6.498  -1.991 -20.484  0.00  0.00    +0.000 C 
ATOM     15  C   UNL     1       6.095  -3.149 -19.784  0.00  0.00    +0.000 C 
ATOM     16  C   UNL     1       2.877  -1.776 -18.100  0.00  0.00    +0.000 C 
ATOM     17  C   UNL     1       7.215   0.142 -21.643  0.00  0.00    +0.000 C 
ATOM     18  C   UNL     1       2.283  -0.520 -18.335  0.00  0.00    +0.000 C 
ATOM     19  C   UNL     1       3.108   0.238 -19.090  0.00  0.00    +0.000 C 
ATOM     20  C   UNL     1       3.607  -3.068 -20.012  0.00  0.00    +0.000 C 
ATOM     21  C   UNL     1       6.457   1.457 -21.445  0.00  0.00    +0.000 C 
ATOM     22  C   UNL     1       2.395   1.332 -19.598  0.00  0.00    +0.000 C 
ATOM     23  C   UNL     1       3.164  -4.126 -20.989  0.00  0.00    +0.000 C 
ATOM     24  C   UNL     1       0.027  -3.869 -21.462  0.00  0.00    +0.000 C 
ATOM     25  C   UNL     1       0.386   0.637 -19.311  0.00  0.00    +0.000 C 
ATOM     26  C   UNL     1       3.932  -5.434 -21.220  0.00  0.00    +0.000 C 
ATOM     27  C   UNL     1      -0.685   0.303 -20.061  0.00  0.00    +0.000 C 
ATOM     28  C   UNL     1      -1.245   1.239 -21.108  0.00  0.00    +0.000 C 
ATOM     29  C   UNL     1      -1.074  -1.061 -20.182  0.00  0.00    +0.000 C 
ATOM     30  C   UNL     1      -1.160  -2.229 -20.455  0.00  0.00    +0.000 C 
ENDROOT
BRANCH  17  31
ATOM     31  O   UNL     1       8.525   0.171 -21.104  0.00  0.00    +0.000 OA
ATOM     32  H   UNL     1       8.899  -0.713 -21.276  0.00  0.00    +0.000 HD
ENDBRANCH  17  31
BRANCH  17  33
ATOM     33  C   UNL     1       7.269  -0.266 -23.059  0.00  0.00    +0.000 C 
BRANCH  33  34
ATOM     34  O   UNL     1       7.292  -0.637 -24.337  0.00  0.00    +0.000 OA
ATOM     35  H   UNL     1       7.641  -1.543 -24.434  0.00  0.00    +0.000 HD
ENDBRANCH  33  34
ENDBRANCH  17  33
BRANCH  24  36
ATOM     36  C   UNL     1       0.096  -5.112 -21.831  0.00  0.00    +0.000 C 
BRANCH  36  37
ATOM     37  C   UNL     1       0.223  -6.582 -22.246  0.00  0.00    +0.000 C 
ATOM     38  C   UNL     1       0.337  -7.741 -22.538  0.00  0.00    +0.000 C 
BRANCH  38  39
ATOM     39  C   UNL     1       0.492  -9.225 -22.885  0.00  0.00    +0.000 C 
ATOM     40  C   UNL     1       0.604 -10.391 -23.147  0.00  0.00    +0.000 C 
BRANCH  40  41
ATOM     41  C   UNL     1       0.739 -11.880 -23.476  0.00  0.00    +0.000 C 
ATOM     42  C   UNL     1       0.855 -13.176 -23.764  0.00  0.00    +0.000 C 
ENDBRANCH  40  41
ENDBRANCH  38  39
ENDBRANCH  36  37
ENDBRANCH  24  36
BRANCH  15  43
ATOM     43  O   UNL     1       7.025  -4.130 -19.423  0.00  0.00    +0.000 OA
BRANCH  43  45
ATOM     44  O   UNL     1       9.223  -3.864 -20.146  0.00  0.00    +0.000 OA
ATOM     45  C   UNL     1       8.073  -4.253 -20.293  0.00  0.00    +0.000 C 
BRANCH  45  46
ATOM     46  C   UNL     1       7.685  -4.924 -21.496  0.00  0.00    +0.000 C 
ATOM     47  C   UNL     1       7.355  -5.482 -22.503  0.00  0.00    +0.000 C 
ATOM     48  C   UNL     1       6.945  -6.207 -23.786  0.00  0.00    +0.000 C 
ENDBRANCH  45  46
ENDBRANCH  43  45
ENDBRANCH  15  43
TORSDOF 10
ENDMDL
MODEL 7
REMARK VINA RESULT:      -6.2      7.682     12.779
REMARK  Name = Thapsigargin.pdbqt.pdb
REMARK  10 active torsions:
REMARK  status: ('A' for Active; 'I' for Inactive)
REMARK    1  A    between atoms: O_2  and  C_24
REMARK    2  A    between atoms: C_17  and  O_43
REMARK    3  A    between atoms: C_19  and  C_24
REMARK    4  A    between atoms: C_19  and  O_47
REMARK    5  A    between atoms: C_27  and  C_35
REMARK    6  A    between atoms: C_35  and  C_36
REMARK    7  A    between atoms: C_37  and  C_38
REMARK    8  A    between atoms: C_39  and  C_40
REMARK    9  A    between atoms: C_42  and  O_43
REMARK   10  A    between atoms: C_42  and  C_44
REMARK                            x       y       z     vdW  Elec       q    Type
REMARK                         _______ _______ _______ _____ _____    ______ ____
ROOT
ATOM      1  O   UNL     1      -4.241  -2.709 -21.216  0.00  0.00    +0.000 OA
ATOM      2  O   UNL     1      -1.739   2.783 -20.686  0.00  0.00    +0.000 OA
ATOM      3  O   UNL     1      -0.019   1.492 -22.071  0.00  0.00    +0.000 OA
ATOM      4  O   UNL     1      -0.301  -0.601 -18.470  0.00  0.00    +0.000 OA
ATOM      5  O   UNL     1      -5.657  -4.179 -22.246  0.00  0.00    +0.000 OA
ATOM      6  O   UNL     1      -1.059   2.084 -22.931  0.00  0.00    +0.000 OA
ATOM      7  O   UNL     1       2.139   2.144 -21.115  0.00  0.00    +0.000 OA
ATOM      8  O   UNL     1      -0.355  -2.913 -19.392  0.00  0.00    +0.000 OA
ATOM      9  C   UNL     1      -3.186   0.839 -19.925  0.00  0.00    +0.000 C 
ATOM     10  C   UNL     1      -5.279  -0.730 -21.850  0.00  0.00    +0.000 C 
ATOM     11  C   UNL     1      -4.235  -1.328 -21.073  0.00  0.00    +0.000 C 
ATOM     12  C   UNL     1      -4.056   1.925 -20.460  0.00  0.00    +0.000 C 
ATOM     13  C   UNL     1      -3.377  -0.667 -20.266  0.00  0.00    +0.000 C 
ATOM     14  C   UNL     1      -5.479   0.540 -21.718  0.00  0.00    +0.000 C 
ATOM     15  C   UNL     1      -5.186   1.812 -21.183  0.00  0.00    +0.000 C 
ATOM     16  C   UNL     1      -2.285   0.835 -18.794  0.00  0.00    +0.000 C 
ATOM     17  C   UNL     1      -6.016  -1.781 -22.574  0.00  0.00    +0.000 C 
ATOM     18  C   UNL     1      -1.670  -0.430 -18.703  0.00  0.00    +0.000 C 
ATOM     19  C   UNL     1      -2.368  -1.328 -19.430  0.00  0.00    +0.000 C 
ATOM     20  C   UNL     1      -2.693   1.749 -20.997  0.00  0.00    +0.000 C 
ATOM     21  C   UNL     1      -5.308  -3.023 -22.027  0.00  0.00    +0.000 C 
ATOM     22  C   UNL     1      -1.590  -2.479 -19.614  0.00  0.00    +0.000 C 
ATOM     23  C   UNL     1      -2.095   2.625 -22.066  0.00  0.00    +0.000 C 
ATOM     24  C   UNL     1       1.076   2.359 -21.984  0.00  0.00    +0.000 C 
ATOM     25  C   UNL     1       0.351  -1.699 -19.144  0.00  0.00    +0.000 C 
ATOM     26  C   UNL     1      -2.808   3.854 -22.647  0.00  0.00    +0.000 C 
ATOM     27  C   UNL     1       1.530  -1.480 -19.763  0.00  0.00    +0.000 C 
ATOM     28  C   UNL     1       2.244  -2.574 -20.523  0.00  0.00    +0.000 C 
ATOM     29  C   UNL     1       1.942  -0.150 -20.063  0.00  0.00    +0.000 C 
ATOM     30  C   UNL     1       2.078   0.952 -20.525  0.00  0.00    +0.000 C 
ENDROOT
BRANCH  17  31
ATOM     31  O   UNL     1      -7.396  -1.743 -22.252  0.00  0.00    +0.000 OA
ATOM     32  H   UNL     1      -7.647  -0.801 -22.289  0.00  0.00    +0.000 HD
ENDBRANCH  17  31
BRANCH  17  33
ATOM     33  C   UNL     1      -5.841  -1.633 -24.031  0.00  0.00    +0.000 C 
BRANCH  33  34
ATOM     34  O   UNL     1      -5.659  -1.506 -25.344  0.00  0.00    +0.000 OA
ATOM     35  H   UNL     1      -6.497  -1.630 -25.828  0.00  0.00    +0.000 HD
ENDBRANCH  33  34
ENDBRANCH  17  33
BRANCH  24  36
ATOM     36  C   UNL     1       1.075   3.515 -22.577  0.00  0.00    +0.000 C 
BRANCH  36  37
ATOM     37  C   UNL     1       1.043   4.896 -23.240  0.00  0.00    +0.000 C 
ATOM     38  C   UNL     1       0.982   5.980 -23.752  0.00  0.00    +0.000 C 
BRANCH  38  39
ATOM     39  C   UNL     1       0.878   7.366 -24.397  0.00  0.00    +0.000 C 
ATOM     40  C   UNL     1       0.790   8.457 -24.890  0.00  0.00    +0.000 C 
BRANCH  40  41
ATOM     41  C   UNL     1       0.677   9.852 -25.512  0.00  0.00    +0.000 C 
ATOM     42  C   UNL     1       0.577  11.064 -26.055  0.00  0.00    +0.000 C 
ENDBRANCH  40  41
ENDBRANCH  38  39
ENDBRANCH  36  37
ENDBRANCH  24  36
BRANCH  15  43
ATOM     43  O   UNL     1      -6.155   2.821 -21.156  0.00  0.00    +0.000 OA
BRANCH  43  45
ATOM     44  O   UNL     1      -8.197   2.321 -22.159  0.00  0.00    +0.000 OA
ATOM     45  C   UNL     1      -7.055   2.759 -22.184  0.00  0.00    +0.000 C 
BRANCH  45  46
ATOM     46  C   UNL     1      -6.509   3.285 -23.397  0.00  0.00    +0.000 C 
ATOM     47  C   UNL     1      -6.057   3.727 -24.414  0.00  0.00    +0.000 C 
ATOM     48  C   UNL     1      -5.467   4.284 -25.712  0.00  0.00    +0.000 C 
ENDBRANCH  45  46
ENDBRANCH  43  45
ENDBRANCH  15  43
TORSDOF 10
ENDMDL
MODEL 8
REMARK VINA RESULT:      -6.2     12.956     18.417
REMARK  Name = Thapsigargin.pdbqt.pdb
REMARK  10 active torsions:
REMARK  status: ('A' for Active; 'I' for Inactive)
REMARK    1  A    between atoms: O_2  and  C_24
REMARK    2  A    between atoms: C_17  and  O_43
REMARK    3  A    between atoms: C_19  and  C_24
REMARK    4  A    between atoms: C_19  and  O_47
REMARK    5  A    between atoms: C_27  and  C_35
REMARK    6  A    between atoms: C_35  and  C_36
REMARK    7  A    between atoms: C_37  and  C_38
REMARK    8  A    between atoms: C_39  and  C_40
REMARK    9  A    between atoms: C_42  and  O_43
REMARK   10  A    between atoms: C_42  and  C_44
REMARK                            x       y       z     vdW  Elec       q    Type
REMARK                         _______ _______ _______ _____ _____    ______ ____
ROOT
ATOM      1  O   UNL     1     -12.304  -3.324 -23.281  0.00  0.00    +0.000 OA
ATOM      2  O   UNL     1      -8.683   1.206 -21.529  0.00  0.00    +0.000 OA
ATOM      3  O   UNL     1      -7.098  -0.799 -21.627  0.00  0.00    +0.000 OA
ATOM      4  O   UNL     1      -9.997  -1.843 -18.809  0.00  0.00    +0.000 OA
ATOM      5  O   UNL     1     -13.369  -4.529 -24.906  0.00  0.00    +0.000 OA
ATOM      6  O   UNL     1      -7.219  -0.151 -22.944  0.00  0.00    +0.000 OA
ATOM      7  O   UNL     1      -5.725  -0.582 -19.611  0.00  0.00    +0.000 OA
ATOM      8  O   UNL     1     -10.385  -4.194 -19.536  0.00  0.00    +0.000 OA
ATOM      9  C   UNL     1     -10.900  -0.021 -21.703  0.00  0.00    +0.000 C 
ATOM     10  C   UNL     1     -12.040  -1.332 -24.447  0.00  0.00    +0.000 C 
ATOM     11  C   UNL     1     -11.874  -2.006 -23.194  0.00  0.00    +0.000 C 
ATOM     12  C   UNL     1     -10.884   1.114 -22.669  0.00  0.00    +0.000 C 
ATOM     13  C   UNL     1     -11.411  -1.448 -22.055  0.00  0.00    +0.000 C 
ATOM     14  C   UNL     1     -11.802  -0.062 -24.487  0.00  0.00    +0.000 C 
ATOM     15  C   UNL     1     -11.402   1.163 -23.911  0.00  0.00    +0.000 C 
ATOM     16  C   UNL     1     -10.817  -0.020 -20.260  0.00  0.00    +0.000 C 
ATOM     17  C   UNL     1     -12.598  -2.269 -25.439  0.00  0.00    +0.000 C 
ATOM     18  C   UNL     1     -10.855  -1.351 -19.798  0.00  0.00    +0.000 C 
ATOM     19  C   UNL     1     -11.326  -2.157 -20.773  0.00  0.00    +0.000 C 
ATOM     20  C   UNL     1      -9.621   0.442 -22.312  0.00  0.00    +0.000 C 
ATOM     21  C   UNL     1     -12.800  -3.500 -24.552  0.00  0.00    +0.000 C 
ATOM     22  C   UNL     1     -11.052  -3.491 -20.444  0.00  0.00    +0.000 C 
ATOM     23  C   UNL     1      -8.275   0.844 -22.855  0.00  0.00    +0.000 C 
ATOM     24  C   UNL     1      -5.994  -0.282 -20.941  0.00  0.00    +0.000 C 
ATOM     25  C   UNL     1      -9.538  -3.205 -18.952  0.00  0.00    +0.000 C 
ATOM     26  C   UNL     1      -8.064   2.057 -23.771  0.00  0.00    +0.000 C 
ATOM     27  C   UNL     1      -8.227  -3.476 -18.777  0.00  0.00    +0.000 C 
ATOM     28  C   UNL     1      -7.673  -4.872 -18.955  0.00  0.00    +0.000 C 
ATOM     29  C   UNL     1      -7.269  -2.423 -18.815  0.00  0.00    +0.000 C 
ATOM     30  C   UNL     1      -6.520  -1.541 -19.138  0.00  0.00    +0.000 C 
ENDROOT
BRANCH  17  31
ATOM     31  O   UNL     1     -13.809  -1.770 -25.979  0.00  0.00    +0.000 OA
ATOM     32  H   UNL     1     -14.437  -2.516 -25.948  0.00  0.00    +0.000 HD
ENDBRANCH  17  31
BRANCH  17  33
ATOM     33  C   UNL     1     -11.633  -2.514 -26.526  0.00  0.00    +0.000 C 
BRANCH  33  34
ATOM     34  O   UNL     1     -10.764  -2.760 -27.505  0.00  0.00    +0.000 OA
ATOM     35  H   UNL     1     -10.154  -2.009 -27.630  0.00  0.00    +0.000 HD
ENDBRANCH  33  34
ENDBRANCH  17  33
BRANCH  24  36
ATOM     36  C   UNL     1      -5.259   0.660 -21.452  0.00  0.00    +0.000 C 
BRANCH  36  37
ATOM     37  C   UNL     1      -4.356   1.759 -22.021  0.00  0.00    +0.000 C 
ATOM     38  C   UNL     1      -3.621   2.609 -22.444  0.00  0.00    +0.000 C 
BRANCH  38  39
ATOM     39  C   UNL     1      -2.663   3.682 -22.970  0.00  0.00    +0.000 C 
ATOM     40  C   UNL     1      -1.919   4.534 -23.375  0.00  0.00    +0.000 C 
BRANCH  40  41
ATOM     41  C   UNL     1      -0.973   5.625 -23.884  0.00  0.00    +0.000 C 
ATOM     42  C   UNL     1      -0.149   6.572 -24.329  0.00  0.00    +0.000 C 
ENDBRANCH  40  41
ENDBRANCH  38  39
ENDBRANCH  36  37
ENDBRANCH  24  36
BRANCH  15  43
ATOM     43  O   UNL     1     -11.791   2.383 -24.476  0.00  0.00    +0.000 OA
BRANCH  43  45
ATOM     44  O   UNL     1     -13.818   2.561 -25.611  0.00  0.00    +0.000 OA
ATOM     45  C   UNL     1     -13.145   2.540 -24.589  0.00  0.00    +0.000 C 
BRANCH  45  46
ATOM     46  C   UNL     1     -13.767   2.698 -23.310  0.00  0.00    +0.000 C 
ATOM     47  C   UNL     1     -14.291   2.835 -22.243  0.00  0.00    +0.000 C 
ATOM     48  C   UNL     1     -14.950   3.001 -20.872  0.00  0.00    +0.000 C 
ENDBRANCH  45  46
ENDBRANCH  43  45
ENDBRANCH  15  43
TORSDOF 10
ENDMDL
MODEL 9
REMARK VINA RESULT:      -6.2      6.946     12.292
REMARK  Name = Thapsigargin.pdbqt.pdb
REMARK  10 active torsions:
REMARK  status: ('A' for Active; 'I' for Inactive)
REMARK    1  A    between atoms: O_2  and  C_24
REMARK    2  A    between atoms: C_17  and  O_43
REMARK    3  A    between atoms: C_19  and  C_24
REMARK    4  A    between atoms: C_19  and  O_47
REMARK    5  A    between atoms: C_27  and  C_35
REMARK    6  A    between atoms: C_35  and  C_36
REMARK    7  A    between atoms: C_37  and  C_38
REMARK    8  A    between atoms: C_39  and  C_40
REMARK    9  A    between atoms: C_42  and  O_43
REMARK   10  A    between atoms: C_42  and  C_44
REMARK                            x       y       z     vdW  Elec       q    Type
REMARK                         _______ _______ _______ _____ _____    ______ ____
ROOT
ATOM      1  O   UNL     1       2.042  -0.219 -19.607  0.00  0.00    +0.000 OA
ATOM      2  O   UNL     1      -3.772   0.482 -21.157  0.00  0.00    +0.000 OA
ATOM      3  O   UNL     1      -2.521   1.110 -23.297  0.00  0.00    +0.000 OA
ATOM      4  O   UNL     1      -1.189   3.831 -20.424  0.00  0.00    +0.000 OA
ATOM      5  O   UNL     1       3.900  -1.519 -19.317  0.00  0.00    +0.000 OA
ATOM      6  O   UNL     1      -2.749  -0.343 -23.221  0.00  0.00    +0.000 OA
ATOM      7  O   UNL     1      -3.694   3.095 -24.122  0.00  0.00    +0.000 OA
ATOM      8  O   UNL     1       1.241   3.778 -20.967  0.00  0.00    +0.000 OA
ATOM      9  C   UNL     1      -1.817   0.466 -19.535  0.00  0.00    +0.000 C 
ATOM     10  C   UNL     1       0.428  -1.879 -19.420  0.00  0.00    +0.000 C 
ATOM     11  C   UNL     1       0.678  -0.475 -19.559  0.00  0.00    +0.000 C 
ATOM     12  C   UNL     1      -2.617  -0.780 -19.361  0.00  0.00    +0.000 C 
ATOM     13  C   UNL     1      -0.263   0.494 -19.594  0.00  0.00    +0.000 C 
ATOM     14  C   UNL     1      -0.793  -2.259 -19.234  0.00  0.00    +0.000 C 
ATOM     15  C   UNL     1      -2.178  -2.026 -19.098  0.00  0.00    +0.000 C 
ATOM     16  C   UNL     1      -2.189   1.849 -19.341  0.00  0.00    +0.000 C 
ATOM     17  C   UNL     1       1.710  -2.606 -19.395  0.00  0.00    +0.000 C 
ATOM     18  C   UNL     1      -1.086   2.668 -19.654  0.00  0.00    +0.000 C 
ATOM     19  C   UNL     1       0.042   1.927 -19.663  0.00  0.00    +0.000 C 
ATOM     20  C   UNL     1      -2.557  -0.130 -20.683  0.00  0.00    +0.000 C 
ATOM     21  C   UNL     1       2.682  -1.425 -19.443  0.00  0.00    +0.000 C 
ATOM     22  C   UNL     1       1.066   2.649 -20.290  0.00  0.00    +0.000 C 
ATOM     23  C   UNL     1      -3.282  -0.641 -21.901  0.00  0.00    +0.000 C 
ATOM     24  C   UNL     1      -3.552   1.717 -24.023  0.00  0.00    +0.000 C 
ATOM     25  C   UNL     1      -0.096   4.128 -21.321  0.00  0.00    +0.000 C 
ATOM     26  C   UNL     1      -4.235  -1.843 -21.873  0.00  0.00    +0.000 C 
ATOM     27  C   UNL     1      -0.372   4.493 -22.590  0.00  0.00    +0.000 C 
ATOM     28  C   UNL     1       0.725   4.775 -23.592  0.00  0.00    +0.000 C 
ATOM     29  C   UNL     1      -1.661   4.242 -23.142  0.00  0.00    +0.000 C 
ATOM     30  C   UNL     1      -2.653   3.750 -23.609  0.00  0.00    +0.000 C 
ENDROOT
BRANCH  17  31
ATOM     31  O   UNL     1       1.829  -3.375 -18.211  0.00  0.00    +0.000 OA
ATOM     32  H   UNL     1       0.987  -3.255 -17.734  0.00  0.00    +0.000 HD
ENDBRANCH  17  31
BRANCH  17  33
ATOM     33  C   UNL     1       1.835  -3.484 -20.573  0.00  0.00    +0.000 C 
BRANCH  33  34
ATOM     34  O   UNL     1       1.970  -4.285 -21.628  0.00  0.00    +0.000 OA
ATOM     35  H   UNL     1       1.162  -4.811 -21.776  0.00  0.00    +0.000 HD
ENDBRANCH  33  34
ENDBRANCH  17  33
BRANCH  24  36
ATOM     36  C   UNL     1      -4.547   1.026 -24.493  0.00  0.00    +0.000 C 
BRANCH  36  37
ATOM     37  C   UNL     1      -5.695   0.170 -25.039  0.00  0.00    +0.000 C 
ATOM     38  C   UNL     1      -6.615  -0.471 -25.467  0.00  0.00    +0.000 C 
BRANCH  38  39
ATOM     39  C   UNL     1      -7.804  -1.267 -26.015  0.00  0.00    +0.000 C 
ATOM     40  C   UNL     1      -8.730  -1.889 -26.458  0.00  0.00    +0.000 C 
BRANCH  40  41
ATOM     41  C   UNL     1      -9.908  -2.683 -27.030  0.00  0.00    +0.000 C 
ATOM     42  C   UNL     1     -10.934  -3.372 -27.529  0.00  0.00    +0.000 C 
ENDBRANCH  40  41
ENDBRANCH  38  39
ENDBRANCH  36  37
ENDBRANCH  24  36
BRANCH  15  43
ATOM     43  O   UNL     1      -3.002  -2.950 -18.445  0.00  0.00    +0.000 OA
BRANCH  43  45
ATOM     44  O   UNL     1      -4.262  -1.547 -17.079  0.00  0.00    +0.000 OA
ATOM     45  C   UNL     1      -4.152  -2.413 -17.936  0.00  0.00    +0.000 C 
BRANCH  45  46
ATOM     46  C   UNL     1      -5.316  -2.997 -18.528  0.00  0.00    +0.000 C 
ATOM     47  C   UNL     1      -6.286  -3.489 -19.028  0.00  0.00    +0.000 C 
ATOM     48  C   UNL     1      -7.535  -4.107 -19.661  0.00  0.00    +0.000 C 
ENDBRANCH  45  46
ENDBRANCH  43  45
ENDBRANCH  15  43
TORSDOF 10
ENDMDL
