MODEL 1
REMARK VINA RESULT:      -5.7      0.000      0.000
REMARK  Name = Thioguanosine.pdbqt.pdb
REMARK  5 active torsions:
REMARK  status: ('A' for Active; 'I' for Inactive)
REMARK    1  A    between atoms: N_2  and  C1*_12
REMARK    2  A    between atoms: C4*_14  and  C5*_17
REMARK    3  A    between atoms: C3*_15  and  O3*_20
REMARK    4  A    between atoms: C2*_16  and  O2*_22
REMARK    5  A    between atoms: C5*_17  and  O5*_18
REMARK                            x       y       z     vdW  Elec       q    Type
REMARK                         _______ _______ _______ _____ _____    ______ ____
ROOT
ATOM      1  S   UNL     1      18.267  -1.660  -8.268  0.00  0.00    +0.000 S 
ATOM      2  N   UNL     1      13.890  -3.832  -7.917  0.00  0.00    +0.000 N 
ATOM      3  N   UNL     1      14.402  -2.232  -6.118  0.00  0.00    +0.000 N 
ATOM      4  N   UNL     1      15.822  -3.547  -9.063  0.00  0.00    +0.000 NA
ATOM      5  N   UNL     1      16.533  -1.182  -6.217  0.00  0.00    +0.000 NA
ATOM      6  C   UNL     1      14.657  -2.910  -7.252  0.00  0.00    +0.000 A 
ATOM      7  C   UNL     1      14.656  -4.162  -9.024  0.00  0.00    +0.000 A 
ATOM      8  C   UNL     1      15.834  -2.757  -7.940  0.00  0.00    +0.000 A 
ATOM      9  C   UNL     1      16.845  -1.841  -7.408  0.00  0.00    +0.000 A 
ATOM     10  C   UNL     1      15.378  -1.393  -5.655  0.00  0.00    +0.000 A 
ATOM     11  H   UNL     1      13.551  -2.364  -5.576  0.00  0.00    +0.000 HD
ATOM     12  N   UNL     1      15.049  -0.762  -4.502  0.00  0.00    +0.000 N 
ATOM     13  H   UNL     1      14.125  -0.350  -4.501  0.00  0.00    +0.000 HD
ATOM     14  H   UNL     1      15.752  -0.065  -4.266  0.00  0.00    +0.000 HD
ENDROOT
BRANCH   2  15
ATOM     15  C1* UNL     1      12.655  -4.369  -7.611  0.00  0.00    +0.000 A 
ATOM     16  O4* UNL     1      11.705  -3.667  -6.832  0.00  0.00    +0.000 OA
ATOM     17  C4* UNL     1      10.557  -4.460  -6.673  0.00  0.00    +0.000 A 
ATOM     18  C3* UNL     1      10.767  -5.696  -7.371  0.00  0.00    +0.000 A 
ATOM     19  C2* UNL     1      12.067  -5.638  -7.965  0.00  0.00    +0.000 A 
BRANCH  18  20
ATOM     20  O3* UNL     1      10.248  -6.894  -6.961  0.00  0.00    +0.000 OA
ATOM     21  H3* UNL     1       9.416  -6.773  -6.466  0.00  0.00    +0.000 HD
ENDBRANCH  18  20
BRANCH  19  22
ATOM     22  O2* UNL     1      12.804  -6.777  -8.147  0.00  0.00    +0.000 OA
ATOM     23  H2* UNL     1      12.201  -7.544  -8.218  0.00  0.00    +0.000 HD
ENDBRANCH  19  22
BRANCH  17  24
ATOM     24  C5* UNL     1       9.540  -4.153  -5.751  0.00  0.00    +0.000 C 
BRANCH  24  25
ATOM     25  O5* UNL     1       8.577  -3.842  -4.890  0.00  0.00    +0.000 OA
ATOM     26  H5* UNL     1       8.124  -4.645  -4.577  0.00  0.00    +0.000 HD
ENDBRANCH  24  25
ENDBRANCH  17  24
ENDBRANCH   2  15
TORSDOF 5
ENDMDL
MODEL 2
REMARK VINA RESULT:      -5.2     17.759     18.955
REMARK  Name = Thioguanosine.pdbqt.pdb
REMARK  5 active torsions:
REMARK  status: ('A' for Active; 'I' for Inactive)
REMARK    1  A    between atoms: N_2  and  C1*_12
REMARK    2  A    between atoms: C4*_14  and  C5*_17
REMARK    3  A    between atoms: C3*_15  and  O3*_20
REMARK    4  A    between atoms: C2*_16  and  O2*_22
REMARK    5  A    between atoms: C5*_17  and  O5*_18
REMARK                            x       y       z     vdW  Elec       q    Type
REMARK                         _______ _______ _______ _____ _____    ______ ____
ROOT
ATOM      1  S   UNL     1       4.760   0.531 -20.580  0.00  0.00    +0.000 S 
ATOM      2  N   UNL     1      -0.011   0.930 -19.544  0.00  0.00    +0.000 N 
ATOM      3  N   UNL     1       1.077  -1.091 -18.657  0.00  0.00    +0.000 N 
ATOM      4  N   UNL     1       1.840   1.812 -20.504  0.00  0.00    +0.000 NA
ATOM      5  N   UNL     1       3.385  -1.356 -19.168  0.00  0.00    +0.000 NA
ATOM      6  C   UNL     1       1.041   0.079 -19.320  0.00  0.00    +0.000 A 
ATOM      7  C   UNL     1       0.556   1.976 -20.256  0.00  0.00    +0.000 A 
ATOM      8  C   UNL     1       2.154   0.609 -19.921  0.00  0.00    +0.000 A 
ATOM      9  C   UNL     1       3.412  -0.137 -19.851  0.00  0.00    +0.000 A 
ATOM     10  C   UNL     1       2.273  -1.756 -18.623  0.00  0.00    +0.000 A 
ATOM     11  H   UNL     1       0.252  -1.515 -18.240  0.00  0.00    +0.000 HD
ATOM     12  N   UNL     1       2.221  -2.931 -17.951  0.00  0.00    +0.000 N 
ATOM     13  H   UNL     1       1.760  -2.877 -17.052  0.00  0.00    +0.000 HD
ATOM     14  H   UNL     1       3.154  -3.325 -17.852  0.00  0.00    +0.000 HD
ENDROOT
BRANCH   2  15
ATOM     15  C1* UNL     1      -1.345   0.830 -19.198  0.00  0.00    +0.000 A 
ATOM     16  O4* UNL     1      -1.800  -0.103 -18.236  0.00  0.00    +0.000 OA
ATOM     17  C4* UNL     1      -3.193   0.013 -18.100  0.00  0.00    +0.000 A 
ATOM     18  C3* UNL     1      -3.645   1.046 -18.988  0.00  0.00    +0.000 A 
ATOM     19  C2* UNL     1      -2.496   1.564 -19.664  0.00  0.00    +0.000 A 
BRANCH  18  20
ATOM     20  O3* UNL     1      -4.864   1.028 -19.611  0.00  0.00    +0.000 OA
ATOM     21  H3* UNL     1      -5.511   0.493 -19.116  0.00  0.00    +0.000 HD
ENDBRANCH  18  20
BRANCH  19  22
ATOM     22  O2* UNL     1      -2.598   2.063 -20.934  0.00  0.00    +0.000 OA
ATOM     23  H2* UNL     1      -1.796   1.824 -21.441  0.00  0.00    +0.000 HD
ENDBRANCH  19  22
BRANCH  17  24
ATOM     24  C5* UNL     1      -3.974  -0.935 -17.413  0.00  0.00    +0.000 C 
BRANCH  24  25
ATOM     25  O5* UNL     1      -4.694  -1.831 -16.747  0.00  0.00    +0.000 OA
ATOM     26  H5* UNL     1      -5.385  -1.392 -16.220  0.00  0.00    +0.000 HD
ENDBRANCH  24  25
ENDBRANCH  17  24
ENDBRANCH   2  15
TORSDOF 5
ENDMDL
MODEL 3
REMARK VINA RESULT:      -5.0      3.106      3.948
REMARK  Name = Thioguanosine.pdbqt.pdb
REMARK  5 active torsions:
REMARK  status: ('A' for Active; 'I' for Inactive)
REMARK    1  A    between atoms: N_2  and  C1*_12
REMARK    2  A    between atoms: C4*_14  and  C5*_17
REMARK    3  A    between atoms: C3*_15  and  O3*_20
REMARK    4  A    between atoms: C2*_16  and  O2*_22
REMARK    5  A    between atoms: C5*_17  and  O5*_18
REMARK                            x       y       z     vdW  Elec       q    Type
REMARK                         _______ _______ _______ _____ _____    ______ ____
ROOT
ATOM      1  S   UNL     1      14.354  -4.871 -10.663  0.00  0.00    +0.000 S 
ATOM      2  N   UNL     1      12.100  -6.536  -6.646  0.00  0.00    +0.000 N 
ATOM      3  N   UNL     1      12.834  -4.189  -6.526  0.00  0.00    +0.000 N 
ATOM      4  N   UNL     1      12.822  -6.917  -8.757  0.00  0.00    +0.000 NA
ATOM      5  N   UNL     1      13.973  -3.344  -8.435  0.00  0.00    +0.000 NA
ATOM      6  C   UNL     1      12.677  -5.386  -7.121  0.00  0.00    +0.000 A 
ATOM      7  C   UNL     1      12.206  -7.422  -7.706  0.00  0.00    +0.000 A 
ATOM      8  C   UNL     1      13.130  -5.630  -8.393  0.00  0.00    +0.000 A 
ATOM      9  C   UNL     1      13.820  -4.556  -9.111  0.00  0.00    +0.000 A 
ATOM     10  C   UNL     1      13.491  -3.219  -7.232  0.00  0.00    +0.000 A 
ATOM     11  H   UNL     1      12.538  -4.005  -5.571  0.00  0.00    +0.000 HD
ATOM     12  N   UNL     1      13.621  -2.051  -6.558  0.00  0.00    +0.000 N 
ATOM     13  H   UNL     1      12.770  -1.727  -6.117  0.00  0.00    +0.000 HD
ATOM     14  H   UNL     1      14.006  -1.331  -7.164  0.00  0.00    +0.000 HD
ENDROOT
BRANCH   2  15
ATOM     15  C1* UNL     1      11.546  -6.827  -5.414  0.00  0.00    +0.000 A 
ATOM     16  O4* UNL     1      10.919  -5.835  -4.623  0.00  0.00    +0.000 OA
ATOM     17  C4* UNL     1      10.465  -6.414  -3.426  0.00  0.00    +0.000 A 
ATOM     18  C3* UNL     1      10.800  -7.809  -3.450  0.00  0.00    +0.000 A 
ATOM     19  C2* UNL     1      11.463  -8.071  -4.690  0.00  0.00    +0.000 A 
BRANCH  18  20
ATOM     20  O3* UNL     1      11.120  -8.529  -2.330  0.00  0.00    +0.000 OA
ATOM     21  H3* UNL     1      10.686  -8.167  -1.535  0.00  0.00    +0.000 HD
ENDBRANCH  18  20
BRANCH  19  22
ATOM     22  O2* UNL     1      12.412  -9.052  -4.782  0.00  0.00    +0.000 OA
ATOM     23  H2* UNL     1      12.246  -9.729  -4.094  0.00  0.00    +0.000 HD
ENDBRANCH  19  22
BRANCH  17  24
ATOM     24  C5* UNL     1      10.025  -5.651  -2.329  0.00  0.00    +0.000 C 
BRANCH  24  25
ATOM     25  O5* UNL     1       9.594  -4.921  -1.306  0.00  0.00    +0.000 OA
ATOM     26  H5* UNL     1       9.764  -5.377  -0.463  0.00  0.00    +0.000 HD
ENDBRANCH  24  25
ENDBRANCH  17  24
ENDBRANCH   2  15
TORSDOF 5
ENDMDL
MODEL 4
REMARK VINA RESULT:      -4.8     24.148     26.878
REMARK  Name = Thioguanosine.pdbqt.pdb
REMARK  5 active torsions:
REMARK  status: ('A' for Active; 'I' for Inactive)
REMARK    1  A    between atoms: N_2  and  C1*_12
REMARK    2  A    between atoms: C4*_14  and  C5*_17
REMARK    3  A    between atoms: C3*_15  and  O3*_20
REMARK    4  A    between atoms: C2*_16  and  O2*_22
REMARK    5  A    between atoms: C5*_17  and  O5*_18
REMARK                            x       y       z     vdW  Elec       q    Type
REMARK                         _______ _______ _______ _____ _____    ______ ____
ROOT
ATOM      1  S   UNL     1      -9.818  -4.120  -0.903  0.00  0.00    +0.000 S 
ATOM      2  N   UNL     1     -12.305   0.072  -0.419  0.00  0.00    +0.000 N 
ATOM      3  N   UNL     1      -9.856   0.316  -0.441  0.00  0.00    +0.000 N 
ATOM      4  N   UNL     1     -12.337  -2.175  -0.691  0.00  0.00    +0.000 NA
ATOM      5  N   UNL     1      -8.599  -1.695  -0.629  0.00  0.00    +0.000 NA
ATOM      6  C   UNL     1     -11.010  -0.373  -0.498  0.00  0.00    +0.000 A 
ATOM      7  C   UNL     1     -13.061  -1.081  -0.566  0.00  0.00    +0.000 A 
ATOM      8  C   UNL     1     -11.036  -1.737  -0.641  0.00  0.00    +0.000 A 
ATOM      9  C   UNL     1      -9.765  -2.460  -0.716  0.00  0.00    +0.000 A 
ATOM     10  C   UNL     1      -8.693  -0.402  -0.507  0.00  0.00    +0.000 A 
ATOM     11  H   UNL     1      -9.821   1.322  -0.296  0.00  0.00    +0.000 HD
ATOM     12  N   UNL     1      -7.578   0.363  -0.427  0.00  0.00    +0.000 N 
ATOM     13  H   UNL     1      -7.587   1.178  -1.026  0.00  0.00    +0.000 HD
ATOM     14  H   UNL     1      -6.748  -0.199  -0.600  0.00  0.00    +0.000 HD
ENDROOT
BRANCH   2  15
ATOM     15  C1* UNL     1     -12.814   1.341  -0.222  0.00  0.00    +0.000 A 
ATOM     16  O4* UNL     1     -13.799   1.893  -1.076  0.00  0.00    +0.000 OA
ATOM     17  C4* UNL     1     -14.112   3.193  -0.643  0.00  0.00    +0.000 A 
ATOM     18  C3* UNL     1     -13.319   3.481   0.518  0.00  0.00    +0.000 A 
ATOM     19  C2* UNL     1     -12.519   2.327   0.788  0.00  0.00    +0.000 A 
BRANCH  18  20
ATOM     20  O3* UNL     1     -12.855   4.731   0.825  0.00  0.00    +0.000 OA
ATOM     21  H3* UNL     1     -11.954   4.698   1.197  0.00  0.00    +0.000 HD
ENDBRANCH  18  20
BRANCH  19  22
ATOM     22  O2* UNL     1     -11.287   2.451   1.372  0.00  0.00    +0.000 OA
ATOM     23  H2* UNL     1     -11.173   3.368   1.695  0.00  0.00    +0.000 HD
ENDBRANCH  19  22
BRANCH  17  24
ATOM     24  C5* UNL     1     -14.865   4.094  -1.418  0.00  0.00    +0.000 C 
BRANCH  24  25
ATOM     25  O5* UNL     1     -15.556   4.957  -2.155  0.00  0.00    +0.000 OA
ATOM     26  H5* UNL     1     -16.435   4.597  -2.370  0.00  0.00    +0.000 HD
ENDBRANCH  24  25
ENDBRANCH  17  24
ENDBRANCH   2  15
TORSDOF 5
ENDMDL
MODEL 5
REMARK VINA RESULT:      -4.6     17.844     18.944
REMARK  Name = Thioguanosine.pdbqt.pdb
REMARK  5 active torsions:
REMARK  status: ('A' for Active; 'I' for Inactive)
REMARK    1  A    between atoms: N_2  and  C1*_12
REMARK    2  A    between atoms: C4*_14  and  C5*_17
REMARK    3  A    between atoms: C3*_15  and  O3*_20
REMARK    4  A    between atoms: C2*_16  and  O2*_22
REMARK    5  A    between atoms: C5*_17  and  O5*_18
REMARK                            x       y       z     vdW  Elec       q    Type
REMARK                         _______ _______ _______ _____ _____    ______ ____
ROOT
ATOM      1  S   UNL     1       5.075   1.401 -18.897  0.00  0.00    +0.000 S 
ATOM      2  N   UNL     1       0.220   1.122 -19.485  0.00  0.00    +0.000 N 
ATOM      3  N   UNL     1       1.279  -0.921 -18.609  0.00  0.00    +0.000 N 
ATOM      4  N   UNL     1       2.117   2.352 -19.613  0.00  0.00    +0.000 NA
ATOM      5  N   UNL     1       3.641  -0.853 -18.346  0.00  0.00    +0.000 NA
ATOM      6  C   UNL     1       1.269   0.349 -19.054  0.00  0.00    +0.000 A 
ATOM      7  C   UNL     1       0.811   2.338 -19.791  0.00  0.00    +0.000 A 
ATOM      8  C   UNL     1       2.417   1.093 -19.154  0.00  0.00    +0.000 A 
ATOM      9  C   UNL     1       3.690   0.474 -18.780  0.00  0.00    +0.000 A 
ATOM     10  C   UNL     1       2.492  -1.460 -18.278  0.00  0.00    +0.000 A 
ATOM     11  H   UNL     1       0.442  -1.497 -18.566  0.00  0.00    +0.000 HD
ATOM     12  N   UNL     1       2.417  -2.744 -17.855  0.00  0.00    +0.000 N 
ATOM     13  H   UNL     1       1.695  -2.916 -17.167  0.00  0.00    +0.000 HD
ATOM     14  H   UNL     1       3.321  -3.058 -17.509  0.00  0.00    +0.000 HD
ENDROOT
BRANCH   2  15
ATOM     15  C1* UNL     1      -1.121   0.826 -19.630  0.00  0.00    +0.000 A 
ATOM     16  O4* UNL     1      -1.995   1.658 -20.369  0.00  0.00    +0.000 OA
ATOM     17  C4* UNL     1      -3.292   1.119 -20.331  0.00  0.00    +0.000 A 
ATOM     18  C3* UNL     1      -3.251  -0.090 -19.558  0.00  0.00    +0.000 A 
ATOM     19  C2* UNL     1      -1.900  -0.280 -19.129  0.00  0.00    +0.000 A 
BRANCH  18  20
ATOM     20  O3* UNL     1      -4.290  -0.525 -18.781  0.00  0.00    +0.000 OA
ATOM     21  H3* UNL     1      -4.398  -1.493 -18.835  0.00  0.00    +0.000 HD
ENDBRANCH  18  20
BRANCH  19  22
ATOM     22  O2* UNL     1      -1.624  -0.913 -17.949  0.00  0.00    +0.000 OA
ATOM     23  H2* UNL     1      -0.746  -1.341 -18.009  0.00  0.00    +0.000 HD
ENDBRANCH  19  22
BRANCH  17  24
ATOM     24  C5* UNL     1      -4.427   1.833 -20.755  0.00  0.00    +0.000 C 
BRANCH  24  25
ATOM     25  O5* UNL     1      -5.488   2.528 -21.154  0.00  0.00    +0.000 OA
ATOM     26  H5* UNL     1      -5.850   2.158 -21.978  0.00  0.00    +0.000 HD
ENDBRANCH  24  25
ENDBRANCH  17  24
ENDBRANCH   2  15
TORSDOF 5
ENDMDL
MODEL 6
REMARK VINA RESULT:      -4.6     11.022     13.094
REMARK  Name = Thioguanosine.pdbqt.pdb
REMARK  5 active torsions:
REMARK  status: ('A' for Active; 'I' for Inactive)
REMARK    1  A    between atoms: N_2  and  C1*_12
REMARK    2  A    between atoms: C4*_14  and  C5*_17
REMARK    3  A    between atoms: C3*_15  and  O3*_20
REMARK    4  A    between atoms: C2*_16  and  O2*_22
REMARK    5  A    between atoms: C5*_17  and  O5*_18
REMARK                            x       y       z     vdW  Elec       q    Type
REMARK                         _______ _______ _______ _____ _____    ______ ____
ROOT
ATOM      1  S   UNL     1      13.067  13.681  -5.204  0.00  0.00    +0.000 S 
ATOM      2  N   UNL     1      14.341   9.045  -6.145  0.00  0.00    +0.000 N 
ATOM      3  N   UNL     1      11.927   9.507  -6.283  0.00  0.00    +0.000 N 
ATOM      4  N   UNL     1      14.971  11.158  -5.632  0.00  0.00    +0.000 NA
ATOM      5  N   UNL     1      11.250  11.733  -5.792  0.00  0.00    +0.000 NA
ATOM      6  C   UNL     1      13.217   9.831  -6.085  0.00  0.00    +0.000 A 
ATOM      7  C   UNL     1      15.376   9.928  -5.878  0.00  0.00    +0.000 A 
ATOM      8  C   UNL     1      13.604  11.104  -5.754  0.00  0.00    +0.000 A 
ATOM      9  C   UNL     1      12.574  12.132  -5.596  0.00  0.00    +0.000 A 
ATOM     10  C   UNL     1      10.998  10.498  -6.117  0.00  0.00    +0.000 A 
ATOM     11  H   UNL     1      11.621   8.559  -6.490  0.00  0.00    +0.000 HD
ATOM     12  N   UNL     1       9.724  10.086  -6.319  0.00  0.00    +0.000 N 
ATOM     13  H   UNL     1       9.590   9.541  -7.160  0.00  0.00    +0.000 HD
ATOM     14  H   UNL     1       9.087  10.880  -6.302  0.00  0.00    +0.000 HD
ENDROOT
BRANCH   2  15
ATOM     15  C1* UNL     1      14.486   7.693  -6.385  0.00  0.00    +0.000 A 
ATOM     16  O4* UNL     1      15.676   7.153  -6.929  0.00  0.00    +0.000 OA
ATOM     17  C4* UNL     1      15.531   5.764  -7.075  0.00  0.00    +0.000 A 
ATOM     18  C3* UNL     1      14.224   5.399  -6.609  0.00  0.00    +0.000 A 
ATOM     19  C2* UNL     1      13.576   6.595  -6.169  0.00  0.00    +0.000 A 
BRANCH  18  20
ATOM     20  O3* UNL     1      13.492   4.371  -7.139  0.00  0.00    +0.000 OA
ATOM     21  H3* UNL     1      12.539   4.484  -6.968  0.00  0.00    +0.000 HD
ENDBRANCH  18  20
BRANCH  19  22
ATOM     22  O2* UNL     1      12.217   6.726  -6.254  0.00  0.00    +0.000 OA
ATOM     23  H2* UNL     1      11.791   6.075  -5.660  0.00  0.00    +0.000 HD
ENDBRANCH  19  22
BRANCH  17  24
ATOM     24  C5* UNL     1      16.434   4.977  -7.814  0.00  0.00    +0.000 C 
BRANCH  24  25
ATOM     25  O5* UNL     1      17.297   4.253  -8.518  0.00  0.00    +0.000 OA
ATOM     26  H5* UNL     1      17.848   3.707  -7.929  0.00  0.00    +0.000 HD
ENDBRANCH  24  25
ENDBRANCH  17  24
ENDBRANCH   2  15
TORSDOF 5
ENDMDL
MODEL 7
REMARK VINA RESULT:      -4.5     14.560     15.789
REMARK  Name = Thioguanosine.pdbqt.pdb
REMARK  5 active torsions:
REMARK  status: ('A' for Active; 'I' for Inactive)
REMARK    1  A    between atoms: N_2  and  C1*_12
REMARK    2  A    between atoms: C4*_14  and  C5*_17
REMARK    3  A    between atoms: C3*_15  and  O3*_20
REMARK    4  A    between atoms: C2*_16  and  O2*_22
REMARK    5  A    between atoms: C5*_17  and  O5*_18
REMARK                            x       y       z     vdW  Elec       q    Type
REMARK                         _______ _______ _______ _____ _____    ______ ____
ROOT
ATOM      1  S   UNL     1      20.129  10.597 -14.960  0.00  0.00    +0.000 S 
ATOM      2  N   UNL     1      15.280  10.341 -15.606  0.00  0.00    +0.000 N 
ATOM      3  N   UNL     1      16.169   8.881 -13.835  0.00  0.00    +0.000 N 
ATOM      4  N   UNL     1      17.263  11.268 -16.186  0.00  0.00    +0.000 NA
ATOM      5  N   UNL     1      18.525   8.934 -13.509  0.00  0.00    +0.000 NA
ATOM      6  C   UNL     1      16.261   9.799 -14.814  0.00  0.00    +0.000 A 
ATOM      7  C   UNL     1      15.963  11.244 -16.406  0.00  0.00    +0.000 A 
ATOM      8  C   UNL     1      17.461  10.350 -15.184  0.00  0.00    +0.000 A 
ATOM      9  C   UNL     1      18.678   9.906 -14.501  0.00  0.00    +0.000 A 
ATOM     10  C   UNL     1      17.333   8.491 -13.230  0.00  0.00    +0.000 A 
ATOM     11  H   UNL     1      15.292   8.436 -13.576  0.00  0.00    +0.000 HD
ATOM     12  N   UNL     1      17.157   7.553 -12.269  0.00  0.00    +0.000 N 
ATOM     13  H   UNL     1      16.410   7.759 -11.618  0.00  0.00    +0.000 HD
ATOM     14  H   UNL     1      18.028   7.386 -11.771  0.00  0.00    +0.000 HD
ENDROOT
BRANCH   2  15
ATOM     15  C1* UNL     1      13.924  10.085 -15.668  0.00  0.00    +0.000 A 
ATOM     16  O4* UNL     1      13.339   8.986 -14.996  0.00  0.00    +0.000 OA
ATOM     17  C4* UNL     1      11.957   8.969 -15.250  0.00  0.00    +0.000 A 
ATOM     18  C3* UNL     1      11.645  10.085 -16.097  0.00  0.00    +0.000 A 
ATOM     19  C2* UNL     1      12.865  10.787 -16.350  0.00  0.00    +0.000 A 
BRANCH  18  20
ATOM     20  O3* UNL     1      10.651  10.065 -17.038  0.00  0.00    +0.000 OA
ATOM     21  H3* UNL     1       9.867   9.579 -16.721  0.00  0.00    +0.000 HD
ENDBRANCH  18  20
BRANCH  19  22
ATOM     22  O2* UNL     1      13.052  11.462 -17.525  0.00  0.00    +0.000 OA
ATOM     23  H2* UNL     1      13.435  12.342 -17.335  0.00  0.00    +0.000 HD
ENDBRANCH  19  22
BRANCH  17  24
ATOM     24  C5* UNL     1      11.137   7.871 -14.934  0.00  0.00    +0.000 C 
BRANCH  24  25
ATOM     25  O5* UNL     1      10.377   6.819 -14.648  0.00  0.00    +0.000 OA
ATOM     26  H5* UNL     1       9.470   7.101 -14.430  0.00  0.00    +0.000 HD
ENDBRANCH  24  25
ENDBRANCH  17  24
ENDBRANCH   2  15
TORSDOF 5
ENDMDL
MODEL 8
REMARK VINA RESULT:      -4.5     24.044     26.690
REMARK  Name = Thioguanosine.pdbqt.pdb
REMARK  5 active torsions:
REMARK  status: ('A' for Active; 'I' for Inactive)
REMARK    1  A    between atoms: N_2  and  C1*_12
REMARK    2  A    between atoms: C4*_14  and  C5*_17
REMARK    3  A    between atoms: C3*_15  and  O3*_20
REMARK    4  A    between atoms: C2*_16  and  O2*_22
REMARK    5  A    between atoms: C5*_17  and  O5*_18
REMARK                            x       y       z     vdW  Elec       q    Type
REMARK                         _______ _______ _______ _____ _____    ______ ____
ROOT
ATOM      1  S   UNL     1      -9.695  -3.909  -0.864  0.00  0.00    +0.000 S 
ATOM      2  N   UNL     1     -11.939   0.404  -0.266  0.00  0.00    +0.000 N 
ATOM      3  N   UNL     1      -9.480   0.499  -0.222  0.00  0.00    +0.000 N 
ATOM      4  N   UNL     1     -12.098  -1.825  -0.629  0.00  0.00    +0.000 NA
ATOM      5  N   UNL     1      -8.341  -1.574  -0.465  0.00  0.00    +0.000 NA
ATOM      6  C   UNL     1     -10.671  -0.116  -0.333  0.00  0.00    +0.000 A 
ATOM      7  C   UNL     1     -12.758  -0.695  -0.475  0.00  0.00    +0.000 A 
ATOM      8  C   UNL     1     -10.775  -1.469  -0.533  0.00  0.00    +0.000 A 
ATOM      9  C   UNL     1      -9.547  -2.264  -0.608  0.00  0.00    +0.000 A 
ATOM     10  C   UNL     1      -8.361  -0.284  -0.292  0.00  0.00    +0.000 A 
ATOM     11  H   UNL     1      -9.388   1.495  -0.036  0.00  0.00    +0.000 HD
ATOM     12  N   UNL     1      -7.204   0.408  -0.156  0.00  0.00    +0.000 N 
ATOM     13  H   UNL     1      -7.150   1.245  -0.722  0.00  0.00    +0.000 HD
ATOM     14  H   UNL     1      -6.405  -0.196  -0.334  0.00  0.00    +0.000 HD
ENDROOT
BRANCH   2  15
ATOM     15  C1* UNL     1     -12.377   1.692  -0.028  0.00  0.00    +0.000 A 
ATOM     16  O4* UNL     1     -11.849   2.480   1.023  0.00  0.00    +0.000 OA
ATOM     17  C4* UNL     1     -12.488   3.730   1.032  0.00  0.00    +0.000 A 
ATOM     18  C3* UNL     1     -13.443   3.752  -0.039  0.00  0.00    +0.000 A 
ATOM     19  C2* UNL     1     -13.368   2.490  -0.707  0.00  0.00    +0.000 A 
BRANCH  18  20
ATOM     20  O3* UNL     1     -14.628   4.434   0.018  0.00  0.00    +0.000 OA
ATOM     21  H3* UNL     1     -15.327   3.904   0.445  0.00  0.00    +0.000 HD
ENDBRANCH  18  20
BRANCH  19  22
ATOM     22  O2* UNL     1     -14.471   1.952  -1.312  0.00  0.00    +0.000 OA
ATOM     23  H2* UNL     1     -15.016   1.492  -0.642  0.00  0.00    +0.000 HD
ENDBRANCH  19  22
BRANCH  17  24
ATOM     24  C5* UNL     1     -12.368   4.640   2.099  0.00  0.00    +0.000 C 
BRANCH  24  25
ATOM     25  O5* UNL     1     -12.240   5.485   3.116  0.00  0.00    +0.000 OA
ATOM     26  H5* UNL     1     -12.418   5.034   3.961  0.00  0.00    +0.000 HD
ENDBRANCH  24  25
ENDBRANCH  17  24
ENDBRANCH   2  15
TORSDOF 5
ENDMDL
MODEL 9
REMARK VINA RESULT:      -4.4     14.132     15.496
REMARK  Name = Thioguanosine.pdbqt.pdb
REMARK  5 active torsions:
REMARK  status: ('A' for Active; 'I' for Inactive)
REMARK    1  A    between atoms: N_2  and  C1*_12
REMARK    2  A    between atoms: C4*_14  and  C5*_17
REMARK    3  A    between atoms: C3*_15  and  O3*_20
REMARK    4  A    between atoms: C2*_16  and  O2*_22
REMARK    5  A    between atoms: C5*_17  and  O5*_18
REMARK                            x       y       z     vdW  Elec       q    Type
REMARK                         _______ _______ _______ _____ _____    ______ ____
ROOT
ATOM      1  S   UNL     1       3.617  -4.292 -20.538  0.00  0.00    +0.000 S 
ATOM      2  N   UNL     1       6.885  -0.760 -19.620  0.00  0.00    +0.000 N 
ATOM      3  N   UNL     1       4.715  -0.486 -18.490  0.00  0.00    +0.000 N 
ATOM      4  N   UNL     1       6.386  -2.714 -20.650  0.00  0.00    +0.000 NA
ATOM      5  N   UNL     1       3.077  -2.151 -18.937  0.00  0.00    +0.000 NA
ATOM      6  C   UNL     1       5.602  -1.113 -19.284  0.00  0.00    +0.000 A 
ATOM      7  C   UNL     1       7.308  -1.795 -20.440  0.00  0.00    +0.000 A 
ATOM      8  C   UNL     1       5.299  -2.285 -19.928  0.00  0.00    +0.000 A 
ATOM      9  C   UNL     1       3.962  -2.856 -19.755  0.00  0.00    +0.000 A 
ATOM     10  C   UNL     1       3.477  -1.052 -18.364  0.00  0.00    +0.000 A 
ATOM     11  H   UNL     1       4.912   0.404 -18.038  0.00  0.00    +0.000 HD
ATOM     12  N   UNL     1       2.639  -0.352 -17.561  0.00  0.00    +0.000 N 
ATOM     13  H   UNL     1       3.047  -0.067 -16.680  0.00  0.00    +0.000 HD
ATOM     14  H   UNL     1       1.779  -0.873 -17.404  0.00  0.00    +0.000 HD
ENDROOT
BRANCH   2  15
ATOM     15  C1* UNL     1       7.636   0.349 -19.282  0.00  0.00    +0.000 A 
ATOM     16  O4* UNL     1       8.863   0.238 -18.585  0.00  0.00    +0.000 OA
ATOM     17  C4* UNL     1       9.391   1.521 -18.369  0.00  0.00    +0.000 A 
ATOM     18  C3* UNL     1       8.489   2.479 -18.944  0.00  0.00    +0.000 A 
ATOM     19  C2* UNL     1       7.402   1.752 -19.522  0.00  0.00    +0.000 A 
BRANCH  18  20
ATOM     20  O3* UNL     1       8.287   3.731 -18.429  0.00  0.00    +0.000 OA
ATOM     21  H3* UNL     1       8.938   4.370 -18.774  0.00  0.00    +0.000 HD
ENDBRANCH  18  20
BRANCH  19  22
ATOM     22  O2* UNL     1       6.150   2.299 -19.585  0.00  0.00    +0.000 OA
ATOM     23  H2* UNL     1       5.535   1.763 -19.045  0.00  0.00    +0.000 HD
ENDBRANCH  19  22
BRANCH  17  24
ATOM     24  C5* UNL     1      10.465   1.766 -17.494  0.00  0.00    +0.000 C 
BRANCH  24  25
ATOM     25  O5* UNL     1      11.479   1.975 -16.661  0.00  0.00    +0.000 OA
ATOM     26  H5* UNL     1      11.457   1.336 -15.927  0.00  0.00    +0.000 HD
ENDBRANCH  24  25
ENDBRANCH  17  24
ENDBRANCH   2  15
TORSDOF 5
ENDMDL
