MODEL 1
REMARK VINA RESULT:      -5.9      0.000      0.000
REMARK  Name = Trichostatin_A.pdbqt.pdb
REMARK  6 active torsions:
REMARK  status: ('A' for Active; 'I' for Inactive)
REMARK    1  A    between atoms: C_1  and  C_15
REMARK    2  A    between atoms: C_4  and  C_6
REMARK    3  A    between atoms: C_7  and  C_10
REMARK    4  A    between atoms: N_9  and  O_12
REMARK    5  A    between atoms: C_15  and  C_16
REMARK    6  A    between atoms: C_17  and  N_22
REMARK                            x       y       z     vdW  Elec       q    Type
REMARK                         _______ _______ _______ _____ _____    ______ ____
ROOT
ATOM      1  C   UNL     1      -9.368  -2.037 -18.529  0.00  0.00    +0.000 C 
ATOM      2  C   UNL     1     -10.050  -2.147 -17.181  0.00  0.00    +0.000 C 
ATOM      3  C   UNL     1     -10.119  -1.412 -19.554  0.00  0.00    +0.000 C 
ATOM      4  C   UNL     1     -10.765  -0.856 -20.525  0.00  0.00    +0.000 C 
ATOM      5  C   UNL     1     -10.529   0.591 -20.834  0.00  0.00    +0.000 C 
ENDROOT
BRANCH   4   6
ATOM      6  C   UNL     1     -11.532  -1.646 -21.412  0.00  0.00    +0.000 C 
ATOM      7  C   UNL     1     -12.181  -2.320 -22.166  0.00  0.00    +0.000 C 
BRANCH   7  10
ATOM      8  O   UNL     1     -13.928  -2.648 -23.644  0.00  0.00    +0.000 OA
ATOM      9  N   UNL     1     -12.559  -4.427 -23.211  0.00  0.00    +0.000 N 
ATOM     10  C   UNL     1     -12.962  -3.129 -23.064  0.00  0.00    +0.000 C 
ATOM     11  H   UNL     1     -11.767  -4.843 -22.734  0.00  0.00    +0.000 HD
BRANCH   9  12
ATOM     12  O   UNL     1     -13.308  -5.251 -24.076  0.00  0.00    +0.000 OA
ATOM     13  H   UNL     1     -12.613  -5.730 -24.577  0.00  0.00    +0.000 HD
ENDBRANCH   9  12
ENDBRANCH   7  10
ENDBRANCH   4   6
BRANCH   1  15
ATOM     14  O   UNL     1      -8.128  -3.974 -19.122  0.00  0.00    +0.000 OA
ATOM     15  C   UNL     1      -8.112  -2.767 -18.881  0.00  0.00    +0.000 C 
BRANCH  15  16
ATOM     16  C   UNL     1      -6.827  -2.044 -18.960  0.00  0.00    +0.000 A 
ATOM     17  C   UNL     1      -4.279  -0.822 -19.111  0.00  0.00    +0.000 A 
ATOM     18  C   UNL     1      -6.501  -1.237 -20.046  0.00  0.00    +0.000 A 
ATOM     19  C   UNL     1      -5.881  -2.269 -17.962  0.00  0.00    +0.000 A 
ATOM     20  C   UNL     1      -5.248  -0.628 -20.108  0.00  0.00    +0.000 A 
ATOM     21  C   UNL     1      -4.631  -1.653 -18.036  0.00  0.00    +0.000 A 
BRANCH  17  22
ATOM     22  N   UNL     1      -3.014  -0.185 -19.173  0.00  0.00    +0.000 N 
ATOM     23  C   UNL     1      -1.881  -0.698 -18.420  0.00  0.00    +0.000 C 
ATOM     24  C   UNL     1      -2.891   1.197 -19.607  0.00  0.00    +0.000 C 
ENDBRANCH  17  22
ENDBRANCH  15  16
ENDBRANCH   1  15
TORSDOF 6
ENDMDL
MODEL 2
REMARK VINA RESULT:      -5.6     19.535     22.284
REMARK  Name = Trichostatin_A.pdbqt.pdb
REMARK  6 active torsions:
REMARK  status: ('A' for Active; 'I' for Inactive)
REMARK    1  A    between atoms: C_1  and  C_15
REMARK    2  A    between atoms: C_4  and  C_6
REMARK    3  A    between atoms: C_7  and  C_10
REMARK    4  A    between atoms: N_9  and  O_12
REMARK    5  A    between atoms: C_15  and  C_16
REMARK    6  A    between atoms: C_17  and  N_22
REMARK                            x       y       z     vdW  Elec       q    Type
REMARK                         _______ _______ _______ _____ _____    ______ ____
ROOT
ATOM      1  C   UNL     1      -5.165  -0.417   1.583  0.00  0.00    +0.000 C 
ATOM      2  C   UNL     1      -5.246  -0.651   3.078  0.00  0.00    +0.000 C 
ATOM      3  C   UNL     1      -3.905  -0.660   0.986  0.00  0.00    +0.000 C 
ATOM      4  C   UNL     1      -2.775  -0.862   0.393  0.00  0.00    +0.000 C 
ATOM      5  C   UNL     1      -2.525  -2.170  -0.292  0.00  0.00    +0.000 C 
ENDROOT
BRANCH   4   6
ATOM      6  C   UNL     1      -1.865   0.207   0.218  0.00  0.00    +0.000 C 
ATOM      7  C   UNL     1      -1.094   1.117   0.072  0.00  0.00    +0.000 C 
BRANCH   7  10
ATOM      8  O   UNL     1      -0.346   3.033  -0.982  0.00  0.00    +0.000 OA
ATOM      9  N   UNL     1       0.897   2.228   0.760  0.00  0.00    +0.000 N 
ATOM     10  C   UNL     1      -0.164   2.201  -0.101  0.00  0.00    +0.000 C 
ATOM     11  H   UNL     1       1.066   1.545   1.489  0.00  0.00    +0.000 HD
BRANCH   9  12
ATOM     12  O   UNL     1       1.833   3.273   0.613  0.00  0.00    +0.000 OA
ATOM     13  H   UNL     1       1.287   4.076   0.750  0.00  0.00    +0.000 HD
ENDBRANCH   9  12
ENDBRANCH   7  10
ENDBRANCH   4   6
BRANCH   1  15
ATOM     14  O   UNL     1      -6.127   1.487   0.537  0.00  0.00    +0.000 OA
ATOM     15  C   UNL     1      -6.225   0.288   0.800  0.00  0.00    +0.000 C 
BRANCH  15  16
ATOM     16  C   UNL     1      -7.408  -0.451   0.314  0.00  0.00    +0.000 A 
ATOM     17  C   UNL     1      -9.730  -1.711  -0.700  0.00  0.00    +0.000 A 
ATOM     18  C   UNL     1      -7.294  -1.530  -0.556  0.00  0.00    +0.000 A 
ATOM     19  C   UNL     1      -8.671   0.024   0.660  0.00  0.00    +0.000 A 
ATOM     20  C   UNL     1      -8.443  -2.155  -1.042  0.00  0.00    +0.000 A 
ATOM     21  C   UNL     1      -9.812  -0.610   0.167  0.00  0.00    +0.000 A 
BRANCH  17  22
ATOM     22  N   UNL     1     -10.893  -2.362  -1.183  0.00  0.00    +0.000 N 
ATOM     23  C   UNL     1     -12.182  -2.166  -0.540  0.00  0.00    +0.000 C 
ATOM     24  C   UNL     1     -10.795  -3.546  -2.021  0.00  0.00    +0.000 C 
ENDBRANCH  17  22
ENDBRANCH  15  16
ENDBRANCH   1  15
TORSDOF 6
ENDMDL
MODEL 3
REMARK VINA RESULT:      -5.6      5.863     10.186
REMARK  Name = Trichostatin_A.pdbqt.pdb
REMARK  6 active torsions:
REMARK  status: ('A' for Active; 'I' for Inactive)
REMARK    1  A    between atoms: C_1  and  C_15
REMARK    2  A    between atoms: C_4  and  C_6
REMARK    3  A    between atoms: C_7  and  C_10
REMARK    4  A    between atoms: N_9  and  O_12
REMARK    5  A    between atoms: C_15  and  C_16
REMARK    6  A    between atoms: C_17  and  N_22
REMARK                            x       y       z     vdW  Elec       q    Type
REMARK                         _______ _______ _______ _____ _____    ______ ____
ROOT
ATOM      1  C   UNL     1       0.350   1.923 -20.481  0.00  0.00    +0.000 C 
ATOM      2  C   UNL     1       0.510   2.220 -21.958  0.00  0.00    +0.000 C 
ATOM      3  C   UNL     1       1.232   0.954 -19.945  0.00  0.00    +0.000 C 
ATOM      4  C   UNL     1       2.009   0.073 -19.408  0.00  0.00    +0.000 C 
ATOM      5  C   UNL     1       3.243   0.520 -18.685  0.00  0.00    +0.000 C 
ENDROOT
BRANCH   4   6
ATOM      6  C   UNL     1       1.601  -1.279 -19.329  0.00  0.00    +0.000 C 
ATOM      7  C   UNL     1       1.256  -2.428 -19.265  0.00  0.00    +0.000 C 
BRANCH   7  10
ATOM      8  O   UNL     1       1.341  -4.544 -18.336  0.00  0.00    +0.000 OA
ATOM      9  N   UNL     1      -0.097  -4.209 -20.082  0.00  0.00    +0.000 N 
ATOM     10  C   UNL     1       0.847  -3.805 -19.180  0.00  0.00    +0.000 C 
ATOM     11  H   UNL     1      -0.510  -3.614 -20.791  0.00  0.00    +0.000 HD
BRANCH   9  12
ATOM     12  O   UNL     1      -0.515  -5.556 -20.034  0.00  0.00    +0.000 OA
ATOM     13  H   UNL     1      -0.554  -5.738 -19.070  0.00  0.00    +0.000 HD
ENDBRANCH   9  12
ENDBRANCH   7  10
ENDBRANCH   4   6
BRANCH   1  15
ATOM     14  O   UNL     1      -0.815   3.475 -19.111  0.00  0.00    +0.000 OA
ATOM     15  C   UNL     1      -0.820   2.378 -19.669  0.00  0.00    +0.000 C 
BRANCH  15  16
ATOM     16  C   UNL     1      -2.013   1.518 -19.534  0.00  0.00    +0.000 A 
ATOM     17  C   UNL     1      -4.265  -0.193 -19.444  0.00  0.00    +0.000 A 
ATOM     18  C   UNL     1      -2.093   0.517 -18.571  0.00  0.00    +0.000 A 
ATOM     19  C   UNL     1      -3.034   1.655 -20.471  0.00  0.00    +0.000 A 
ATOM     20  C   UNL     1      -3.211  -0.315 -18.524  0.00  0.00    +0.000 A 
ATOM     21  C   UNL     1      -4.148   0.816 -20.413  0.00  0.00    +0.000 A 
BRANCH  17  22
ATOM     22  N   UNL     1      -5.407  -1.030 -19.379  0.00  0.00    +0.000 N 
ATOM     23  C   UNL     1      -5.483  -2.117 -18.416  0.00  0.00    +0.000 C 
ATOM     24  C   UNL     1      -6.324  -1.135 -20.502  0.00  0.00    +0.000 C 
ENDBRANCH  17  22
ENDBRANCH  15  16
ENDBRANCH   1  15
TORSDOF 6
ENDMDL
MODEL 4
REMARK VINA RESULT:      -5.5      4.111      5.466
REMARK  Name = Trichostatin_A.pdbqt.pdb
REMARK  6 active torsions:
REMARK  status: ('A' for Active; 'I' for Inactive)
REMARK    1  A    between atoms: C_1  and  C_15
REMARK    2  A    between atoms: C_4  and  C_6
REMARK    3  A    between atoms: C_7  and  C_10
REMARK    4  A    between atoms: N_9  and  O_12
REMARK    5  A    between atoms: C_15  and  C_16
REMARK    6  A    between atoms: C_17  and  N_22
REMARK                            x       y       z     vdW  Elec       q    Type
REMARK                         _______ _______ _______ _____ _____    ______ ____
ROOT
ATOM      1  C   UNL     1     -12.455   2.314 -20.973  0.00  0.00    +0.000 C 
ATOM      2  C   UNL     1     -13.708   2.894 -20.347  0.00  0.00    +0.000 C 
ATOM      3  C   UNL     1     -12.589   1.839 -22.299  0.00  0.00    +0.000 C 
ATOM      4  C   UNL     1     -12.659   1.386 -23.507  0.00  0.00    +0.000 C 
ATOM      5  C   UNL     1     -12.236   2.259 -24.649  0.00  0.00    +0.000 C 
ENDROOT
BRANCH   4   6
ATOM      6  C   UNL     1     -12.939   0.019 -23.737  0.00  0.00    +0.000 C 
ATOM      7  C   UNL     1     -13.173  -1.143 -23.933  0.00  0.00    +0.000 C 
BRANCH   7  10
ATOM      8  O   UNL     1     -14.181  -2.873 -25.090  0.00  0.00    +0.000 OA
ATOM      9  N   UNL     1     -12.876  -3.418 -23.292  0.00  0.00    +0.000 N 
ATOM     10  C   UNL     1     -13.456  -2.536 -24.161  0.00  0.00    +0.000 C 
ATOM     11  H   UNL     1     -12.281  -3.155 -22.515  0.00  0.00    +0.000 HD
BRANCH   9  12
ATOM     12  O   UNL     1     -13.139  -4.791 -23.480  0.00  0.00    +0.000 OA
ATOM     13  H   UNL     1     -12.639  -4.999 -24.298  0.00  0.00    +0.000 HD
ENDBRANCH   9  12
ENDBRANCH   7  10
ENDBRANCH   4   6
BRANCH   1  15
ATOM     14  O   UNL     1     -10.394   2.855 -19.923  0.00  0.00    +0.000 OA
ATOM     15  C   UNL     1     -11.221   1.985 -20.196  0.00  0.00    +0.000 C 
BRANCH  15  16
ATOM     16  C   UNL     1     -10.979   0.604 -19.732  0.00  0.00    +0.000 A 
ATOM     17  C   UNL     1     -10.342  -2.025 -18.902  0.00  0.00    +0.000 A 
ATOM     18  C   UNL     1     -11.077   0.252 -18.390  0.00  0.00    +0.000 A 
ATOM     19  C   UNL     1     -10.538  -0.337 -20.660  0.00  0.00    +0.000 A 
ATOM     20  C   UNL     1     -10.773  -1.049 -17.989  0.00  0.00    +0.000 A 
ATOM     21  C   UNL     1     -10.238  -1.635 -20.246  0.00  0.00    +0.000 A 
BRANCH  17  22
ATOM     22  N   UNL     1     -10.052  -3.350 -18.489  0.00  0.00    +0.000 N 
ATOM     23  C   UNL     1     -10.521  -3.854 -17.209  0.00  0.00    +0.000 C 
ATOM     24  C   UNL     1      -8.952  -4.095 -19.080  0.00  0.00    +0.000 C 
ENDBRANCH  17  22
ENDBRANCH  15  16
ENDBRANCH   1  15
TORSDOF 6
ENDMDL
MODEL 5
REMARK VINA RESULT:      -5.4      3.178      4.175
REMARK  Name = Trichostatin_A.pdbqt.pdb
REMARK  6 active torsions:
REMARK  status: ('A' for Active; 'I' for Inactive)
REMARK    1  A    between atoms: C_1  and  C_15
REMARK    2  A    between atoms: C_4  and  C_6
REMARK    3  A    between atoms: C_7  and  C_10
REMARK    4  A    between atoms: N_9  and  O_12
REMARK    5  A    between atoms: C_15  and  C_16
REMARK    6  A    between atoms: C_17  and  N_22
REMARK                            x       y       z     vdW  Elec       q    Type
REMARK                         _______ _______ _______ _____ _____    ______ ____
ROOT
ATOM      1  C   UNL     1     -10.575  -3.111 -20.552  0.00  0.00    +0.000 C 
ATOM      2  C   UNL     1     -11.791  -3.848 -21.076  0.00  0.00    +0.000 C 
ATOM      3  C   UNL     1     -10.837  -1.944 -19.796  0.00  0.00    +0.000 C 
ATOM      4  C   UNL     1     -11.022  -0.868 -19.105  0.00  0.00    +0.000 C 
ATOM      5  C   UNL     1     -11.015  -0.942 -17.608  0.00  0.00    +0.000 C 
ENDROOT
BRANCH   4   6
ATOM      6  C   UNL     1     -11.029   0.393 -19.744  0.00  0.00    +0.000 C 
ATOM      7  C   UNL     1     -11.033   1.467 -20.285  0.00  0.00    +0.000 C 
BRANCH   7  10
ATOM      8  O   UNL     1     -11.697   3.673 -20.480  0.00  0.00    +0.000 OA
ATOM      9  N   UNL     1     -10.270   2.851 -22.066  0.00  0.00    +0.000 N 
ATOM     10  C   UNL     1     -11.035   2.749 -20.938  0.00  0.00    +0.000 C 
ATOM     11  H   UNL     1      -9.723   2.096 -22.462  0.00  0.00    +0.000 HD
BRANCH   9  12
ATOM     12  O   UNL     1     -10.256   4.091 -22.738  0.00  0.00    +0.000 OA
ATOM     13  H   UNL     1     -10.193   4.737 -22.001  0.00  0.00    +0.000 HD
ENDBRANCH   9  12
ENDBRANCH   7  10
ENDBRANCH   4   6
BRANCH   1  15
ATOM     14  O   UNL     1      -8.961  -4.164 -21.942  0.00  0.00    +0.000 OA
ATOM     15  C   UNL     1      -9.179  -3.392 -21.007  0.00  0.00    +0.000 C 
BRANCH  15  16
ATOM     16  C   UNL     1      -8.033  -2.735 -20.347  0.00  0.00    +0.000 A 
ATOM     17  C   UNL     1      -5.743  -1.632 -19.103  0.00  0.00    +0.000 A 
ATOM     18  C   UNL     1      -7.403  -1.625 -20.900  0.00  0.00    +0.000 A 
ATOM     19  C   UNL     1      -7.514  -3.317 -19.193  0.00  0.00    +0.000 A 
ATOM     20  C   UNL     1      -6.282  -1.079 -20.275  0.00  0.00    +0.000 A 
ATOM     21  C   UNL     1      -6.392  -2.761 -18.577  0.00  0.00    +0.000 A 
BRANCH  17  22
ATOM     22  N   UNL     1      -4.615  -1.061 -18.463  0.00  0.00    +0.000 N 
ATOM     23  C   UNL     1      -4.186   0.293 -18.773  0.00  0.00    +0.000 C 
ATOM     24  C   UNL     1      -3.607  -1.898 -17.833  0.00  0.00    +0.000 C 
ENDBRANCH  17  22
ENDBRANCH  15  16
ENDBRANCH   1  15
TORSDOF 6
ENDMDL
MODEL 6
REMARK VINA RESULT:      -5.4     23.452     26.297
REMARK  Name = Trichostatin_A.pdbqt.pdb
REMARK  6 active torsions:
REMARK  status: ('A' for Active; 'I' for Inactive)
REMARK    1  A    between atoms: C_1  and  C_15
REMARK    2  A    between atoms: C_4  and  C_6
REMARK    3  A    between atoms: C_7  and  C_10
REMARK    4  A    between atoms: N_9  and  O_12
REMARK    5  A    between atoms: C_15  and  C_16
REMARK    6  A    between atoms: C_17  and  N_22
REMARK                            x       y       z     vdW  Elec       q    Type
REMARK                         _______ _______ _______ _____ _____    ______ ____
ROOT
ATOM      1  C   UNL     1      12.416  10.438 -16.677  0.00  0.00    +0.000 C 
ATOM      2  C   UNL     1      11.499  11.224 -17.592  0.00  0.00    +0.000 C 
ATOM      3  C   UNL     1      11.786   9.746 -15.615  0.00  0.00    +0.000 C 
ATOM      4  C   UNL     1      11.261   9.102 -14.626  0.00  0.00    +0.000 C 
ATOM      5  C   UNL     1      10.960   7.642 -14.773  0.00  0.00    +0.000 C 
ENDROOT
BRANCH   4   6
ATOM      6  C   UNL     1      11.156   9.714 -13.356  0.00  0.00    +0.000 C 
ATOM      7  C   UNL     1      11.065  10.232 -12.275  0.00  0.00    +0.000 C 
BRANCH   7  10
ATOM      8  O   UNL     1      10.920  10.159  -9.968  0.00  0.00    +0.000 OA
ATOM      9  N   UNL     1      10.919  12.217 -10.966  0.00  0.00    +0.000 N 
ATOM     10  C   UNL     1      10.963  10.851 -10.979  0.00  0.00    +0.000 C 
ATOM     11  H   UNL     1      10.946  12.803 -11.792  0.00  0.00    +0.000 HD
BRANCH   9  12
ATOM     12  O   UNL     1      10.809  12.856  -9.713  0.00  0.00    +0.000 OA
ATOM     13  H   UNL     1      11.169  12.185  -9.094  0.00  0.00    +0.000 HD
ENDBRANCH   9  12
ENDBRANCH   7  10
ENDBRANCH   4   6
BRANCH   1  15
ATOM     14  O   UNL     1      14.523  10.739 -17.732  0.00  0.00    +0.000 OA
ATOM     15  C   UNL     1      13.904  10.579 -16.680  0.00  0.00    +0.000 C 
BRANCH  15  16
ATOM     16  C   UNL     1      14.659  10.539 -15.411  0.00  0.00    +0.000 A 
ATOM     17  C   UNL     1      15.951  10.512 -12.894  0.00  0.00    +0.000 A 
ATOM     18  C   UNL     1      15.214   9.360 -14.923  0.00  0.00    +0.000 A 
ATOM     19  C   UNL     1      14.718  11.698 -14.642  0.00  0.00    +0.000 A 
ATOM     20  C   UNL     1      15.860   9.356 -13.686  0.00  0.00    +0.000 A 
ATOM     21  C   UNL     1      15.368  11.681 -13.407  0.00  0.00    +0.000 A 
BRANCH  17  22
ATOM     22  N   UNL     1      16.625  10.505 -11.647  0.00  0.00    +0.000 N 
ATOM     23  C   UNL     1      17.704   9.566 -11.385  0.00  0.00    +0.000 C 
ATOM     24  C   UNL     1      16.018  11.093 -10.464  0.00  0.00    +0.000 C 
ENDBRANCH  17  22
ENDBRANCH  15  16
ENDBRANCH   1  15
TORSDOF 6
ENDMDL
MODEL 7
REMARK VINA RESULT:      -5.3     15.990     18.571
REMARK  Name = Trichostatin_A.pdbqt.pdb
REMARK  6 active torsions:
REMARK  status: ('A' for Active; 'I' for Inactive)
REMARK    1  A    between atoms: C_1  and  C_15
REMARK    2  A    between atoms: C_4  and  C_6
REMARK    3  A    between atoms: C_7  and  C_10
REMARK    4  A    between atoms: N_9  and  O_12
REMARK    5  A    between atoms: C_15  and  C_16
REMARK    6  A    between atoms: C_17  and  N_22
REMARK                            x       y       z     vdW  Elec       q    Type
REMARK                         _______ _______ _______ _____ _____    ______ ____
ROOT
ATOM      1  C   UNL     1      -2.462 -18.178 -14.167  0.00  0.00    +0.000 C 
ATOM      2  C   UNL     1      -3.518 -17.439 -13.370  0.00  0.00    +0.000 C 
ATOM      3  C   UNL     1      -1.136 -18.074 -13.683  0.00  0.00    +0.000 C 
ATOM      4  C   UNL     1       0.092 -18.006 -13.287  0.00  0.00    +0.000 C 
ATOM      5  C   UNL     1       0.657 -19.107 -12.442  0.00  0.00    +0.000 C 
ENDROOT
BRANCH   4   6
ATOM      6  C   UNL     1       0.951 -17.011 -13.807  0.00  0.00    +0.000 C 
ATOM      7  C   UNL     1       1.680 -16.165 -14.253  0.00  0.00    +0.000 C 
BRANCH   7  10
ATOM      8  O   UNL     1       3.697 -15.040 -14.365  0.00  0.00    +0.000 OA
ATOM      9  N   UNL     1       2.014 -14.341 -15.746  0.00  0.00    +0.000 N 
ATOM     10  C   UNL     1       2.549 -15.148 -14.782  0.00  0.00    +0.000 C 
ATOM     11  H   UNL     1       1.066 -14.411 -16.097  0.00  0.00    +0.000 HD
BRANCH   9  12
ATOM     12  O   UNL     1       2.836 -13.326 -16.281  0.00  0.00    +0.000 OA
ATOM     13  H   UNL     1       3.704 -13.774 -16.372  0.00  0.00    +0.000 HD
ENDBRANCH   9  12
ENDBRANCH   7  10
ENDBRANCH   4   6
BRANCH   1  15
ATOM     14  O   UNL     1      -3.020 -19.935 -15.666  0.00  0.00    +0.000 OA
ATOM     15  C   UNL     1      -2.705 -18.753 -15.525  0.00  0.00    +0.000 C 
BRANCH  15  16
ATOM     16  C   UNL     1      -2.582 -17.903 -16.727  0.00  0.00    +0.000 A 
ATOM     17  C   UNL     1      -2.255 -16.413 -19.110  0.00  0.00    +0.000 A 
ATOM     18  C   UNL     1      -3.696 -17.473 -17.441  0.00  0.00    +0.000 A 
ATOM     19  C   UNL     1      -1.305 -17.620 -17.207  0.00  0.00    +0.000 A 
ATOM     20  C   UNL     1      -3.528 -16.729 -18.608  0.00  0.00    +0.000 A 
ATOM     21  C   UNL     1      -1.151 -16.874 -18.376  0.00  0.00    +0.000 A 
BRANCH  17  22
ATOM     22  N   UNL     1      -2.093 -15.640 -20.287  0.00  0.00    +0.000 N 
ATOM     23  C   UNL     1      -1.029 -14.655 -20.394  0.00  0.00    +0.000 C 
ATOM     24  C   UNL     1      -3.186 -15.472 -21.230  0.00  0.00    +0.000 C 
ENDBRANCH  17  22
ENDBRANCH  15  16
ENDBRANCH   1  15
TORSDOF 6
ENDMDL
MODEL 8
REMARK VINA RESULT:      -5.3     15.599     19.056
REMARK  Name = Trichostatin_A.pdbqt.pdb
REMARK  6 active torsions:
REMARK  status: ('A' for Active; 'I' for Inactive)
REMARK    1  A    between atoms: C_1  and  C_15
REMARK    2  A    between atoms: C_4  and  C_6
REMARK    3  A    between atoms: C_7  and  C_10
REMARK    4  A    between atoms: N_9  and  O_12
REMARK    5  A    between atoms: C_15  and  C_16
REMARK    6  A    between atoms: C_17  and  N_22
REMARK                            x       y       z     vdW  Elec       q    Type
REMARK                         _______ _______ _______ _____ _____    ______ ____
ROOT
ATOM      1  C   UNL     1      11.925  -0.067 -19.405  0.00  0.00    +0.000 C 
ATOM      2  C   UNL     1      12.043  -1.572 -19.278  0.00  0.00    +0.000 C 
ATOM      3  C   UNL     1      11.046   0.564 -18.493  0.00  0.00    +0.000 C 
ATOM      4  C   UNL     1      10.250   1.188 -17.689  0.00  0.00    +0.000 C 
ATOM      5  C   UNL     1      10.805   1.826 -16.451  0.00  0.00    +0.000 C 
ENDROOT
BRANCH   4   6
ATOM      6  C   UNL     1       8.912   1.440 -18.067  0.00  0.00    +0.000 C 
ATOM      7  C   UNL     1       7.775   1.655 -18.393  0.00  0.00    +0.000 C 
BRANCH   7  10
ATOM      8  O   UNL     1       6.125   2.047 -19.965  0.00  0.00    +0.000 OA
ATOM      9  N   UNL     1       5.499   1.971 -17.766  0.00  0.00    +0.000 N 
ATOM     10  C   UNL     1       6.412   1.905 -18.781  0.00  0.00    +0.000 C 
ATOM     11  H   UNL     1       5.720   1.863 -16.784  0.00  0.00    +0.000 HD
BRANCH   9  12
ATOM     12  O   UNL     1       4.154   2.224 -18.111  0.00  0.00    +0.000 OA
ATOM     13  H   UNL     1       4.039   3.166 -17.861  0.00  0.00    +0.000 HD
ENDBRANCH   9  12
ENDBRANCH   7  10
ENDBRANCH   4   6
BRANCH   1  15
ATOM     14  O   UNL     1      13.666   0.859 -20.730  0.00  0.00    +0.000 OA
ATOM     15  C   UNL     1      12.455   0.707 -20.569  0.00  0.00    +0.000 C 
BRANCH  15  16
ATOM     16  C   UNL     1      11.528   1.296 -21.556  0.00  0.00    +0.000 A 
ATOM     17  C   UNL     1       9.613   2.351 -23.353  0.00  0.00    +0.000 A 
ATOM     18  C   UNL     1      11.411   2.672 -21.725  0.00  0.00    +0.000 A 
ATOM     19  C   UNL     1      10.678   0.443 -22.255  0.00  0.00    +0.000 A 
ATOM     20  C   UNL     1      10.474   3.185 -22.622  0.00  0.00    +0.000 A 
ATOM     21  C   UNL     1       9.745   0.968 -23.149  0.00  0.00    +0.000 A 
BRANCH  17  22
ATOM     22  N   UNL     1       8.675   2.878 -24.276  0.00  0.00    +0.000 N 
ATOM     23  C   UNL     1       7.476   3.558 -23.816  0.00  0.00    +0.000 C 
ATOM     24  C   UNL     1       8.628   2.405 -25.650  0.00  0.00    +0.000 C 
ENDBRANCH  17  22
ENDBRANCH  15  16
ENDBRANCH   1  15
TORSDOF 6
ENDMDL
MODEL 9
REMARK VINA RESULT:      -5.3     16.251     18.452
REMARK  Name = Trichostatin_A.pdbqt.pdb
REMARK  6 active torsions:
REMARK  status: ('A' for Active; 'I' for Inactive)
REMARK    1  A    between atoms: C_1  and  C_15
REMARK    2  A    between atoms: C_4  and  C_6
REMARK    3  A    between atoms: C_7  and  C_10
REMARK    4  A    between atoms: N_9  and  O_12
REMARK    5  A    between atoms: C_15  and  C_16
REMARK    6  A    between atoms: C_17  and  N_22
REMARK                            x       y       z     vdW  Elec       q    Type
REMARK                         _______ _______ _______ _____ _____    ______ ____
ROOT
ATOM      1  C   UNL     1     -13.321   8.344  -6.400  0.00  0.00    +0.000 C 
ATOM      2  C   UNL     1     -14.773   8.013  -6.118  0.00  0.00    +0.000 C 
ATOM      3  C   UNL     1     -12.801   7.852  -7.622  0.00  0.00    +0.000 C 
ATOM      4  C   UNL     1     -12.276   7.422  -8.721  0.00  0.00    +0.000 C 
ATOM      5  C   UNL     1     -12.206   8.330  -9.910  0.00  0.00    +0.000 C 
ENDROOT
BRANCH   4   6
ATOM      6  C   UNL     1     -11.595   6.183  -8.744  0.00  0.00    +0.000 C 
ATOM      7  C   UNL     1     -11.020   5.127  -8.763  0.00  0.00    +0.000 C 
BRANCH   7  10
ATOM      8  O   UNL     1      -9.484   3.646  -9.653  0.00  0.00    +0.000 OA
ATOM      9  N   UNL     1     -10.679   2.965  -7.826  0.00  0.00    +0.000 N 
ATOM     10  C   UNL     1     -10.329   3.865  -8.793  0.00  0.00    +0.000 C 
ATOM     11  H   UNL     1     -11.380   3.127  -7.113  0.00  0.00    +0.000 HD
BRANCH   9  12
ATOM     12  O   UNL     1     -10.028   1.713  -7.831  0.00  0.00    +0.000 OA
ATOM     13  H   UNL     1      -9.165   1.914  -7.410  0.00  0.00    +0.000 HD
ENDBRANCH   9  12
ENDBRANCH   7  10
ENDBRANCH   4   6
BRANCH   1  15
ATOM     14  O   UNL     1     -11.567   9.769  -5.669  0.00  0.00    +0.000 OA
ATOM     15  C   UNL     1     -12.386   8.898  -5.375  0.00  0.00    +0.000 C 
BRANCH  15  16
ATOM     16  C   UNL     1     -12.439   8.415  -3.980  0.00  0.00    +0.000 A 
ATOM     17  C   UNL     1     -12.356   7.494  -1.305  0.00  0.00    +0.000 A 
ATOM     18  C   UNL     1     -13.023   9.165  -2.964  0.00  0.00    +0.000 A 
ATOM     19  C   UNL     1     -11.788   7.223  -3.669  0.00  0.00    +0.000 A 
ATOM     20  C   UNL     1     -12.989   8.699  -1.649  0.00  0.00    +0.000 A 
ATOM     21  C   UNL     1     -11.762   6.768  -2.350  0.00  0.00    +0.000 A 
BRANCH  17  22
ATOM     22  N   UNL     1     -12.341   7.019   0.030  0.00  0.00    +0.000 N 
ATOM     23  C   UNL     1     -13.457   6.255   0.564  0.00  0.00    +0.000 C 
ATOM     24  C   UNL     1     -11.467   7.614   1.028  0.00  0.00    +0.000 C 
ENDBRANCH  17  22
ENDBRANCH  15  16
ENDBRANCH   1  15
TORSDOF 6
ENDMDL
