MODEL 1
REMARK VINA RESULT:      -6.0      0.000      0.000
REMARK  Name = Trifluridine.pdbqt.pdb
REMARK  5 active torsions:
REMARK  status: ('A' for Active; 'I' for Inactive)
REMARK    1  A    between atoms: N_3  and  C1*_10
REMARK    2  A    between atoms: C_7  and  C_20
REMARK    3  A    between atoms: C4*_12  and  C5*_15
REMARK    4  A    between atoms: C3*_13  and  O3*_18
REMARK    5  A    between atoms: C5*_15  and  O5*_16
REMARK                            x       y       z     vdW  Elec       q    Type
REMARK                         _______ _______ _______ _____ _____    ______ ____
ROOT
ATOM      1  O   UNL     1       0.162   1.532 -19.669  0.00  0.00    +0.000 OA
ATOM      2  O   UNL     1      -4.177   1.498 -18.176  0.00  0.00    +0.000 OA
ATOM      3  N   UNL     1      -0.686  -0.483 -18.759  0.00  0.00    +0.000 N 
ATOM      4  N   UNL     1      -2.004   1.450 -18.913  0.00  0.00    +0.000 N 
ATOM      5  C   UNL     1      -1.808  -0.998 -18.218  0.00  0.00    +0.000 A 
ATOM      6  C   UNL     1      -0.737   0.871 -19.163  0.00  0.00    +0.000 A 
ATOM      7  C   UNL     1      -2.992  -0.556 -17.950  0.00  0.00    +0.000 A 
ATOM      8  C   UNL     1      -3.142   0.868 -18.340  0.00  0.00    +0.000 A 
ATOM      9  H   UNL     1      -2.092   2.420 -19.183  0.00  0.00    +0.000 HD
ENDROOT
BRANCH   3  10
ATOM     10  C1* UNL     1       0.419  -1.275 -18.879  0.00  0.00    +0.000 A 
ATOM     11  O4* UNL     1       0.350  -2.572 -19.400  0.00  0.00    +0.000 OA
ATOM     12  C4* UNL     1       1.647  -3.099 -19.354  0.00  0.00    +0.000 A 
ATOM     13  C3* UNL     1       2.537  -2.111 -18.798  0.00  0.00    +0.000 A 
ATOM     14  C2* UNL     1       1.745  -0.988 -18.502  0.00  0.00    +0.000 A 
BRANCH  13  15
ATOM     15  O3* UNL     1       3.640  -2.482 -18.082  0.00  0.00    +0.000 OA
ATOM     16  H3* UNL     1       4.263  -2.985 -18.635  0.00  0.00    +0.000 HD
ENDBRANCH  13  15
BRANCH  12  17
ATOM     17  C5* UNL     1       1.920  -4.458 -19.605  0.00  0.00    +0.000 C 
BRANCH  17  18
ATOM     18  O5* UNL     1       2.175  -5.742 -19.837  0.00  0.00    +0.000 OA
ATOM     19  H5* UNL     1       1.727  -6.298 -19.178  0.00  0.00    +0.000 HD
ENDBRANCH  17  18
ENDBRANCH  12  17
ENDBRANCH   3  10
BRANCH   7  20
ATOM     20  C   UNL     1      -4.134  -1.232 -17.321  0.00  0.00    +0.000 C 
ATOM     21  F   UNL     1      -4.534  -0.624 -16.176  0.00  0.00    +0.000 F 
ATOM     22  F   UNL     1      -5.222  -1.247 -18.140  0.00  0.00    +0.000 F 
ATOM     23  F   UNL     1      -3.871  -2.529 -17.023  0.00  0.00    +0.000 F 
ENDBRANCH   7  20
TORSDOF 5
ENDMDL
MODEL 2
REMARK VINA RESULT:      -5.7      2.222      3.795
REMARK  Name = Trifluridine.pdbqt.pdb
REMARK  5 active torsions:
REMARK  status: ('A' for Active; 'I' for Inactive)
REMARK    1  A    between atoms: N_3  and  C1*_10
REMARK    2  A    between atoms: C_7  and  C_20
REMARK    3  A    between atoms: C4*_12  and  C5*_15
REMARK    4  A    between atoms: C3*_13  and  O3*_18
REMARK    5  A    between atoms: C5*_15  and  O5*_16
REMARK                            x       y       z     vdW  Elec       q    Type
REMARK                         _______ _______ _______ _____ _____    ______ ____
ROOT
ATOM      1  O   UNL     1       0.585  -2.697 -20.186  0.00  0.00    +0.000 OA
ATOM      2  O   UNL     1      -3.691  -3.342 -18.652  0.00  0.00    +0.000 OA
ATOM      3  N   UNL     1      -0.472  -0.907 -19.050  0.00  0.00    +0.000 N 
ATOM      4  N   UNL     1      -1.551  -2.962 -19.388  0.00  0.00    +0.000 N 
ATOM      5  C   UNL     1      -1.632  -0.592 -18.442  0.00  0.00    +0.000 A 
ATOM      6  C   UNL     1      -0.370  -2.209 -19.594  0.00  0.00    +0.000 A 
ATOM      7  C   UNL     1      -2.749  -1.199 -18.211  0.00  0.00    +0.000 A 
ATOM      8  C   UNL     1      -2.738  -2.582 -18.750  0.00  0.00    +0.000 A 
ATOM      9  H   UNL     1      -1.530  -3.901 -19.760  0.00  0.00    +0.000 HD
ENDROOT
BRANCH   3  10
ATOM     10  C1* UNL     1       0.521   0.027 -19.115  0.00  0.00    +0.000 A 
ATOM     11  O4* UNL     1       1.727  -0.121 -18.420  0.00  0.00    +0.000 OA
ATOM     12  C4* UNL     1       2.494   1.020 -18.688  0.00  0.00    +0.000 A 
ATOM     13  C3* UNL     1       1.753   1.890 -19.567  0.00  0.00    +0.000 A 
ATOM     14  C2* UNL     1       0.524   1.252 -19.810  0.00  0.00    +0.000 A 
BRANCH  13  15
ATOM     15  O3* UNL     1       1.917   3.245 -19.517  0.00  0.00    +0.000 OA
ATOM     16  H3* UNL     1       1.059   3.702 -19.553  0.00  0.00    +0.000 HD
ENDBRANCH  13  15
BRANCH  12  17
ATOM     17  C5* UNL     1       3.683   1.312 -17.992  0.00  0.00    +0.000 C 
BRANCH  17  18
ATOM     18  O5* UNL     1       4.808   1.588 -17.339  0.00  0.00    +0.000 OA
ATOM     19  H5* UNL     1       4.695   1.417 -16.389  0.00  0.00    +0.000 HD
ENDBRANCH  17  18
ENDBRANCH  12  17
ENDBRANCH   3  10
BRANCH   7  20
ATOM     20  C   UNL     1      -3.968  -0.717 -17.547  0.00  0.00    +0.000 C 
ATOM     21  F   UNL     1      -3.826   0.534 -17.042  0.00  0.00    +0.000 F 
ATOM     22  F   UNL     1      -5.020  -0.658 -18.408  0.00  0.00    +0.000 F 
ATOM     23  F   UNL     1      -4.359  -1.525 -16.530  0.00  0.00    +0.000 F 
ENDBRANCH   7  20
TORSDOF 5
ENDMDL
MODEL 3
REMARK VINA RESULT:      -5.6      5.083      8.911
REMARK  Name = Trifluridine.pdbqt.pdb
REMARK  5 active torsions:
REMARK  status: ('A' for Active; 'I' for Inactive)
REMARK    1  A    between atoms: N_3  and  C1*_10
REMARK    2  A    between atoms: C_7  and  C_20
REMARK    3  A    between atoms: C4*_12  and  C5*_15
REMARK    4  A    between atoms: C3*_13  and  O3*_18
REMARK    5  A    between atoms: C5*_15  and  O5*_16
REMARK                            x       y       z     vdW  Elec       q    Type
REMARK                         _______ _______ _______ _____ _____    ______ ____
ROOT
ATOM      1  O   UNL     1      -7.452  -4.620 -19.284  0.00  0.00    +0.000 OA
ATOM      2  O   UNL     1      -3.165  -3.278 -18.348  0.00  0.00    +0.000 OA
ATOM      3  N   UNL     1      -7.111  -2.378 -18.602  0.00  0.00    +0.000 N 
ATOM      4  N   UNL     1      -5.329  -3.887 -18.810  0.00  0.00    +0.000 N 
ATOM      5  C   UNL     1      -6.129  -1.532 -18.236  0.00  0.00    +0.000 A 
ATOM      6  C   UNL     1      -6.726  -3.698 -18.932  0.00  0.00    +0.000 A 
ATOM      7  C   UNL     1      -4.847  -1.611 -18.092  0.00  0.00    +0.000 A 
ATOM      8  C   UNL     1      -4.346  -2.970 -18.416  0.00  0.00    +0.000 A 
ATOM      9  H   UNL     1      -5.002  -4.817 -19.033  0.00  0.00    +0.000 HD
ENDROOT
BRANCH   3  10
ATOM     10  C1* UNL     1      -8.400  -1.929 -18.629  0.00  0.00    +0.000 A 
ATOM     11  O4* UNL     1      -8.871  -1.082 -19.639  0.00  0.00    +0.000 OA
ATOM     12  C4* UNL     1     -10.212  -0.802 -19.343  0.00  0.00    +0.000 A 
ATOM     13  C3* UNL     1     -10.580  -1.490 -18.131  0.00  0.00    +0.000 A 
ATOM     14  C2* UNL     1      -9.431  -2.177 -17.702  0.00  0.00    +0.000 A 
BRANCH  13  15
ATOM     15  O3* UNL     1     -11.525  -0.974 -17.290  0.00  0.00    +0.000 OA
ATOM     16  H3* UNL     1     -11.215  -0.145 -16.884  0.00  0.00    +0.000 HD
ENDBRANCH  13  15
BRANCH  12  17
ATOM     17  C5* UNL     1     -10.946   0.185 -20.029  0.00  0.00    +0.000 C 
BRANCH  17  18
ATOM     18  O5* UNL     1     -11.638   1.120 -20.673  0.00  0.00    +0.000 OA
ATOM     19  H5* UNL     1     -11.207   1.333 -21.518  0.00  0.00    +0.000 HD
ENDBRANCH  17  18
ENDBRANCH  12  17
ENDBRANCH   3  10
BRANCH   7  20
ATOM     20  C   UNL     1      -3.880  -0.596 -17.651  0.00  0.00    +0.000 C 
ATOM     21  F   UNL     1      -2.620  -0.857 -18.079  0.00  0.00    +0.000 F 
ATOM     22  F   UNL     1      -4.194   0.639 -18.130  0.00  0.00    +0.000 F 
ATOM     23  F   UNL     1      -3.835  -0.475 -16.300  0.00  0.00    +0.000 F 
ENDBRANCH   7  20
TORSDOF 5
ENDMDL
MODEL 4
REMARK VINA RESULT:      -5.3      9.947     11.353
REMARK  Name = Trifluridine.pdbqt.pdb
REMARK  5 active torsions:
REMARK  status: ('A' for Active; 'I' for Inactive)
REMARK    1  A    between atoms: N_3  and  C1*_10
REMARK    2  A    between atoms: C_7  and  C_20
REMARK    3  A    between atoms: C4*_12  and  C5*_15
REMARK    4  A    between atoms: C3*_13  and  O3*_18
REMARK    5  A    between atoms: C5*_15  and  O5*_16
REMARK                            x       y       z     vdW  Elec       q    Type
REMARK                         _______ _______ _______ _____ _____    ______ ____
ROOT
ATOM      1  O   UNL     1     -11.867   0.382 -22.551  0.00  0.00    +0.000 OA
ATOM      2  O   UNL     1     -10.560   0.481 -18.153  0.00  0.00    +0.000 OA
ATOM      3  N   UNL     1     -11.281  -1.666 -21.518  0.00  0.00    +0.000 N 
ATOM      4  N   UNL     1     -11.213   0.366 -20.351  0.00  0.00    +0.000 N 
ATOM      5  C   UNL     1     -10.861  -2.162 -20.337  0.00  0.00    +0.000 A 
ATOM      6  C   UNL     1     -11.493  -0.270 -21.584  0.00  0.00    +0.000 A 
ATOM      7  C   UNL     1     -10.578  -1.670 -19.177  0.00  0.00    +0.000 A 
ATOM      8  C   UNL     1     -10.770  -0.199 -19.148  0.00  0.00    +0.000 A 
ATOM      9  H   UNL     1     -11.347   1.368 -20.346  0.00  0.00    +0.000 HD
ENDROOT
BRANCH   3  10
ATOM     10  C1* UNL     1     -11.469  -2.518 -22.568  0.00  0.00    +0.000 A 
ATOM     11  O4* UNL     1     -10.622  -2.523 -23.682  0.00  0.00    +0.000 OA
ATOM     12  C4* UNL     1     -11.118  -3.489 -24.567  0.00  0.00    +0.000 A 
ATOM     13  C3* UNL     1     -12.292  -4.096 -23.991  0.00  0.00    +0.000 A 
ATOM     14  C2* UNL     1     -12.495  -3.467 -22.750  0.00  0.00    +0.000 A 
BRANCH  13  15
ATOM     15  O3* UNL     1     -13.299  -4.570 -24.784  0.00  0.00    +0.000 OA
ATOM     16  H3* UNL     1     -13.104  -5.473 -25.093  0.00  0.00    +0.000 HD
ENDBRANCH  13  15
BRANCH  12  17
ATOM     17  C5* UNL     1     -10.638  -3.625 -25.884  0.00  0.00    +0.000 C 
BRANCH  17  18
ATOM     18  O5* UNL     1     -10.184  -3.747 -27.127  0.00  0.00    +0.000 OA
ATOM     19  H5* UNL     1      -9.234  -3.547 -27.159  0.00  0.00    +0.000 HD
ENDBRANCH  17  18
ENDBRANCH  12  17
ENDBRANCH   3  10
BRANCH   7  20
ATOM     20  C   UNL     1     -10.095  -2.336 -17.959  0.00  0.00    +0.000 C 
ATOM     21  F   UNL     1     -10.820  -2.004 -16.862  0.00  0.00    +0.000 F 
ATOM     22  F   UNL     1     -10.169  -3.691 -18.064  0.00  0.00    +0.000 F 
ATOM     23  F   UNL     1      -8.796  -2.050 -17.692  0.00  0.00    +0.000 F 
ENDBRANCH   7  20
TORSDOF 5
ENDMDL
MODEL 5
REMARK VINA RESULT:      -5.1      9.905     11.712
REMARK  Name = Trifluridine.pdbqt.pdb
REMARK  5 active torsions:
REMARK  status: ('A' for Active; 'I' for Inactive)
REMARK    1  A    between atoms: N_3  and  C1*_10
REMARK    2  A    between atoms: C_7  and  C_20
REMARK    3  A    between atoms: C4*_12  and  C5*_15
REMARK    4  A    between atoms: C3*_13  and  O3*_18
REMARK    5  A    between atoms: C5*_15  and  O5*_16
REMARK                            x       y       z     vdW  Elec       q    Type
REMARK                         _______ _______ _______ _____ _____    ______ ____
ROOT
ATOM      1  O   UNL     1     -11.991  -0.889 -23.029  0.00  0.00    +0.000 OA
ATOM      2  O   UNL     1     -10.646  -3.981 -19.917  0.00  0.00    +0.000 OA
ATOM      3  N   UNL     1     -11.273  -0.100 -20.915  0.00  0.00    +0.000 N 
ATOM      4  N   UNL     1     -11.298  -2.387 -21.434  0.00  0.00    +0.000 N 
ATOM      5  C   UNL     1     -10.810  -0.548 -19.731  0.00  0.00    +0.000 A 
ATOM      6  C   UNL     1     -11.561  -1.075 -21.897  0.00  0.00    +0.000 A 
ATOM      7  C   UNL     1     -10.545  -1.704 -19.221  0.00  0.00    +0.000 A 
ATOM      8  C   UNL     1     -10.820  -2.800 -20.184  0.00  0.00    +0.000 A 
ATOM      9  H   UNL     1     -11.490  -3.122 -22.099  0.00  0.00    +0.000 HD
ENDROOT
BRANCH   3  10
ATOM     10  C1* UNL     1     -11.444   1.242 -21.098  0.00  0.00    +0.000 A 
ATOM     11  O4* UNL     1     -10.610   1.989 -21.938  0.00  0.00    +0.000 OA
ATOM     12  C4* UNL     1     -11.048   3.318 -21.870  0.00  0.00    +0.000 A 
ATOM     13  C3* UNL     1     -12.175   3.397 -20.975  0.00  0.00    +0.000 A 
ATOM     14  C2* UNL     1     -12.395   2.091 -20.500  0.00  0.00    +0.000 A 
BRANCH  13  15
ATOM     15  O3* UNL     1     -12.418   4.528 -20.248  0.00  0.00    +0.000 OA
ATOM     16  H3* UNL     1     -12.605   4.312 -19.318  0.00  0.00    +0.000 HD
ENDBRANCH  13  15
BRANCH  12  17
ATOM     17  C5* UNL     1     -10.314   4.384 -22.425  0.00  0.00    +0.000 C 
BRANCH  17  18
ATOM     18  O5* UNL     1      -9.624   5.391 -22.953  0.00  0.00    +0.000 OA
ATOM     19  H5* UNL     1      -8.673   5.262 -22.801  0.00  0.00    +0.000 HD
ENDBRANCH  17  18
ENDBRANCH  12  17
ENDBRANCH   3  10
BRANCH   7  20
ATOM     20  C   UNL     1     -10.061  -2.058 -17.879  0.00  0.00    +0.000 C 
ATOM     21  F   UNL     1     -10.507  -3.271 -17.468  0.00  0.00    +0.000 F 
ATOM     22  F   UNL     1      -8.702  -2.122 -17.836  0.00  0.00    +0.000 F 
ATOM     23  F   UNL     1     -10.424  -1.150 -16.940  0.00  0.00    +0.000 F 
ENDBRANCH   7  20
TORSDOF 5
ENDMDL
MODEL 6
REMARK VINA RESULT:      -5.1      2.302      3.809
REMARK  Name = Trifluridine.pdbqt.pdb
REMARK  5 active torsions:
REMARK  status: ('A' for Active; 'I' for Inactive)
REMARK    1  A    between atoms: N_3  and  C1*_10
REMARK    2  A    between atoms: C_7  and  C_20
REMARK    3  A    between atoms: C4*_12  and  C5*_15
REMARK    4  A    between atoms: C3*_13  and  O3*_18
REMARK    5  A    between atoms: C5*_15  and  O5*_16
REMARK                            x       y       z     vdW  Elec       q    Type
REMARK                         _______ _______ _______ _____ _____    ______ ____
ROOT
ATOM      1  O   UNL     1       0.972  -3.498 -20.004  0.00  0.00    +0.000 OA
ATOM      2  O   UNL     1      -3.507  -2.523 -19.801  0.00  0.00    +0.000 OA
ATOM      3  N   UNL     1       0.321  -1.462 -18.985  0.00  0.00    +0.000 N 
ATOM      4  N   UNL     1      -1.255  -2.959 -19.865  0.00  0.00    +0.000 N 
ATOM      5  C   UNL     1      -0.780  -0.745 -18.685  0.00  0.00    +0.000 A 
ATOM      6  C   UNL     1       0.118  -2.698 -19.641  0.00  0.00    +0.000 A 
ATOM      7  C   UNL     1      -2.052  -0.894 -18.850  0.00  0.00    +0.000 A 
ATOM      8  C   UNL     1      -2.366  -2.172 -19.536  0.00  0.00    +0.000 A 
ATOM      9  H   UNL     1      -1.454  -3.832 -20.333  0.00  0.00    +0.000 HD
ENDROOT
BRANCH   3  10
ATOM     10  C1* UNL     1       1.549  -0.965 -18.655  0.00  0.00    +0.000 A 
ATOM     11  O4* UNL     1       1.768   0.402 -18.454  0.00  0.00    +0.000 OA
ATOM     12  C4* UNL     1       3.129   0.558 -18.160  0.00  0.00    +0.000 A 
ATOM     13  C3* UNL     1       3.765  -0.735 -18.176  0.00  0.00    +0.000 A 
ATOM     14  C2* UNL     1       2.761  -1.666 -18.496  0.00  0.00    +0.000 A 
BRANCH  13  15
ATOM     15  O3* UNL     1       5.077  -0.869 -18.534  0.00  0.00    +0.000 OA
ATOM     16  H3* UNL     1       5.595  -1.274 -17.817  0.00  0.00    +0.000 HD
ENDBRANCH  13  15
BRANCH  12  17
ATOM     17  C5* UNL     1       3.750   1.821 -18.105  0.00  0.00    +0.000 C 
BRANCH  17  18
ATOM     18  O5* UNL     1       4.337   3.013 -18.046  0.00  0.00    +0.000 OA
ATOM     19  H5* UNL     1       4.193   3.416 -17.174  0.00  0.00    +0.000 HD
ENDBRANCH  17  18
ENDBRANCH  12  17
ENDBRANCH   3  10
BRANCH   7  20
ATOM     20  C   UNL     1      -3.163  -0.002 -18.491  0.00  0.00    +0.000 C 
ATOM     21  F   UNL     1      -2.739   1.171 -17.960  0.00  0.00    +0.000 F 
ATOM     22  F   UNL     1      -3.915   0.326 -19.578  0.00  0.00    +0.000 F 
ATOM     23  F   UNL     1      -4.017  -0.568 -17.601  0.00  0.00    +0.000 F 
ENDBRANCH   7  20
TORSDOF 5
ENDMDL
MODEL 7
REMARK VINA RESULT:      -5.1      2.118      3.227
REMARK  Name = Trifluridine.pdbqt.pdb
REMARK  5 active torsions:
REMARK  status: ('A' for Active; 'I' for Inactive)
REMARK    1  A    between atoms: N_3  and  C1*_10
REMARK    2  A    between atoms: C_7  and  C_20
REMARK    3  A    between atoms: C4*_12  and  C5*_15
REMARK    4  A    between atoms: C3*_13  and  O3*_18
REMARK    5  A    between atoms: C5*_15  and  O5*_16
REMARK                            x       y       z     vdW  Elec       q    Type
REMARK                         _______ _______ _______ _____ _____    ______ ____
ROOT
ATOM      1  O   UNL     1       0.529  -0.023 -21.856  0.00  0.00    +0.000 OA
ATOM      2  O   UNL     1      -3.954   0.516 -21.030  0.00  0.00    +0.000 OA
ATOM      3  N   UNL     1      -0.210  -0.130 -19.608  0.00  0.00    +0.000 N 
ATOM      4  N   UNL     1      -1.703   0.231 -21.380  0.00  0.00    +0.000 N 
ATOM      5  C   UNL     1      -1.334  -0.046 -18.869  0.00  0.00    +0.000 A 
ATOM      6  C   UNL     1      -0.355   0.016 -21.007  0.00  0.00    +0.000 A 
ATOM      7  C   UNL     1      -2.588   0.149 -19.113  0.00  0.00    +0.000 A 
ATOM      8  C   UNL     1      -2.840   0.316 -20.566  0.00  0.00    +0.000 A 
ATOM      9  H   UNL     1      -1.860   0.343 -22.372  0.00  0.00    +0.000 HD
ENDROOT
BRANCH   3  10
ATOM     10  C1* UNL     1       0.984  -0.341 -18.981  0.00  0.00    +0.000 A 
ATOM     11  O4* UNL     1       1.811   0.716 -18.583  0.00  0.00    +0.000 OA
ATOM     12  C4* UNL     1       2.952   0.145 -18.005  0.00  0.00    +0.000 A 
ATOM     13  C3* UNL     1       2.830  -1.290 -18.041  0.00  0.00    +0.000 A 
ATOM     14  C2* UNL     1       1.599  -1.567 -18.663  0.00  0.00    +0.000 A 
BRANCH  13  15
ATOM     15  O3* UNL     1       3.935  -2.087 -18.140  0.00  0.00    +0.000 OA
ATOM     16  H3* UNL     1       4.315  -2.048 -19.035  0.00  0.00    +0.000 HD
ENDBRANCH  13  15
BRANCH  12  17
ATOM     17  C5* UNL     1       4.093   0.903 -17.679  0.00  0.00    +0.000 C 
BRANCH  17  18
ATOM     18  O5* UNL     1       5.173   1.616 -17.375  0.00  0.00    +0.000 OA
ATOM     19  H5* UNL     1       5.062   2.040 -16.507  0.00  0.00    +0.000 HD
ENDBRANCH  17  18
ENDBRANCH  12  17
ENDBRANCH   3  10
BRANCH   7  20
ATOM     20  C   UNL     1      -3.727   0.247 -18.190  0.00  0.00    +0.000 C 
ATOM     21  F   UNL     1      -4.687  -0.676 -18.448  0.00  0.00    +0.000 F 
ATOM     22  F   UNL     1      -3.346   0.045 -16.899  0.00  0.00    +0.000 F 
ATOM     23  F   UNL     1      -4.317   1.468 -18.221  0.00  0.00    +0.000 F 
ENDBRANCH   7  20
TORSDOF 5
ENDMDL
MODEL 8
REMARK VINA RESULT:      -5.0      4.292      5.007
REMARK  Name = Trifluridine.pdbqt.pdb
REMARK  5 active torsions:
REMARK  status: ('A' for Active; 'I' for Inactive)
REMARK    1  A    between atoms: N_3  and  C1*_10
REMARK    2  A    between atoms: C_7  and  C_20
REMARK    3  A    between atoms: C4*_12  and  C5*_15
REMARK    4  A    between atoms: C3*_13  and  O3*_18
REMARK    5  A    between atoms: C5*_15  and  O5*_16
REMARK                            x       y       z     vdW  Elec       q    Type
REMARK                         _______ _______ _______ _____ _____    ______ ____
ROOT
ATOM      1  O   UNL     1      -3.827   2.980 -22.298  0.00  0.00    +0.000 OA
ATOM      2  O   UNL     1      -5.741  -0.260 -19.670  0.00  0.00    +0.000 OA
ATOM      3  N   UNL     1      -2.504   2.003 -20.593  0.00  0.00    +0.000 N 
ATOM      4  N   UNL     1      -4.726   1.348 -20.957  0.00  0.00    +0.000 N 
ATOM      5  C   UNL     1      -2.570   1.078 -19.615  0.00  0.00    +0.000 A 
ATOM      6  C   UNL     1      -3.670   2.195 -21.370  0.00  0.00    +0.000 A 
ATOM      7  C   UNL     1      -3.474   0.272 -19.166  0.00  0.00    +0.000 A 
ATOM      8  C   UNL     1      -4.745   0.403 -19.923  0.00  0.00    +0.000 A 
ATOM      9  H   UNL     1      -5.584   1.448 -21.480  0.00  0.00    +0.000 HD
ENDROOT
BRANCH   3  10
ATOM     10  C1* UNL     1      -1.342   2.696 -20.776  0.00  0.00    +0.000 A 
ATOM     11  O4* UNL     1      -0.575   2.567 -21.940  0.00  0.00    +0.000 OA
ATOM     12  C4* UNL     1       0.548   3.389 -21.781  0.00  0.00    +0.000 A 
ATOM     13  C3* UNL     1       0.476   4.042 -20.498  0.00  0.00    +0.000 A 
ATOM     14  C2* UNL     1      -0.707   3.585 -19.888  0.00  0.00    +0.000 A 
BRANCH  13  15
ATOM     15  O3* UNL     1       1.610   4.377 -19.815  0.00  0.00    +0.000 OA
ATOM     16  H3* UNL     1       1.924   5.262 -20.073  0.00  0.00    +0.000 HD
ENDBRANCH  13  15
BRANCH  12  17
ATOM     17  C5* UNL     1       1.643   3.351 -22.666  0.00  0.00    +0.000 C 
BRANCH  17  18
ATOM     18  O5* UNL     1       2.673   3.318 -23.505  0.00  0.00    +0.000 OA
ATOM     19  H5* UNL     1       3.508   3.400 -23.016  0.00  0.00    +0.000 HD
ENDBRANCH  17  18
ENDBRANCH  12  17
ENDBRANCH   3  10
BRANCH   7  20
ATOM     20  C   UNL     1      -3.420  -0.684 -18.052  0.00  0.00    +0.000 C 
ATOM     21  F   UNL     1      -2.155  -0.900 -17.612  0.00  0.00    +0.000 F 
ATOM     22  F   UNL     1      -4.122  -0.238 -16.973  0.00  0.00    +0.000 F 
ATOM     23  F   UNL     1      -3.952  -1.889 -18.374  0.00  0.00    +0.000 F 
ENDBRANCH   7  20
TORSDOF 5
ENDMDL
MODEL 9
REMARK VINA RESULT:      -4.9     19.923     21.094
REMARK  Name = Trifluridine.pdbqt.pdb
REMARK  5 active torsions:
REMARK  status: ('A' for Active; 'I' for Inactive)
REMARK    1  A    between atoms: N_3  and  C1*_10
REMARK    2  A    between atoms: C_7  and  C_20
REMARK    3  A    between atoms: C4*_12  and  C5*_15
REMARK    4  A    between atoms: C3*_13  and  O3*_18
REMARK    5  A    between atoms: C5*_15  and  O5*_16
REMARK                            x       y       z     vdW  Elec       q    Type
REMARK                         _______ _______ _______ _____ _____    ______ ____
ROOT
ATOM      1  O   UNL     1       5.778   1.973   2.960  0.00  0.00    +0.000 OA
ATOM      2  O   UNL     1       8.575   3.794  -0.190  0.00  0.00    +0.000 OA
ATOM      3  N   UNL     1       4.799   3.039   1.085  0.00  0.00    +0.000 N 
ATOM      4  N   UNL     1       7.125   2.895   1.346  0.00  0.00    +0.000 N 
ATOM      5  C   UNL     1       5.138   3.687  -0.047  0.00  0.00    +0.000 A 
ATOM      6  C   UNL     1       5.861   2.577   1.897  0.00  0.00    +0.000 A 
ATOM      7  C   UNL     1       6.244   4.025  -0.623  0.00  0.00    +0.000 A 
ATOM      8  C   UNL     1       7.423   3.581   0.162  0.00  0.00    +0.000 A 
ATOM      9  H   UNL     1       7.919   2.588   1.891  0.00  0.00    +0.000 HD
ENDROOT
BRANCH   3  10
ATOM     10  C1* UNL     1       3.478   2.871   1.386  0.00  0.00    +0.000 A 
ATOM     11  O4* UNL     1       2.641   2.049   0.624  0.00  0.00    +0.000 OA
ATOM     12  C4* UNL     1       1.363   2.129   1.192  0.00  0.00    +0.000 A 
ATOM     13  C3* UNL     1       1.409   3.014   2.329  0.00  0.00    +0.000 A 
ATOM     14  C2* UNL     1       2.736   3.470   2.423  0.00  0.00    +0.000 A 
BRANCH  13  15
ATOM     15  O3* UNL     1       0.317   3.752   2.689  0.00  0.00    +0.000 OA
ATOM     16  H3* UNL     1      -0.064   3.428   3.524  0.00  0.00    +0.000 HD
ENDBRANCH  13  15
BRANCH  12  17
ATOM     17  C5* UNL     1       0.222   1.595   0.563  0.00  0.00    +0.000 C 
BRANCH  17  18
ATOM     18  O5* UNL     1      -0.857   1.096  -0.032  0.00  0.00    +0.000 OA
ATOM     19  H5* UNL     1      -1.109   1.650  -0.790  0.00  0.00    +0.000 HD
ENDBRANCH  17  18
ENDBRANCH  12  17
ENDBRANCH   3  10
BRANCH   7  20
ATOM     20  C   UNL     1       6.473   4.770  -1.868  0.00  0.00    +0.000 C 
ATOM     21  F   UNL     1       7.136   4.039  -2.798  0.00  0.00    +0.000 F 
ATOM     22  F   UNL     1       5.301   5.147  -2.451  0.00  0.00    +0.000 F 
ATOM     23  F   UNL     1       7.177   5.912  -1.668  0.00  0.00    +0.000 F 
ENDBRANCH   7  20
TORSDOF 5
ENDMDL
