MODEL 1
REMARK VINA RESULT:      -7.6      0.000      0.000
REMARK  Name = Troglitazone.pdbqt.pdb
REMARK  4 active torsions:
REMARK  status: ('A' for Active; 'I' for Inactive)
REMARK    1  A    between atoms: C_1  and  O_2
REMARK    2  A    between atoms: C_1  and  C_18
REMARK    3  A    between atoms: O_2  and  C_3
REMARK    4  A    between atoms: C_26  and  O_32
REMARK                            x       y       z     vdW  Elec       q    Type
REMARK                         _______ _______ _______ _____ _____    ______ ____
ROOT
ATOM      1  C   UNL     1       6.057  -1.940 -19.410  0.00  0.00    +0.000 C 
ENDROOT
BRANCH   1   2
ATOM      2  C   UNL     1       6.915  -1.479 -20.515  0.00  0.00    +0.000 C 
ATOM      3  O   UNL     1       8.034  -0.734 -19.913  0.00  0.00    +0.000 OA
ATOM      4  C   UNL     1       8.648   0.367 -20.524  0.00  0.00    +0.000 A 
ATOM      5  C   UNL     1       8.036   1.157 -21.541  0.00  0.00    +0.000 A 
ATOM      6  C   UNL     1       9.924   0.729 -20.046  0.00  0.00    +0.000 A 
ATOM      7  C   UNL     1       6.747   0.711 -21.933  0.00  0.00    +0.000 C 
ATOM      8  C   UNL     1       8.685   2.267 -22.094  0.00  0.00    +0.000 A 
ATOM      9  C   UNL     1       6.206  -0.579 -21.416  0.00  0.00    +0.000 C 
ATOM     10  C   UNL     1       9.963   2.607 -21.624  0.00  0.00    +0.000 A 
ATOM     11  C   UNL     1       8.013   3.089 -23.173  0.00  0.00    +0.000 C 
ATOM     12  C   UNL     1      10.579   1.848 -20.607  0.00  0.00    +0.000 A 
ATOM     13  C   UNL     1      11.963   2.322 -20.164  0.00  0.00    +0.000 C 
ATOM     14  C   UNL     1      10.549  -0.091 -18.924  0.00  0.00    +0.000 C 
ATOM     15  C   UNL     1       7.536  -2.669 -21.289  0.00  0.00    +0.000 C 
BRANCH  10  16
ATOM     16  O   UNL     1      10.627   3.702 -22.153  0.00  0.00    +0.000 OA
ATOM     17  H   UNL     1      11.517   3.409 -22.447  0.00  0.00    +0.000 HD
ENDBRANCH  10  16
ENDBRANCH   1   2
BRANCH   1  18
ATOM     18  O   UNL     1       5.282  -2.348 -18.404  0.00  0.00    +0.000 OA
BRANCH  18  19
ATOM     19  C   UNL     1       3.993  -1.878 -18.447  0.00  0.00    +0.000 C 
ATOM     20  C   UNL     1       3.605  -0.596 -18.051  0.00  0.00    +0.000 C 
ATOM     21  C   UNL     1       2.270  -0.208 -18.139  0.00  0.00    +0.000 C 
ATOM     22  C   UNL     1       1.320  -1.103 -18.622  0.00  0.00    +0.000 C 
ATOM     23  C   UNL     1       1.700  -2.384 -19.018  0.00  0.00    +0.000 C 
ATOM     24  C   UNL     1       3.036  -2.769 -18.931  0.00  0.00    +0.000 C 
ATOM     25  C   UNL     1      -0.046  -0.708 -18.713  0.00  0.00    +0.000 C 
ATOM     26  C   UNL     1      -1.403  -0.325 -18.799  0.00  0.00    +0.000 C 
ATOM     27  S   UNL     1      -1.960   1.227 -19.297  0.00  0.00    +0.000 S 
ATOM     28  C   UNL     1      -3.638   0.761 -19.105  0.00  0.00    +0.000 C 
ATOM     29  O   UNL     1      -4.585   1.495 -19.333  0.00  0.00    +0.000 OA
ATOM     30  N   UNL     1      -3.713  -0.523 -18.673  0.00  0.00    +0.000 N 
ATOM     31  C   UNL     1      -2.548  -1.205 -18.484  0.00  0.00    +0.000 C 
ATOM     32  H   UNL     1      -4.606  -0.961 -18.512  0.00  0.00    +0.000 HD
ATOM     33  O   UNL     1      -2.470  -2.364 -18.115  0.00  0.00    +0.000 OA
ENDBRANCH  18  19
ENDBRANCH   1  18
TORSDOF 4
ENDMDL
MODEL 2
REMARK VINA RESULT:      -7.4      2.929      5.065
REMARK  Name = Troglitazone.pdbqt.pdb
REMARK  4 active torsions:
REMARK  status: ('A' for Active; 'I' for Inactive)
REMARK    1  A    between atoms: C_1  and  O_2
REMARK    2  A    between atoms: C_1  and  C_18
REMARK    3  A    between atoms: O_2  and  C_3
REMARK    4  A    between atoms: C_26  and  O_32
REMARK                            x       y       z     vdW  Elec       q    Type
REMARK                         _______ _______ _______ _____ _____    ______ ____
ROOT
ATOM      1  C   UNL     1       7.186   2.290 -18.622  0.00  0.00    +0.000 C 
ENDROOT
BRANCH   1   2
ATOM      2  C   UNL     1       8.613   1.939 -18.720  0.00  0.00    +0.000 C 
ATOM      3  O   UNL     1       8.686   0.487 -18.961  0.00  0.00    +0.000 OA
ATOM      4  C   UNL     1       9.717  -0.326 -18.474  0.00  0.00    +0.000 A 
ATOM      5  C   UNL     1      10.553   0.021 -17.372  0.00  0.00    +0.000 A 
ATOM      6  C   UNL     1       9.880  -1.584 -19.091  0.00  0.00    +0.000 A 
ATOM      7  C   UNL     1      10.290   1.301 -16.818  0.00  0.00    +0.000 C 
ATOM      8  C   UNL     1      11.549  -0.847 -16.908  0.00  0.00    +0.000 A 
ATOM      9  C   UNL     1       9.330   2.228 -17.484  0.00  0.00    +0.000 C 
ATOM     10  C   UNL     1      11.714  -2.088 -17.542  0.00  0.00    +0.000 A 
ATOM     11  C   UNL     1      12.422  -0.453 -15.735  0.00  0.00    +0.000 C 
ATOM     12  C   UNL     1      10.887  -2.457 -18.624  0.00  0.00    +0.000 A 
ATOM     13  C   UNL     1      11.148  -3.838 -19.224  0.00  0.00    +0.000 C 
ATOM     14  C   UNL     1       8.950  -1.966 -20.236  0.00  0.00    +0.000 C 
ATOM     15  C   UNL     1       9.287   2.628 -19.931  0.00  0.00    +0.000 C 
BRANCH  10  16
ATOM     16  O   UNL     1      12.691  -2.966 -17.100  0.00  0.00    +0.000 OA
ATOM     17  H   UNL     1      13.545  -2.705 -17.509  0.00  0.00    +0.000 HD
ENDBRANCH  10  16
ENDBRANCH   1   2
BRANCH   1  18
ATOM     18  O   UNL     1       5.891   2.598 -18.529  0.00  0.00    +0.000 OA
BRANCH  18  19
ATOM     19  C   UNL     1       5.035   1.544 -18.735  0.00  0.00    +0.000 C 
ATOM     20  C   UNL     1       5.277   0.491 -19.620  0.00  0.00    +0.000 C 
ATOM     21  C   UNL     1       4.349  -0.538 -19.756  0.00  0.00    +0.000 C 
ATOM     22  C   UNL     1       3.176  -0.517 -19.007  0.00  0.00    +0.000 C 
ATOM     23  C   UNL     1       2.929   0.531 -18.123  0.00  0.00    +0.000 C 
ATOM     24  C   UNL     1       3.859   1.560 -17.987  0.00  0.00    +0.000 C 
ATOM     25  C   UNL     1       2.227  -1.569 -19.143  0.00  0.00    +0.000 C 
ATOM     26  C   UNL     1       1.277  -2.606 -19.280  0.00  0.00    +0.000 C 
ATOM     27  S   UNL     1       1.660  -4.276 -19.458  0.00  0.00    +0.000 S 
ATOM     28  C   UNL     1      -0.033  -4.725 -19.533  0.00  0.00    +0.000 C 
ATOM     29  O   UNL     1      -0.435  -5.870 -19.656  0.00  0.00    +0.000 OA
ATOM     30  N   UNL     1      -0.809  -3.617 -19.428  0.00  0.00    +0.000 N 
ATOM     31  C   UNL     1      -0.188  -2.412 -19.279  0.00  0.00    +0.000 C 
ATOM     32  H   UNL     1      -1.814  -3.687 -19.447  0.00  0.00    +0.000 HD
ATOM     33  O   UNL     1      -0.761  -1.343 -19.159  0.00  0.00    +0.000 OA
ENDBRANCH  18  19
ENDBRANCH   1  18
TORSDOF 4
ENDMDL
MODEL 3
REMARK VINA RESULT:      -7.3      1.748      2.313
REMARK  Name = Troglitazone.pdbqt.pdb
REMARK  4 active torsions:
REMARK  status: ('A' for Active; 'I' for Inactive)
REMARK    1  A    between atoms: C_1  and  O_2
REMARK    2  A    between atoms: C_1  and  C_18
REMARK    3  A    between atoms: O_2  and  C_3
REMARK    4  A    between atoms: C_26  and  O_32
REMARK                            x       y       z     vdW  Elec       q    Type
REMARK                         _______ _______ _______ _____ _____    ______ ____
ROOT
ATOM      1  C   UNL     1       5.627  -0.958 -19.122  0.00  0.00    +0.000 C 
ENDROOT
BRANCH   1   2
ATOM      2  C   UNL     1       6.462   0.168 -19.574  0.00  0.00    +0.000 C 
ATOM      3  O   UNL     1       7.811  -0.367 -19.828  0.00  0.00    +0.000 OA
ATOM      4  C   UNL     1       8.985   0.365 -19.617  0.00  0.00    +0.000 A 
ATOM      5  C   UNL     1       9.073   1.501 -18.758  0.00  0.00    +0.000 A 
ATOM      6  C   UNL     1      10.151  -0.104 -20.257  0.00  0.00    +0.000 A 
ATOM      7  C   UNL     1       7.844   1.873 -18.153  0.00  0.00    +0.000 C 
ATOM      8  C   UNL     1      10.283   2.175 -18.559  0.00  0.00    +0.000 A 
ATOM      9  C   UNL     1       6.573   1.206 -18.557  0.00  0.00    +0.000 C 
ATOM     10  C   UNL     1      11.433   1.711 -19.216  0.00  0.00    +0.000 A 
ATOM     11  C   UNL     1      10.348   3.378 -17.642  0.00  0.00    +0.000 C 
ATOM     12  C   UNL     1      11.371   0.580 -20.058  0.00  0.00    +0.000 A 
ATOM     13  C   UNL     1      12.689   0.156 -20.706  0.00  0.00    +0.000 C 
ATOM     14  C   UNL     1      10.059  -1.347 -21.133  0.00  0.00    +0.000 C 
ATOM     15  C   UNL     1       5.953   0.752 -20.915  0.00  0.00    +0.000 C 
BRANCH  10  16
ATOM     16  O   UNL     1      12.644   2.360 -19.035  0.00  0.00    +0.000 OA
ATOM     17  H   UNL     1      12.873   2.820 -19.872  0.00  0.00    +0.000 HD
ENDBRANCH  10  16
ENDBRANCH   1   2
BRANCH   1  18
ATOM     18  O   UNL     1       4.873  -1.975 -18.701  0.00  0.00    +0.000 OA
BRANCH  18  19
ATOM     19  C   UNL     1       3.521  -1.741 -18.745  0.00  0.00    +0.000 C 
ATOM     20  C   UNL     1       2.921  -0.515 -18.450  0.00  0.00    +0.000 C 
ATOM     21  C   UNL     1       1.537  -0.373 -18.529  0.00  0.00    +0.000 C 
ATOM     22  C   UNL     1       0.751  -1.459 -18.903  0.00  0.00    +0.000 C 
ATOM     23  C   UNL     1       1.343  -2.685 -19.199  0.00  0.00    +0.000 C 
ATOM     24  C   UNL     1       2.727  -2.825 -19.121  0.00  0.00    +0.000 C 
ATOM     25  C   UNL     1      -0.664  -1.316 -18.987  0.00  0.00    +0.000 C 
ATOM     26  C   UNL     1      -2.068  -1.184 -19.063  0.00  0.00    +0.000 C 
ATOM     27  S   UNL     1      -2.896   0.197 -19.676  0.00  0.00    +0.000 S 
ATOM     28  C   UNL     1      -4.464  -0.532 -19.392  0.00  0.00    +0.000 C 
ATOM     29  O   UNL     1      -5.528   0.002 -19.653  0.00  0.00    +0.000 OA
ATOM     30  N   UNL     1      -4.306  -1.766 -18.849  0.00  0.00    +0.000 N 
ATOM     31  C   UNL     1      -3.037  -2.216 -18.638  0.00  0.00    +0.000 C 
ATOM     32  H   UNL     1      -5.106  -2.336 -18.623  0.00  0.00    +0.000 HD
ATOM     33  O   UNL     1      -2.751  -3.307 -18.173  0.00  0.00    +0.000 OA
ENDBRANCH  18  19
ENDBRANCH   1  18
TORSDOF 4
ENDMDL
MODEL 4
REMARK VINA RESULT:      -7.1     21.311     25.356
REMARK  Name = Troglitazone.pdbqt.pdb
REMARK  4 active torsions:
REMARK  status: ('A' for Active; 'I' for Inactive)
REMARK    1  A    between atoms: C_1  and  O_2
REMARK    2  A    between atoms: C_1  and  C_18
REMARK    3  A    between atoms: O_2  and  C_3
REMARK    4  A    between atoms: C_26  and  O_32
REMARK                            x       y       z     vdW  Elec       q    Type
REMARK                         _______ _______ _______ _____ _____    ______ ____
ROOT
ATOM      1  C   UNL     1     -14.605  12.282  -6.263  0.00  0.00    +0.000 C 
ENDROOT
BRANCH   1   2
ATOM      2  C   UNL     1     -14.695  10.934  -6.850  0.00  0.00    +0.000 C 
ATOM      3  O   UNL     1     -13.408  10.264  -6.595  0.00  0.00    +0.000 OA
ATOM      4  C   UNL     1     -12.829   9.341  -7.474  0.00  0.00    +0.000 A 
ATOM      5  C   UNL     1     -13.151   9.251  -8.861  0.00  0.00    +0.000 A 
ATOM      6  C   UNL     1     -11.829   8.499  -6.945  0.00  0.00    +0.000 A 
ATOM      7  C   UNL     1     -14.158  10.155  -9.288  0.00  0.00    +0.000 C 
ATOM      8  C   UNL     1     -12.517   8.328  -9.700  0.00  0.00    +0.000 A 
ATOM      9  C   UNL     1     -14.902  10.980  -8.292  0.00  0.00    +0.000 C 
ATOM     10  C   UNL     1     -11.536   7.482  -9.159  0.00  0.00    +0.000 A 
ATOM     11  C   UNL     1     -12.878   8.253 -11.169  0.00  0.00    +0.000 C 
ATOM     12  C   UNL     1     -11.192   7.566  -7.793  0.00  0.00    +0.000 A 
ATOM     13  C   UNL     1     -10.099   6.608  -7.319  0.00  0.00    +0.000 C 
ATOM     14  C   UNL     1     -11.456   8.637  -5.474  0.00  0.00    +0.000 C 
ATOM     15  C   UNL     1     -15.787  10.082  -6.157  0.00  0.00    +0.000 C 
BRANCH  10  16
ATOM     16  O   UNL     1     -10.892   6.562  -9.968  0.00  0.00    +0.000 OA
ATOM     17  H   UNL     1     -11.202   6.695 -10.891  0.00  0.00    +0.000 HD
ENDBRANCH  10  16
ENDBRANCH   1   2
BRANCH   1  18
ATOM     18  O   UNL     1     -14.525  13.507  -5.742  0.00  0.00    +0.000 OA
BRANCH  18  19
ATOM     19  C   UNL     1     -13.246  13.983  -5.589  0.00  0.00    +0.000 C 
ATOM     20  C   UNL     1     -12.796  15.212  -6.076  0.00  0.00    +0.000 C 
ATOM     21  C   UNL     1     -11.479  15.611  -5.864  0.00  0.00    +0.000 C 
ATOM     22  C   UNL     1     -10.608  14.780  -5.165  0.00  0.00    +0.000 C 
ATOM     23  C   UNL     1     -11.050  13.552  -4.677  0.00  0.00    +0.000 C 
ATOM     24  C   UNL     1     -12.369  13.155  -4.889  0.00  0.00    +0.000 C 
ATOM     25  C   UNL     1      -9.261  15.186  -4.946  0.00  0.00    +0.000 C 
ATOM     26  C   UNL     1      -7.920  15.580  -4.732  0.00  0.00    +0.000 C 
ATOM     27  S   UNL     1      -7.413  17.180  -4.347  0.00  0.00    +0.000 S 
ATOM     28  C   UNL     1      -5.729  16.700  -4.271  0.00  0.00    +0.000 C 
ATOM     29  O   UNL     1      -4.810  17.457  -4.009  0.00  0.00    +0.000 OA
ATOM     30  N   UNL     1      -5.615  15.375  -4.539  0.00  0.00    +0.000 N 
ATOM     31  C   UNL     1      -6.755  14.673  -4.796  0.00  0.00    +0.000 C 
ATOM     32  H   UNL     1      -4.715  14.923  -4.535  0.00  0.00    +0.000 HD
ATOM     33  O   UNL     1      -6.800  13.478  -5.038  0.00  0.00    +0.000 OA
ENDBRANCH  18  19
ENDBRANCH   1  18
TORSDOF 4
ENDMDL
MODEL 5
REMARK VINA RESULT:      -7.0      3.540      5.626
REMARK  Name = Troglitazone.pdbqt.pdb
REMARK  4 active torsions:
REMARK  status: ('A' for Active; 'I' for Inactive)
REMARK    1  A    between atoms: C_1  and  O_2
REMARK    2  A    between atoms: C_1  and  C_18
REMARK    3  A    between atoms: O_2  and  C_3
REMARK    4  A    between atoms: C_26  and  O_32
REMARK                            x       y       z     vdW  Elec       q    Type
REMARK                         _______ _______ _______ _____ _____    ______ ____
ROOT
ATOM      1  C   UNL     1       8.341   2.360 -21.197  0.00  0.00    +0.000 C 
ENDROOT
BRANCH   1   2
ATOM      2  C   UNL     1       9.568   2.373 -20.382  0.00  0.00    +0.000 C 
ATOM      3  O   UNL     1       9.866   0.976 -20.024  0.00  0.00    +0.000 OA
ATOM      4  C   UNL     1      10.458   0.597 -18.813  0.00  0.00    +0.000 A 
ATOM      5  C   UNL     1      10.453   1.403 -17.637  0.00  0.00    +0.000 A 
ATOM      6  C   UNL     1      11.038  -0.688 -18.763  0.00  0.00    +0.000 A 
ATOM      7  C   UNL     1       9.829   2.668 -17.797  0.00  0.00    +0.000 C 
ATOM      8  C   UNL     1      11.034   0.959 -16.443  0.00  0.00    +0.000 A 
ATOM      9  C   UNL     1       9.393   3.128 -19.147  0.00  0.00    +0.000 C 
ATOM     10  C   UNL     1      11.624  -0.314 -16.410  0.00  0.00    +0.000 A 
ATOM     11  C   UNL     1      11.014   1.835 -15.209  0.00  0.00    +0.000 C 
ATOM     12  C   UNL     1      11.626  -1.134 -17.559  0.00  0.00    +0.000 A 
ATOM     13  C   UNL     1      12.283  -2.505 -17.400  0.00  0.00    +0.000 C 
ATOM     14  C   UNL     1      10.995  -1.562 -20.011  0.00  0.00    +0.000 C 
ATOM     15  C   UNL     1      10.783   2.897 -21.188  0.00  0.00    +0.000 C 
BRANCH  10  16
ATOM     16  O   UNL     1      12.205  -0.778 -15.241  0.00  0.00    +0.000 OA
ATOM     17  H   UNL     1      12.971  -0.202 -15.030  0.00  0.00    +0.000 HD
ENDBRANCH  10  16
ENDBRANCH   1   2
BRANCH   1  18
ATOM     18  O   UNL     1       7.227   2.357 -21.930  0.00  0.00    +0.000 OA
BRANCH  18  19
ATOM     19  C   UNL     1       6.359   1.331 -21.649  0.00  0.00    +0.000 C 
ATOM     20  C   UNL     1       5.446   0.796 -22.560  0.00  0.00    +0.000 C 
ATOM     21  C   UNL     1       4.610  -0.252 -22.183  0.00  0.00    +0.000 C 
ATOM     22  C   UNL     1       4.685  -0.767 -20.892  0.00  0.00    +0.000 C 
ATOM     23  C   UNL     1       5.594  -0.238 -19.978  0.00  0.00    +0.000 C 
ATOM     24  C   UNL     1       6.431   0.809 -20.358  0.00  0.00    +0.000 C 
ATOM     25  C   UNL     1       3.832  -1.840 -20.505  0.00  0.00    +0.000 C 
ATOM     26  C   UNL     1       2.983  -2.898 -20.111  0.00  0.00    +0.000 C 
ATOM     27  S   UNL     1       2.559  -4.242 -21.102  0.00  0.00    +0.000 S 
ATOM     28  C   UNL     1       1.569  -4.947 -19.840  0.00  0.00    +0.000 C 
ATOM     29  O   UNL     1       0.962  -5.998 -19.950  0.00  0.00    +0.000 OA
ATOM     30  N   UNL     1       1.591  -4.153 -18.740  0.00  0.00    +0.000 N 
ATOM     31  C   UNL     1       2.341  -3.015 -18.785  0.00  0.00    +0.000 C 
ATOM     32  H   UNL     1       1.079  -4.407 -17.910  0.00  0.00    +0.000 HD
ATOM     33  O   UNL     1       2.462  -2.222 -17.867  0.00  0.00    +0.000 OA
ENDBRANCH  18  19
ENDBRANCH   1  18
TORSDOF 4
ENDMDL
MODEL 6
REMARK VINA RESULT:      -6.9      4.790      8.393
REMARK  Name = Troglitazone.pdbqt.pdb
REMARK  4 active torsions:
REMARK  status: ('A' for Active; 'I' for Inactive)
REMARK    1  A    between atoms: C_1  and  O_2
REMARK    2  A    between atoms: C_1  and  C_18
REMARK    3  A    between atoms: O_2  and  C_3
REMARK    4  A    between atoms: C_26  and  O_32
REMARK                            x       y       z     vdW  Elec       q    Type
REMARK                         _______ _______ _______ _____ _____    ______ ____
ROOT
ATOM      1  C   UNL     1      -1.533  -0.503 -18.541  0.00  0.00    +0.000 C 
ENDROOT
BRANCH   1   2
ATOM      2  C   UNL     1      -0.374  -0.644 -19.439  0.00  0.00    +0.000 C 
ATOM      3  O   UNL     1      -0.093  -2.085 -19.562  0.00  0.00    +0.000 OA
ATOM      4  C   UNL     1       1.195  -2.610 -19.721  0.00  0.00    +0.000 A 
ATOM      5  C   UNL     1       2.388  -1.917 -19.362  0.00  0.00    +0.000 A 
ATOM      6  C   UNL     1       1.287  -3.929 -20.213  0.00  0.00    +0.000 A 
ATOM      7  C   UNL     1       2.176  -0.606 -18.862  0.00  0.00    +0.000 C 
ATOM      8  C   UNL     1       3.649  -2.506 -19.513  0.00  0.00    +0.000 A 
ATOM      9  C   UNL     1       0.815   0.003 -18.899  0.00  0.00    +0.000 C 
ATOM     10  C   UNL     1       3.730  -3.812 -20.022  0.00  0.00    +0.000 A 
ATOM     11  C   UNL     1       4.901  -1.748 -19.124  0.00  0.00    +0.000 C 
ATOM     12  C   UNL     1       2.560  -4.521 -20.368  0.00  0.00    +0.000 A 
ATOM     13  C   UNL     1       2.770  -5.940 -20.895  0.00  0.00    +0.000 C 
ATOM     14  C   UNL     1       0.004  -4.680 -20.547  0.00  0.00    +0.000 C 
ATOM     15  C   UNL     1      -0.691  -0.127 -20.865  0.00  0.00    +0.000 C 
BRANCH  10  16
ATOM     16  O   UNL     1       4.966  -4.418 -20.179  0.00  0.00    +0.000 OA
ATOM     17  H   UNL     1       4.884  -5.357 -19.902  0.00  0.00    +0.000 HD
ENDBRANCH  10  16
ENDBRANCH   1   2
BRANCH   1  18
ATOM     18  O   UNL     1      -2.576  -0.375 -17.719  0.00  0.00    +0.000 OA
BRANCH  18  19
ATOM     19  C   UNL     1      -3.760  -0.861 -18.216  0.00  0.00    +0.000 C 
ATOM     20  C   UNL     1      -4.260  -0.575 -19.487  0.00  0.00    +0.000 C 
ATOM     21  C   UNL     1      -5.471  -1.122 -19.905  0.00  0.00    +0.000 C 
ATOM     22  C   UNL     1      -6.184  -1.957 -19.050  0.00  0.00    +0.000 C 
ATOM     23  C   UNL     1      -5.691  -2.247 -17.779  0.00  0.00    +0.000 C 
ATOM     24  C   UNL     1      -4.479  -1.700 -17.364  0.00  0.00    +0.000 C 
ATOM     25  C   UNL     1      -7.422  -2.519 -19.475  0.00  0.00    +0.000 C 
ATOM     26  C   UNL     1      -8.654  -3.074 -19.888  0.00  0.00    +0.000 C 
ATOM     27  S   UNL     1      -8.987  -3.668 -21.470  0.00  0.00    +0.000 S 
ATOM     28  C   UNL     1     -10.623  -4.118 -21.030  0.00  0.00    +0.000 C 
ATOM     29  O   UNL     1     -11.420  -4.640 -21.790  0.00  0.00    +0.000 OA
ATOM     30  N   UNL     1     -10.854  -3.803 -19.730  0.00  0.00    +0.000 N 
ATOM     31  C   UNL     1      -9.839  -3.236 -19.018  0.00  0.00    +0.000 C 
ATOM     32  H   UNL     1     -11.746  -3.996 -19.303  0.00  0.00    +0.000 HD
ATOM     33  O   UNL     1      -9.903  -2.917 -17.843  0.00  0.00    +0.000 OA
ENDBRANCH  18  19
ENDBRANCH   1  18
TORSDOF 4
ENDMDL
MODEL 7
REMARK VINA RESULT:      -6.8      4.632     11.090
REMARK  Name = Troglitazone.pdbqt.pdb
REMARK  4 active torsions:
REMARK  status: ('A' for Active; 'I' for Inactive)
REMARK    1  A    between atoms: C_1  and  O_2
REMARK    2  A    between atoms: C_1  and  C_18
REMARK    3  A    between atoms: O_2  and  C_3
REMARK    4  A    between atoms: C_26  and  O_32
REMARK                            x       y       z     vdW  Elec       q    Type
REMARK                         _______ _______ _______ _____ _____    ______ ____
ROOT
ATOM      1  C   UNL     1       3.791   0.737 -19.142  0.00  0.00    +0.000 C 
ENDROOT
BRANCH   1   2
ATOM      2  C   UNL     1       2.813  -0.000 -19.959  0.00  0.00    +0.000 C 
ATOM      3  O   UNL     1       1.473   0.362 -19.464  0.00  0.00    +0.000 OA
ATOM      4  C   UNL     1       0.386  -0.521 -19.457  0.00  0.00    +0.000 A 
ATOM      5  C   UNL     1       0.513  -1.941 -19.507  0.00  0.00    +0.000 A 
ATOM      6  C   UNL     1      -0.897   0.052 -19.335  0.00  0.00    +0.000 A 
ATOM      7  C   UNL     1       1.849  -2.406 -19.612  0.00  0.00    +0.000 C 
ATOM      8  C   UNL     1      -0.610  -2.776 -19.465  0.00  0.00    +0.000 A 
ATOM      9  C   UNL     1       2.968  -1.443 -19.825  0.00  0.00    +0.000 C 
ATOM     10  C   UNL     1      -1.883  -2.195 -19.363  0.00  0.00    +0.000 A 
ATOM     11  C   UNL     1      -0.447  -4.281 -19.519  0.00  0.00    +0.000 C 
ATOM     12  C   UNL     1      -2.029  -0.793 -19.296  0.00  0.00    +0.000 A 
ATOM     13  C   UNL     1      -3.461  -0.275 -19.169  0.00  0.00    +0.000 C 
ATOM     14  C   UNL     1      -1.019   1.567 -19.233  0.00  0.00    +0.000 C 
ATOM     15  C   UNL     1       2.871   0.432 -21.445  0.00  0.00    +0.000 C 
BRANCH  10  16
ATOM     16  O   UNL     1      -3.010  -3.000 -19.317  0.00  0.00    +0.000 OA
ATOM     17  H   UNL     1      -2.728  -3.930 -19.458  0.00  0.00    +0.000 HD
ENDBRANCH  10  16
ENDBRANCH   1   2
BRANCH   1  18
ATOM     18  O   UNL     1       4.671   1.413 -18.402  0.00  0.00    +0.000 OA
BRANCH  18  19
ATOM     19  C   UNL     1       5.932   1.492 -18.941  0.00  0.00    +0.000 C 
ATOM     20  C   UNL     1       6.449   0.594 -19.877  0.00  0.00    +0.000 C 
ATOM     21  C   UNL     1       7.740   0.761 -20.372  0.00  0.00    +0.000 C 
ATOM     22  C   UNL     1       8.517   1.828 -19.930  0.00  0.00    +0.000 C 
ATOM     23  C   UNL     1       8.008   2.728 -18.996  0.00  0.00    +0.000 C 
ATOM     24  C   UNL     1       6.715   2.559 -18.503  0.00  0.00    +0.000 C 
ATOM     25  C   UNL     1       9.837   2.002 -20.436  0.00  0.00    +0.000 C 
ATOM     26  C   UNL     1      11.151   2.176 -20.927  0.00  0.00    +0.000 C 
ATOM     27  S   UNL     1      11.633   1.920 -22.560  0.00  0.00    +0.000 S 
ATOM     28  C   UNL     1      13.292   2.365 -22.211  0.00  0.00    +0.000 C 
ATOM     29  O   UNL     1      14.186   2.388 -23.039  0.00  0.00    +0.000 OA
ATOM     30  N   UNL     1      13.417   2.679 -20.897  0.00  0.00    +0.000 N 
ATOM     31  C   UNL     1      12.304   2.614 -20.113  0.00  0.00    +0.000 C 
ATOM     32  H   UNL     1      14.306   2.964 -20.517  0.00  0.00    +0.000 HD
ATOM     33  O   UNL     1      12.270   2.882 -18.924  0.00  0.00    +0.000 OA
ENDBRANCH  18  19
ENDBRANCH   1  18
TORSDOF 4
ENDMDL
MODEL 8
REMARK VINA RESULT:      -6.8      6.628     12.422
REMARK  Name = Troglitazone.pdbqt.pdb
REMARK  4 active torsions:
REMARK  status: ('A' for Active; 'I' for Inactive)
REMARK    1  A    between atoms: C_1  and  O_2
REMARK    2  A    between atoms: C_1  and  C_18
REMARK    3  A    between atoms: O_2  and  C_3
REMARK    4  A    between atoms: C_26  and  O_32
REMARK                            x       y       z     vdW  Elec       q    Type
REMARK                         _______ _______ _______ _____ _____    ______ ____
ROOT
ATOM      1  C   UNL     1      10.025   2.666 -20.365  0.00  0.00    +0.000 C 
ENDROOT
BRANCH   1   2
ATOM      2  C   UNL     1       9.196   2.131 -19.271  0.00  0.00    +0.000 C 
ATOM      3  O   UNL     1       8.576   0.889 -19.764  0.00  0.00    +0.000 OA
ATOM      4  C   UNL     1       7.302   0.456 -19.379  0.00  0.00    +0.000 A 
ATOM      5  C   UNL     1       6.297   1.313 -18.841  0.00  0.00    +0.000 A 
ATOM      6  C   UNL     1       6.998  -0.904 -19.602  0.00  0.00    +0.000 A 
ATOM      7  C   UNL     1       6.706   2.662 -18.676  0.00  0.00    +0.000 C 
ATOM      8  C   UNL     1       5.027   0.830 -18.504  0.00  0.00    +0.000 A 
ATOM      9  C   UNL     1       8.129   3.051 -18.898  0.00  0.00    +0.000 C 
ATOM     10  C   UNL     1       4.743  -0.529 -18.712  0.00  0.00    +0.000 A 
ATOM     11  C   UNL     1       3.979   1.762 -17.934  0.00  0.00    +0.000 C 
ATOM     12  C   UNL     1       5.718  -1.390 -19.258  0.00  0.00    +0.000 A 
ATOM     13  C   UNL     1       5.289  -2.844 -19.455  0.00  0.00    +0.000 C 
ATOM     14  C   UNL     1       8.061  -1.801 -20.223  0.00  0.00    +0.000 C 
ATOM     15  C   UNL     1      10.055   1.745 -18.041  0.00  0.00    +0.000 C 
BRANCH  10  16
ATOM     16  O   UNL     1       3.493  -1.032 -18.388  0.00  0.00    +0.000 OA
ATOM     17  H   UNL     1       2.904  -0.910 -19.164  0.00  0.00    +0.000 HD
ENDBRANCH  10  16
ENDBRANCH   1   2
BRANCH   1  18
ATOM     18  O   UNL     1      10.784   3.151 -21.349  0.00  0.00    +0.000 OA
BRANCH  18  19
ATOM     19  C   UNL     1      11.903   2.406 -21.630  0.00  0.00    +0.000 C 
ATOM     20  C   UNL     1      12.896   2.090 -20.701  0.00  0.00    +0.000 C 
ATOM     21  C   UNL     1      13.993   1.320 -21.080  0.00  0.00    +0.000 C 
ATOM     22  C   UNL     1      14.099   0.866 -22.391  0.00  0.00    +0.000 C 
ATOM     23  C   UNL     1      13.112   1.178 -23.324  0.00  0.00    +0.000 C 
ATOM     24  C   UNL     1      12.015   1.947 -22.942  0.00  0.00    +0.000 C 
ATOM     25  C   UNL     1      15.220   0.078 -22.781  0.00  0.00    +0.000 C 
ATOM     26  C   UNL     1      16.333  -0.698 -23.177  0.00  0.00    +0.000 C 
ATOM     27  S   UNL     1      17.068  -1.927 -22.219  0.00  0.00    +0.000 S 
ATOM     28  C   UNL     1      18.250  -2.283 -23.463  0.00  0.00    +0.000 C 
ATOM     29  O   UNL     1      19.112  -3.140 -23.366  0.00  0.00    +0.000 OA
ATOM     30  N   UNL     1      18.052  -1.472 -24.533  0.00  0.00    +0.000 N 
ATOM     31  C   UNL     1      17.025  -0.577 -24.477  0.00  0.00    +0.000 C 
ATOM     32  H   UNL     1      18.640  -1.540 -25.348  0.00  0.00    +0.000 HD
ATOM     33  O   UNL     1      16.726   0.199 -25.369  0.00  0.00    +0.000 OA
ENDBRANCH  18  19
ENDBRANCH   1  18
TORSDOF 4
ENDMDL
MODEL 9
REMARK VINA RESULT:      -6.7      3.860      6.617
REMARK  Name = Troglitazone.pdbqt.pdb
REMARK  4 active torsions:
REMARK  status: ('A' for Active; 'I' for Inactive)
REMARK    1  A    between atoms: C_1  and  O_2
REMARK    2  A    between atoms: C_1  and  C_18
REMARK    3  A    between atoms: O_2  and  C_3
REMARK    4  A    between atoms: C_26  and  O_32
REMARK                            x       y       z     vdW  Elec       q    Type
REMARK                         _______ _______ _______ _____ _____    ______ ____
ROOT
ATOM      1  C   UNL     1      10.737   2.252 -20.921  0.00  0.00    +0.000 C 
ENDROOT
BRANCH   1   2
ATOM      2  C   UNL     1      12.056   1.683 -20.596  0.00  0.00    +0.000 C 
ATOM      3  O   UNL     1      12.774   1.499 -21.869  0.00  0.00    +0.000 OA
ATOM      4  C   UNL     1      13.677   0.455 -22.104  0.00  0.00    +0.000 A 
ATOM      5  C   UNL     1      13.699  -0.762 -21.360  0.00  0.00    +0.000 A 
ATOM      6  C   UNL     1      14.570   0.617 -23.184  0.00  0.00    +0.000 A 
ATOM      7  C   UNL     1      12.748  -0.823 -20.309  0.00  0.00    +0.000 C 
ATOM      8  C   UNL     1      14.605  -1.786 -21.661  0.00  0.00    +0.000 A 
ATOM      9  C   UNL     1      11.943   0.381 -19.950  0.00  0.00    +0.000 C 
ATOM     10  C   UNL     1      15.501  -1.606 -22.725  0.00  0.00    +0.000 A 
ATOM     11  C   UNL     1      14.607  -3.068 -20.855  0.00  0.00    +0.000 C 
ATOM     12  C   UNL     1      15.485  -0.417 -23.484  0.00  0.00    +0.000 A 
ATOM     13  C   UNL     1      16.495  -0.340 -24.629  0.00  0.00    +0.000 C 
ATOM     14  C   UNL     1      14.506   1.899 -24.005  0.00  0.00    +0.000 C 
ATOM     15  C   UNL     1      12.903   2.658 -19.742  0.00  0.00    +0.000 C 
BRANCH  10  16
ATOM     16  O   UNL     1      16.407  -2.605 -23.045  0.00  0.00    +0.000 OA
ATOM     17  H   UNL     1      17.250  -2.415 -22.579  0.00  0.00    +0.000 HD
ENDBRANCH  10  16
ENDBRANCH   1   2
BRANCH   1  18
ATOM     18  O   UNL     1       9.547   2.774 -21.223  0.00  0.00    +0.000 OA
BRANCH  18  19
ATOM     19  C   UNL     1       8.473   2.003 -20.854  0.00  0.00    +0.000 C 
ATOM     20  C   UNL     1       7.500   1.528 -21.737  0.00  0.00    +0.000 C 
ATOM     21  C   UNL     1       6.449   0.745 -21.267  0.00  0.00    +0.000 C 
ATOM     22  C   UNL     1       6.368   0.435 -19.912  0.00  0.00    +0.000 C 
ATOM     23  C   UNL     1       7.335   0.906 -19.026  0.00  0.00    +0.000 C 
ATOM     24  C   UNL     1       8.387   1.688 -19.498  0.00  0.00    +0.000 C 
ATOM     25  C   UNL     1       5.294  -0.367 -19.430  0.00  0.00    +0.000 C 
ATOM     26  C   UNL     1       4.227  -1.155 -18.944  0.00  0.00    +0.000 C 
ATOM     27  S   UNL     1       3.564  -2.523 -19.753  0.00  0.00    +0.000 S 
ATOM     28  C   UNL     1       2.404  -2.805 -18.470  0.00  0.00    +0.000 C 
ATOM     29  O   UNL     1       1.592  -3.715 -18.465  0.00  0.00    +0.000 OA
ATOM     30  N   UNL     1       2.554  -1.868 -17.500  0.00  0.00    +0.000 N 
ATOM     31  C   UNL     1       3.528  -0.928 -17.662  0.00  0.00    +0.000 C 
ATOM     32  H   UNL     1       1.970  -1.878 -16.679  0.00  0.00    +0.000 HD
ATOM     33  O   UNL     1       3.781  -0.041 -16.864  0.00  0.00    +0.000 OA
ENDBRANCH  18  19
ENDBRANCH   1  18
TORSDOF 4
ENDMDL
