MODEL 1
REMARK VINA RESULT:      -7.9      0.000      0.000
REMARK  Name = 
REMARK  19 active torsions:
REMARK  status: ('A' for Active; 'I' for Inactive)
REMARK    1  A    between atoms: O_1  and  C_20
REMARK    2  A    between atoms: O_1  and  C_36
REMARK    3  A    between atoms: O_2  and  C_18
REMARK    4  A    between atoms: O_3  and  C_28
REMARK    5  A    between atoms: O_3  and  C_42
REMARK    6  A    between atoms: O_5  and  C_34
REMARK    7  A    between atoms: O_5  and  C_50
REMARK    8  A    between atoms: O_7  and  C_40
REMARK    9  A    between atoms: O_7  and  C_56
REMARK   10  A    between atoms: O_9  and  C_46
REMARK   11  A    between atoms: N_11  and  C_30
REMARK   12  A    between atoms: C_17  and  C_23
REMARK   13  A    between atoms: C_18  and  C_28
REMARK   14  A    between atoms: C_23  and  C_32
REMARK   15  A    between atoms: C_33  and  C_35
REMARK   16  A    between atoms: C_35  and  C_40
REMARK   17  A    between atoms: C_36  and  C_41
REMARK   18  A    between atoms: C_46  and  C_53
REMARK   19  A    between atoms: C_53  and  C_57
REMARK                            x       y       z     vdW  Elec       q    Type
REMARK                         _______ _______ _______ _____ _____    ______ ____
ROOT
ATOM      1  N   UNL     1       7.742   1.945 -19.357  0.00  0.00    +0.000 NA
ATOM      2  N   UNL     1       9.196  -2.508 -20.273  0.00  0.00    +0.000 N 
ATOM      3  C   UNL     1       8.480  -0.227 -19.777  0.00  0.00    +0.000 C 
ATOM      4  C   UNL     1       8.485   0.861 -18.688  0.00  0.00    +0.000 C 
ATOM      5  C   UNL     1       9.552  -1.294 -19.479  0.00  0.00    +0.000 C 
ATOM      6  C   UNL     1       9.944   1.207 -18.133  0.00  0.00    +0.000 C 
ATOM      7  C   UNL     1      11.009  -0.805 -19.496  0.00  0.00    +0.000 C 
ATOM      8  C   UNL     1       8.504   0.543 -21.111  0.00  0.00    +0.000 C 
ATOM      9  C   UNL     1      11.114   0.702 -19.087  0.00  0.00    +0.000 C 
ATOM     10  C   UNL     1       7.301  -1.178 -19.848  0.00  0.00    +0.000 A 
ATOM     11  C   UNL     1       8.157   1.987 -20.754  0.00  0.00    +0.000 C 
ATOM     12  C   UNL     1       7.770  -2.453 -20.193  0.00  0.00    +0.000 A 
ATOM     13  C   UNL     1      10.126   2.714 -17.935  0.00  0.00    +0.000 C 
ATOM     14  C   UNL     1       7.800   3.232 -18.681  0.00  0.00    +0.000 C 
ATOM     15  C   UNL     1       9.154   3.606 -18.172  0.00  0.00    +0.000 C 
ATOM     16  C   UNL     1       5.946  -0.913 -19.678  0.00  0.00    +0.000 A 
ATOM     17  C   UNL     1       9.779  -3.782 -19.856  0.00  0.00    +0.000 C 
ATOM     18  C   UNL     1       6.868  -3.476 -20.413  0.00  0.00    +0.000 A 
ATOM     19  C   UNL     1       5.001  -1.935 -19.890  0.00  0.00    +0.000 A 
ATOM     20  C   UNL     1       5.494  -3.218 -20.271  0.00  0.00    +0.000 A 
ENDROOT
BRANCH  19  23
ATOM     21  N   UNL     1      -0.630  -0.335 -19.332  0.00  0.00    +0.000 NA
ATOM     22  N   UNL     1       3.345  -2.272 -22.202  0.00  0.00    +0.000 N 
ATOM     23  C   UNL     1       3.447  -1.683 -19.737  0.00  0.00    +0.000 C 
ATOM     24  C   UNL     1       3.122  -0.125 -19.603  0.00  0.00    +0.000 C 
ATOM     25  C   UNL     1       2.672  -2.206 -20.994  0.00  0.00    +0.000 A 
ATOM     26  C   UNL     1       1.657   0.299 -19.796  0.00  0.00    +0.000 C 
ATOM     27  C   UNL     1       1.422   1.809 -19.814  0.00  0.00    +0.000 C 
ATOM     28  C   UNL     1       0.702  -0.268 -18.756  0.00  0.00    +0.000 C 
ATOM     29  C   UNL     1       1.342  -2.571 -21.269  0.00  0.00    +0.000 A 
ATOM     30  C   UNL     1      -0.079   2.153 -20.052  0.00  0.00    +0.000 C 
ATOM     31  C   UNL     1      -1.119   1.012 -19.701  0.00  0.00    +0.000 C 
ATOM     32  C   UNL     1       0.108  -2.613 -20.382  0.00  0.00    +0.000 C 
ATOM     33  C   UNL     1      -0.759  -1.320 -20.437  0.00  0.00    +0.000 C 
ATOM     34  C   UNL     1       1.280  -2.904 -22.673  0.00  0.00    +0.000 A 
ATOM     35  C   UNL     1       2.540  -2.708 -23.217  0.00  0.00    +0.000 A 
ATOM     36  C   UNL     1       0.247  -3.341 -23.534  0.00  0.00    +0.000 A 
ATOM     37  C   UNL     1       2.837  -2.930 -24.567  0.00  0.00    +0.000 A 
ATOM     38  C   UNL     1       0.521  -3.570 -24.887  0.00  0.00    +0.000 A 
ATOM     39  C   UNL     1       1.800  -3.367 -25.395  0.00  0.00    +0.000 A 
ATOM     40  H   UNL     1       4.324  -2.048 -22.326  0.00  0.00    +0.000 HD
BRANCH  23  42
ATOM     41  O   UNL     1       2.088  -3.196 -18.275  0.00  0.00    +0.000 OA
ATOM     42  C   UNL     1       3.039  -2.440 -18.430  0.00  0.00    +0.000 C 
BRANCH  42  43
ATOM     43  O   UNL     1       3.940  -2.165 -17.428  0.00  0.00    +0.000 OA
ATOM     44  C   UNL     1       3.486  -1.188 -16.493  0.00  0.00    +0.000 C 
ENDBRANCH  42  43
ENDBRANCH  23  42
BRANCH  30  45
ATOM     45  O   UNL     1      -0.358   3.272 -19.173  0.00  0.00    +0.000 OA
ATOM     46  H   UNL     1      -0.340   4.079 -19.716  0.00  0.00    +0.000 HD
ENDBRANCH  30  45
BRANCH  30  47
ATOM     47  C   UNL     1      -0.313   2.729 -21.468  0.00  0.00    +0.000 C 
ATOM     48  C   UNL     1      -0.707   1.737 -22.548  0.00  0.00    +0.000 C 
ENDBRANCH  30  47
ENDBRANCH  19  23
BRANCH   7  49
ATOM     49  O   UNL     1      11.686  -1.558 -18.437  0.00  0.00    +0.000 OA
ATOM     50  H   UNL     1      12.534  -1.095 -18.278  0.00  0.00    +0.000 HD
ENDBRANCH   7  49
BRANCH   7  52
ATOM     51  O   UNL     1      11.252  -0.968 -21.962  0.00  0.00    +0.000 OA
ATOM     52  C   UNL     1      11.719  -1.106 -20.840  0.00  0.00    +0.000 C 
BRANCH  52  53
ATOM     53  O   UNL     1      13.017  -1.487 -20.600  0.00  0.00    +0.000 OA
ATOM     54  C   UNL     1      13.411  -2.673 -21.293  0.00  0.00    +0.000 C 
ENDBRANCH  52  53
ENDBRANCH   7  52
BRANCH  20  55
ATOM     55  O   UNL     1       4.573  -4.221 -20.437  0.00  0.00    +0.000 OA
ATOM     56  C   UNL     1       4.965  -5.264 -21.324  0.00  0.00    +0.000 C 
ENDBRANCH  20  55
BRANCH   6  57
ATOM     57  C   UNL     1      10.139   0.555 -16.715  0.00  0.00    +0.000 C 
ATOM     58  C   UNL     1      10.764   1.441 -15.636  0.00  0.00    +0.000 C 
ENDBRANCH   6  57
BRANCH   9  59
ATOM     59  O   UNL     1      11.167   1.576 -20.240  0.00  0.00    +0.000 OA
BRANCH  59  61
ATOM     60  O   UNL     1      13.329   2.190 -19.794  0.00  0.00    +0.000 OA
ATOM     61  C   UNL     1      12.375   2.116 -20.556  0.00  0.00    +0.000 C 
ATOM     62  C   UNL     1      12.379   2.573 -21.981  0.00  0.00    +0.000 C 
ENDBRANCH  59  61
ENDBRANCH   9  59
TORSDOF 12
ENDMDL
MODEL 2
REMARK VINA RESULT:      -7.7      6.561     14.543
REMARK  Name = 
REMARK  19 active torsions:
REMARK  status: ('A' for Active; 'I' for Inactive)
REMARK    1  A    between atoms: O_1  and  C_20
REMARK    2  A    between atoms: O_1  and  C_36
REMARK    3  A    between atoms: O_2  and  C_18
REMARK    4  A    between atoms: O_3  and  C_28
REMARK    5  A    between atoms: O_3  and  C_42
REMARK    6  A    between atoms: O_5  and  C_34
REMARK    7  A    between atoms: O_5  and  C_50
REMARK    8  A    between atoms: O_7  and  C_40
REMARK    9  A    between atoms: O_7  and  C_56
REMARK   10  A    between atoms: O_9  and  C_46
REMARK   11  A    between atoms: N_11  and  C_30
REMARK   12  A    between atoms: C_17  and  C_23
REMARK   13  A    between atoms: C_18  and  C_28
REMARK   14  A    between atoms: C_23  and  C_32
REMARK   15  A    between atoms: C_33  and  C_35
REMARK   16  A    between atoms: C_35  and  C_40
REMARK   17  A    between atoms: C_36  and  C_41
REMARK   18  A    between atoms: C_46  and  C_53
REMARK   19  A    between atoms: C_53  and  C_57
REMARK                            x       y       z     vdW  Elec       q    Type
REMARK                         _______ _______ _______ _____ _____    ______ ____
ROOT
ATOM      1  N   UNL     1      -6.631  -3.365 -20.123  0.00  0.00    +0.000 NA
ATOM      2  N   UNL     1      -7.925   0.642 -22.371  0.00  0.00    +0.000 N 
ATOM      3  C   UNL     1      -7.296  -1.407 -21.199  0.00  0.00    +0.000 C 
ATOM      4  C   UNL     1      -7.516  -2.206 -19.903  0.00  0.00    +0.000 C 
ATOM      5  C   UNL     1      -8.423  -0.373 -21.394  0.00  0.00    +0.000 C 
ATOM      6  C   UNL     1      -9.054  -2.508 -19.587  0.00  0.00    +0.000 C 
ATOM      7  C   UNL     1      -9.836  -0.947 -21.586  0.00  0.00    +0.000 C 
ATOM      8  C   UNL     1      -7.024  -2.469 -22.283  0.00  0.00    +0.000 C 
ATOM      9  C   UNL     1     -10.002  -2.319 -20.852  0.00  0.00    +0.000 C 
ATOM     10  C   UNL     1      -6.144  -0.423 -21.260  0.00  0.00    +0.000 A 
ATOM     11  C   UNL     1      -6.740  -3.761 -21.522  0.00  0.00    +0.000 C 
ATOM     12  C   UNL     1      -6.548   0.701 -21.993  0.00  0.00    +0.000 A 
ATOM     13  C   UNL     1      -9.251  -3.934 -19.069  0.00  0.00    +0.000 C 
ATOM     14  C   UNL     1      -6.812  -4.458 -19.180  0.00  0.00    +0.000 C 
ATOM     15  C   UNL     1      -8.237  -4.791 -18.880  0.00  0.00    +0.000 C 
ATOM     16  C   UNL     1      -4.852  -0.551 -20.760  0.00  0.00    +0.000 A 
ATOM     17  C   UNL     1      -8.603   1.937 -22.403  0.00  0.00    +0.000 C 
ATOM     18  C   UNL     1      -5.635   1.701 -22.268  0.00  0.00    +0.000 A 
ATOM     19  C   UNL     1      -3.898   0.453 -21.019  0.00  0.00    +0.000 A 
ATOM     20  C   UNL     1      -4.319   1.575 -21.793  0.00  0.00    +0.000 A 
ENDROOT
BRANCH  19  23
ATOM     21  N   UNL     1       1.521  -0.603 -18.996  0.00  0.00    +0.000 NA
ATOM     22  N   UNL     1      -1.787   0.488 -22.953  0.00  0.00    +0.000 N 
ATOM     23  C   UNL     1      -2.409   0.347 -20.498  0.00  0.00    +0.000 C 
ATOM     24  C   UNL     1      -2.072  -1.133 -20.002  0.00  0.00    +0.000 C 
ATOM     25  C   UNL     1      -1.394   0.690 -21.641  0.00  0.00    +0.000 A 
ATOM     26  C   UNL     1      -0.587  -1.476 -19.799  0.00  0.00    +0.000 C 
ATOM     27  C   UNL     1      -0.304  -2.943 -19.477  0.00  0.00    +0.000 C 
ATOM     28  C   UNL     1       0.098  -0.662 -18.711  0.00  0.00    +0.000 C 
ATOM     29  C   UNL     1      -0.049   1.096 -21.696  0.00  0.00    +0.000 A 
ATOM     30  C   UNL     1       1.223  -3.214 -19.323  0.00  0.00    +0.000 C 
ATOM     31  C   UNL     1       2.123  -1.954 -18.988  0.00  0.00    +0.000 C 
ATOM     32  C   UNL     1       0.958   1.388 -20.595  0.00  0.00    +0.000 C 
ATOM     33  C   UNL     1       1.858   0.173 -20.218  0.00  0.00    +0.000 C 
ATOM     34  C   UNL     1       0.310   1.174 -23.093  0.00  0.00    +0.000 A 
ATOM     35  C   UNL     1      -0.793   0.791 -23.841  0.00  0.00    +0.000 A 
ATOM     36  C   UNL     1       1.492   1.522 -23.786  0.00  0.00    +0.000 A 
ATOM     37  C   UNL     1      -0.793   0.743 -25.241  0.00  0.00    +0.000 A 
ATOM     38  C   UNL     1       1.515   1.483 -25.185  0.00  0.00    +0.000 A 
ATOM     39  C   UNL     1       0.386   1.098 -25.900  0.00  0.00    +0.000 A 
ATOM     40  H   UNL     1      -2.707   0.174 -23.234  0.00  0.00    +0.000 HD
BRANCH  23  42
ATOM     41  O   UNL     1      -1.410   2.134 -19.054  0.00  0.00    +0.000 OA
ATOM     42  C   UNL     1      -2.323   1.356 -19.305  0.00  0.00    +0.000 C 
BRANCH  42  43
ATOM     43  O   UNL     1      -3.468   1.284 -18.547  0.00  0.00    +0.000 OA
ATOM     44  C   UNL     1      -3.356   0.429 -17.409  0.00  0.00    +0.000 C 
ENDBRANCH  42  43
ENDBRANCH  23  42
BRANCH  30  45
ATOM     45  O   UNL     1       1.337  -4.131 -18.207  0.00  0.00    +0.000 OA
ATOM     46  H   UNL     1       2.244  -4.485 -18.214  0.00  0.00    +0.000 HD
ENDBRANCH  30  45
BRANCH  30  47
ATOM     47  C   UNL     1       1.780  -4.017 -20.521  0.00  0.00    +0.000 C 
ATOM     48  C   UNL     1       1.920  -5.517 -20.326  0.00  0.00    +0.000 C 
ENDBRANCH  30  47
ENDBRANCH  19  23
BRANCH   7  49
ATOM     49  O   UNL     1     -10.733  -0.013 -20.902  0.00  0.00    +0.000 OA
ATOM     50  H   UNL     1     -10.993  -0.453 -20.066  0.00  0.00    +0.000 HD
ENDBRANCH   7  49
BRANCH   7  52
ATOM     51  O   UNL     1      -9.541  -1.350 -24.018  0.00  0.00    +0.000 OA
ATOM     52  C   UNL     1     -10.249  -1.018 -23.077  0.00  0.00    +0.000 C 
BRANCH  52  53
ATOM     53  O   UNL     1     -11.585  -0.724 -23.200  0.00  0.00    +0.000 OA
ATOM     54  C   UNL     1     -12.256  -1.483 -24.208  0.00  0.00    +0.000 C 
ENDBRANCH  52  53
ENDBRANCH   7  52
BRANCH  20  55
ATOM     55  O   UNL     1      -3.399   2.570 -22.008  0.00  0.00    +0.000 OA
ATOM     56  C   UNL     1      -3.697   3.449 -23.088  0.00  0.00    +0.000 C 
ENDBRANCH  20  55
BRANCH   6  57
ATOM     57  C   UNL     1      -9.556  -1.555 -18.441  0.00  0.00    +0.000 C 
ATOM     58  C   UNL     1     -10.248  -2.223 -17.252  0.00  0.00    +0.000 C 
ENDBRANCH   6  57
BRANCH   9  59
ATOM     59  O   UNL     1      -9.796  -3.441 -21.744  0.00  0.00    +0.000 OA
BRANCH  59  61
ATOM     60  O   UNL     1     -10.842  -5.245 -22.692  0.00  0.00    +0.000 OA
ATOM     61  C   UNL     1     -10.867  -4.241 -21.995  0.00  0.00    +0.000 C 
ATOM     62  C   UNL     1     -12.072  -3.734 -21.266  0.00  0.00    +0.000 C 
ENDBRANCH  59  61
ENDBRANCH   9  59
TORSDOF 12
ENDMDL
MODEL 3
REMARK VINA RESULT:      -6.7      5.639      9.964
REMARK  Name = 
REMARK  19 active torsions:
REMARK  status: ('A' for Active; 'I' for Inactive)
REMARK    1  A    between atoms: O_1  and  C_20
REMARK    2  A    between atoms: O_1  and  C_36
REMARK    3  A    between atoms: O_2  and  C_18
REMARK    4  A    between atoms: O_3  and  C_28
REMARK    5  A    between atoms: O_3  and  C_42
REMARK    6  A    between atoms: O_5  and  C_34
REMARK    7  A    between atoms: O_5  and  C_50
REMARK    8  A    between atoms: O_7  and  C_40
REMARK    9  A    between atoms: O_7  and  C_56
REMARK   10  A    between atoms: O_9  and  C_46
REMARK   11  A    between atoms: N_11  and  C_30
REMARK   12  A    between atoms: C_17  and  C_23
REMARK   13  A    between atoms: C_18  and  C_28
REMARK   14  A    between atoms: C_23  and  C_32
REMARK   15  A    between atoms: C_33  and  C_35
REMARK   16  A    between atoms: C_35  and  C_40
REMARK   17  A    between atoms: C_36  and  C_41
REMARK   18  A    between atoms: C_46  and  C_53
REMARK   19  A    between atoms: C_53  and  C_57
REMARK                            x       y       z     vdW  Elec       q    Type
REMARK                         _______ _______ _______ _____ _____    ______ ____
ROOT
ATOM      1  N   UNL     1       0.034  -1.952 -19.692  0.00  0.00    +0.000 NA
ATOM      2  N   UNL     1      -1.171   1.640 -22.596  0.00  0.00    +0.000 N 
ATOM      3  C   UNL     1      -0.527  -0.208 -21.135  0.00  0.00    +0.000 C 
ATOM      4  C   UNL     1       0.173  -1.578 -21.112  0.00  0.00    +0.000 C 
ATOM      5  C   UNL     1      -0.144   0.573 -22.408  0.00  0.00    +0.000 C 
ATOM      6  C   UNL     1       1.651  -1.555 -21.720  0.00  0.00    +0.000 C 
ATOM      7  C   UNL     1       1.341   0.948 -22.545  0.00  0.00    +0.000 C 
ATOM      8  C   UNL     1      -0.260   0.401 -19.745  0.00  0.00    +0.000 C 
ATOM      9  C   UNL     1       2.264  -0.088 -21.824  0.00  0.00    +0.000 C 
ATOM     10  C   UNL     1      -2.028  -0.162 -21.347  0.00  0.00    +0.000 A 
ATOM     11  C   UNL     1       0.242  -0.756 -18.884  0.00  0.00    +0.000 C 
ATOM     12  C   UNL     1      -2.337   0.951 -22.142  0.00  0.00    +0.000 A 
ATOM     13  C   UNL     1       2.616  -2.402 -20.887  0.00  0.00    +0.000 C 
ATOM     14  C   UNL     1       0.833  -3.095 -19.280  0.00  0.00    +0.000 C 
ATOM     15  C   UNL     1       2.232  -3.096 -19.805  0.00  0.00    +0.000 C 
ATOM     16  C   UNL     1      -3.013  -0.997 -20.832  0.00  0.00    +0.000 A 
ATOM     17  C   UNL     1      -1.295   2.232 -23.927  0.00  0.00    +0.000 C 
ATOM     18  C   UNL     1      -3.660   1.261 -22.395  0.00  0.00    +0.000 A 
ATOM     19  C   UNL     1      -4.371  -0.712 -21.077  0.00  0.00    +0.000 A 
ATOM     20  C   UNL     1      -4.669   0.442 -21.860  0.00  0.00    +0.000 A 
ENDROOT
BRANCH  19  23
ATOM     21  N   UNL     1      -9.076  -3.497 -18.915  0.00  0.00    +0.000 NA
ATOM     22  N   UNL     1      -5.760  -2.451 -22.877  0.00  0.00    +0.000 N 
ATOM     23  C   UNL     1      -5.533  -1.611 -20.495  0.00  0.00    +0.000 C 
ATOM     24  C   UNL     1      -6.832  -0.742 -20.167  0.00  0.00    +0.000 C 
ATOM     25  C   UNL     1      -5.963  -2.705 -21.531  0.00  0.00    +0.000 A 
ATOM     26  C   UNL     1      -8.142  -1.511 -19.929  0.00  0.00    +0.000 C 
ATOM     27  C   UNL     1      -9.384  -0.634 -19.775  0.00  0.00    +0.000 C 
ATOM     28  C   UNL     1      -8.115  -2.427 -18.714  0.00  0.00    +0.000 C 
ATOM     29  C   UNL     1      -6.638  -3.937 -21.465  0.00  0.00    +0.000 A 
ATOM     30  C   UNL     1     -10.671  -1.490 -19.576  0.00  0.00    +0.000 C 
ATOM     31  C   UNL     1     -10.450  -2.964 -19.041  0.00  0.00    +0.000 C 
ATOM     32  C   UNL     1      -7.206  -4.708 -20.284  0.00  0.00    +0.000 C 
ATOM     33  C   UNL     1      -8.716  -4.433 -20.012  0.00  0.00    +0.000 C 
ATOM     34  C   UNL     1      -6.772  -4.416 -22.821  0.00  0.00    +0.000 A 
ATOM     35  C   UNL     1      -6.216  -3.469 -23.667  0.00  0.00    +0.000 A 
ATOM     36  C   UNL     1      -7.339  -5.574 -23.401  0.00  0.00    +0.000 A 
ATOM     37  C   UNL     1      -6.182  -3.610 -25.060  0.00  0.00    +0.000 A 
ATOM     38  C   UNL     1      -7.315  -5.736 -24.792  0.00  0.00    +0.000 A 
ATOM     39  C   UNL     1      -6.744  -4.766 -25.608  0.00  0.00    +0.000 A 
ATOM     40  H   UNL     1      -5.310  -1.622 -23.243  0.00  0.00    +0.000 HD
BRANCH  23  42
ATOM     41  O   UNL     1      -4.523  -3.372 -19.027  0.00  0.00    +0.000 OA
ATOM     42  C   UNL     1      -4.949  -2.234 -19.184  0.00  0.00    +0.000 C 
BRANCH  42  43
ATOM     43  O   UNL     1      -4.940  -1.293 -18.182  0.00  0.00    +0.000 OA
ATOM     44  C   UNL     1      -3.938  -1.511 -17.190  0.00  0.00    +0.000 C 
ENDBRANCH  42  43
ENDBRANCH  23  42
BRANCH  30  45
ATOM     45  O   UNL     1     -11.447  -0.784 -18.576  0.00  0.00    +0.000 OA
ATOM     46  H   UNL     1     -12.294  -0.536 -18.988  0.00  0.00    +0.000 HD
ENDBRANCH  30  45
BRANCH  30  47
ATOM     47  C   UNL     1     -11.572  -1.462 -20.832  0.00  0.00    +0.000 C 
ATOM     48  C   UNL     1     -11.217  -2.434 -21.944  0.00  0.00    +0.000 C 
ENDBRANCH  30  47
ENDBRANCH  19  23
BRANCH   7  49
ATOM     49  O   UNL     1       1.643   0.832 -23.973  0.00  0.00    +0.000 OA
ATOM     50  H   UNL     1       0.777   0.809 -24.430  0.00  0.00    +0.000 HD
ENDBRANCH   7  49
BRANCH   7  52
ATOM     51  O   UNL     1       1.270   2.937 -21.059  0.00  0.00    +0.000 OA
ATOM     52  C   UNL     1       1.626   2.405 -22.102  0.00  0.00    +0.000 C 
BRANCH  52  53
ATOM     53  O   UNL     1       2.429   3.021 -23.031  0.00  0.00    +0.000 OA
ATOM     54  C   UNL     1       1.818   4.142 -23.673  0.00  0.00    +0.000 C 
ENDBRANCH  52  53
ENDBRANCH   7  52
BRANCH  20  55
ATOM     55  O   UNL     1      -5.990   0.694 -22.130  0.00  0.00    +0.000 OA
ATOM     56  C   UNL     1      -6.235   1.442 -23.318  0.00  0.00    +0.000 C 
ENDBRANCH  20  55
BRANCH   6  57
ATOM     57  C   UNL     1       1.642  -2.193 -23.158  0.00  0.00    +0.000 C 
ATOM     58  C   UNL     1       0.386  -2.974 -23.550  0.00  0.00    +0.000 C 
ENDBRANCH   6  57
BRANCH   9  59
ATOM     59  O   UNL     1       2.630   0.343 -20.491  0.00  0.00    +0.000 OA
BRANCH  59  61
ATOM     60  O   UNL     1       4.720   1.042 -21.119  0.00  0.00    +0.000 OA
ATOM     61  C   UNL     1       3.941   0.634 -20.270  0.00  0.00    +0.000 C 
ATOM     62  C   UNL     1       4.281   0.416 -18.828  0.00  0.00    +0.000 C 
ENDBRANCH  59  61
ENDBRANCH   9  59
TORSDOF 12
ENDMDL
MODEL 4
REMARK VINA RESULT:      -6.6      2.559      9.707
REMARK  Name = 
REMARK  19 active torsions:
REMARK  status: ('A' for Active; 'I' for Inactive)
REMARK    1  A    between atoms: O_1  and  C_20
REMARK    2  A    between atoms: O_1  and  C_36
REMARK    3  A    between atoms: O_2  and  C_18
REMARK    4  A    between atoms: O_3  and  C_28
REMARK    5  A    between atoms: O_3  and  C_42
REMARK    6  A    between atoms: O_5  and  C_34
REMARK    7  A    between atoms: O_5  and  C_50
REMARK    8  A    between atoms: O_7  and  C_40
REMARK    9  A    between atoms: O_7  and  C_56
REMARK   10  A    between atoms: O_9  and  C_46
REMARK   11  A    between atoms: N_11  and  C_30
REMARK   12  A    between atoms: C_17  and  C_23
REMARK   13  A    between atoms: C_18  and  C_28
REMARK   14  A    between atoms: C_23  and  C_32
REMARK   15  A    between atoms: C_33  and  C_35
REMARK   16  A    between atoms: C_35  and  C_40
REMARK   17  A    between atoms: C_36  and  C_41
REMARK   18  A    between atoms: C_46  and  C_53
REMARK   19  A    between atoms: C_53  and  C_57
REMARK                            x       y       z     vdW  Elec       q    Type
REMARK                         _______ _______ _______ _____ _____    ______ ____
ROOT
ATOM      1  N   UNL     1       4.218  -1.147 -19.026  0.00  0.00    +0.000 NA
ATOM      2  N   UNL     1       4.839  -4.077 -22.742  0.00  0.00    +0.000 N 
ATOM      3  C   UNL     1       4.486  -2.570 -20.853  0.00  0.00    +0.000 C 
ATOM      4  C   UNL     1       3.659  -1.364 -20.373  0.00  0.00    +0.000 C 
ATOM      5  C   UNL     1       3.803  -3.246 -22.059  0.00  0.00    +0.000 C 
ATOM      6  C   UNL     1       2.080  -1.581 -20.484  0.00  0.00    +0.000 C 
ATOM      7  C   UNL     1       2.422  -3.866 -21.789  0.00  0.00    +0.000 C 
ATOM      8  C   UNL     1       4.785  -3.382 -19.578  0.00  0.00    +0.000 C 
ATOM      9  C   UNL     1       1.667  -3.111 -20.646  0.00  0.00    +0.000 C 
ATOM     10  C   UNL     1       5.819  -2.316 -21.528  0.00  0.00    +0.000 A 
ATOM     11  C   UNL     1       4.454  -2.450 -18.416  0.00  0.00    +0.000 C 
ATOM     12  C   UNL     1       5.988  -3.248 -22.561  0.00  0.00    +0.000 A 
ATOM     13  C   UNL     1       1.350  -1.032 -19.256  0.00  0.00    +0.000 C 
ATOM     14  C   UNL     1       3.461  -0.228 -18.191  0.00  0.00    +0.000 C 
ATOM     15  C   UNL     1       1.979  -0.417 -18.245  0.00  0.00    +0.000 C 
ATOM     16  C   UNL     1       6.802  -1.384 -21.209  0.00  0.00    +0.000 A 
ATOM     17  C   UNL     1       4.584  -4.470 -24.127  0.00  0.00    +0.000 C 
ATOM     18  C   UNL     1       7.176  -3.278 -23.265  0.00  0.00    +0.000 A 
ATOM     19  C   UNL     1       8.023  -1.385 -21.911  0.00  0.00    +0.000 A 
ATOM     20  C   UNL     1       8.189  -2.361 -22.937  0.00  0.00    +0.000 A 
ENDROOT
BRANCH  19  23
ATOM     21  N   UNL     1      11.991   2.553 -20.091  0.00  0.00    +0.000 NA
ATOM     22  N   UNL     1      10.480  -2.435 -20.881  0.00  0.00    +0.000 N 
ATOM     23  C   UNL     1       9.184  -0.367 -21.572  0.00  0.00    +0.000 C 
ATOM     24  C   UNL     1       8.861   0.462 -20.246  0.00  0.00    +0.000 C 
ATOM     25  C   UNL     1      10.533  -1.123 -21.323  0.00  0.00    +0.000 A 
ATOM     26  C   UNL     1      10.029   1.227 -19.603  0.00  0.00    +0.000 C 
ATOM     27  C   UNL     1       9.710   1.874 -18.256  0.00  0.00    +0.000 C 
ATOM     28  C   UNL     1      10.609   2.329 -20.478  0.00  0.00    +0.000 C 
ATOM     29  C   UNL     1      11.895  -0.774 -21.341  0.00  0.00    +0.000 A 
ATOM     30  C   UNL     1      10.954   2.596 -17.656  0.00  0.00    +0.000 C 
ATOM     31  C   UNL     1      12.086   3.003 -18.685  0.00  0.00    +0.000 C 
ATOM     32  C   UNL     1      12.590   0.543 -21.652  0.00  0.00    +0.000 C 
ATOM     33  C   UNL     1      12.894   1.413 -20.396  0.00  0.00    +0.000 C 
ATOM     34  C   UNL     1      12.636  -1.949 -20.944  0.00  0.00    +0.000 A 
ATOM     35  C   UNL     1      11.725  -2.957 -20.669  0.00  0.00    +0.000 A 
ATOM     36  C   UNL     1      14.010  -2.233 -20.779  0.00  0.00    +0.000 A 
ATOM     37  C   UNL     1      12.102  -4.238 -20.246  0.00  0.00    +0.000 A 
ATOM     38  C   UNL     1      14.411  -3.507 -20.359  0.00  0.00    +0.000 A 
ATOM     39  C   UNL     1      13.467  -4.495 -20.097  0.00  0.00    +0.000 A 
ATOM     40  H   UNL     1       9.626  -2.961 -20.749  0.00  0.00    +0.000 HD
BRANCH  23  42
ATOM     41  O   UNL     1      10.125   0.617 -23.675  0.00  0.00    +0.000 OA
ATOM     42  C   UNL     1       9.260   0.589 -22.809  0.00  0.00    +0.000 C 
BRANCH  42  43
ATOM     43  O   UNL     1       8.164   1.420 -22.825  0.00  0.00    +0.000 OA
ATOM     44  C   UNL     1       8.385   2.655 -23.506  0.00  0.00    +0.000 C 
ENDBRANCH  42  43
ENDBRANCH  23  42
BRANCH  30  45
ATOM     45  O   UNL     1      10.441   3.821 -17.076  0.00  0.00    +0.000 OA
ATOM     46  H   UNL     1      11.077   4.529 -17.283  0.00  0.00    +0.000 HD
ENDBRANCH  30  45
BRANCH  30  47
ATOM     47  C   UNL     1      11.527   1.825 -16.444  0.00  0.00    +0.000 C 
ATOM     48  C   UNL     1      10.682   0.685 -15.902  0.00  0.00    +0.000 C 
ENDBRANCH  30  47
ENDBRANCH  19  23
BRANCH   7  49
ATOM     49  O   UNL     1       1.645  -3.634 -23.008  0.00  0.00    +0.000 OA
ATOM     50  H   UNL     1       2.059  -4.188 -23.701  0.00  0.00    +0.000 HD
ENDBRANCH   7  49
BRANCH   7  52
ATOM     51  O   UNL     1       3.298  -5.981 -20.826  0.00  0.00    +0.000 OA
ATOM     52  C   UNL     1       2.498  -5.394 -21.541  0.00  0.00    +0.000 C 
BRANCH  52  53
ATOM     53  O   UNL     1       1.461  -6.018 -22.192  0.00  0.00    +0.000 OA
ATOM     54  C   UNL     1       1.838  -7.221 -22.864  0.00  0.00    +0.000 C 
ENDBRANCH  52  53
ENDBRANCH   7  52
BRANCH  20  55
ATOM     55  O   UNL     1       9.364  -2.333 -23.646  0.00  0.00    +0.000 OA
ATOM     56  C   UNL     1       9.227  -2.505 -25.054  0.00  0.00    +0.000 C 
ENDBRANCH  20  55
BRANCH   6  57
ATOM     57  C   UNL     1       1.521  -0.781 -21.717  0.00  0.00    +0.000 C 
ATOM     58  C   UNL     1      -0.002  -0.676 -21.830  0.00  0.00    +0.000 C 
ENDBRANCH   6  57
BRANCH   9  59
ATOM     59  O   UNL     1       1.831  -3.761 -19.363  0.00  0.00    +0.000 OA
BRANCH  59  61
ATOM     60  O   UNL     1       0.848  -5.301 -17.980  0.00  0.00    +0.000 OA
ATOM     61  C   UNL     1       0.786  -4.499 -18.902  0.00  0.00    +0.000 C 
ATOM     62  C   UNL     1      -0.459  -4.162 -19.661  0.00  0.00    +0.000 C 
ENDBRANCH  59  61
ENDBRANCH   9  59
TORSDOF 12
ENDMDL
MODEL 5
REMARK VINA RESULT:      -6.6      6.620     11.559
REMARK  Name = 
REMARK  19 active torsions:
REMARK  status: ('A' for Active; 'I' for Inactive)
REMARK    1  A    between atoms: O_1  and  C_20
REMARK    2  A    between atoms: O_1  and  C_36
REMARK    3  A    between atoms: O_2  and  C_18
REMARK    4  A    between atoms: O_3  and  C_28
REMARK    5  A    between atoms: O_3  and  C_42
REMARK    6  A    between atoms: O_5  and  C_34
REMARK    7  A    between atoms: O_5  and  C_50
REMARK    8  A    between atoms: O_7  and  C_40
REMARK    9  A    between atoms: O_7  and  C_56
REMARK   10  A    between atoms: O_9  and  C_46
REMARK   11  A    between atoms: N_11  and  C_30
REMARK   12  A    between atoms: C_17  and  C_23
REMARK   13  A    between atoms: C_18  and  C_28
REMARK   14  A    between atoms: C_23  and  C_32
REMARK   15  A    between atoms: C_33  and  C_35
REMARK   16  A    between atoms: C_35  and  C_40
REMARK   17  A    between atoms: C_36  and  C_41
REMARK   18  A    between atoms: C_46  and  C_53
REMARK   19  A    between atoms: C_53  and  C_57
REMARK                            x       y       z     vdW  Elec       q    Type
REMARK                         _______ _______ _______ _____ _____    ______ ____
ROOT
ATOM      1  N   UNL     1      -1.560  -2.182 -20.573  0.00  0.00    +0.000 NA
ATOM      2  N   UNL     1      -3.169   2.250 -21.310  0.00  0.00    +0.000 N 
ATOM      3  C   UNL     1      -2.315  -0.010 -20.955  0.00  0.00    +0.000 C 
ATOM      4  C   UNL     1      -1.385  -1.085 -21.543  0.00  0.00    +0.000 C 
ATOM      5  C   UNL     1      -1.985   1.373 -21.550  0.00  0.00    +0.000 C 
ATOM      6  C   UNL     1       0.106  -0.572 -21.806  0.00  0.00    +0.000 C 
ATOM      7  C   UNL     1      -0.585   1.925 -21.233  0.00  0.00    +0.000 C 
ATOM      8  C   UNL     1      -2.265  -0.228 -19.430  0.00  0.00    +0.000 C 
ATOM      9  C   UNL     1       0.453   0.772 -21.027  0.00  0.00    +0.000 C 
ATOM     10  C   UNL     1      -3.780  -0.022 -21.345  0.00  0.00    +0.000 A 
ATOM     11  C   UNL     1      -1.629  -1.602 -19.237  0.00  0.00    +0.000 C 
ATOM     12  C   UNL     1      -4.224   1.301 -21.476  0.00  0.00    +0.000 A 
ATOM     13  C   UNL     1       1.141  -1.624 -21.400  0.00  0.00    +0.000 C 
ATOM     14  C   UNL     1      -0.602  -3.270 -20.701  0.00  0.00    +0.000 C 
ATOM     15  C   UNL     1       0.809  -2.830 -20.920  0.00  0.00    +0.000 C 
ATOM     16  C   UNL     1      -4.636  -1.106 -21.508  0.00  0.00    +0.000 A 
ATOM     17  C   UNL     1      -3.298   3.452 -22.133  0.00  0.00    +0.000 C 
ATOM     18  C   UNL     1      -5.558   1.550 -21.734  0.00  0.00    +0.000 A 
ATOM     19  C   UNL     1      -6.001  -0.886 -21.778  0.00  0.00    +0.000 A 
ATOM     20  C   UNL     1      -6.442   0.467 -21.875  0.00  0.00    +0.000 A 
ENDROOT
BRANCH  19  23
ATOM     21  N   UNL     1     -10.296  -4.860 -22.356  0.00  0.00    +0.000 NA
ATOM     22  N   UNL     1      -6.389  -1.971 -24.399  0.00  0.00    +0.000 N 
ATOM     23  C   UNL     1      -7.024  -2.080 -21.946  0.00  0.00    +0.000 C 
ATOM     24  C   UNL     1      -8.534  -1.573 -21.819  0.00  0.00    +0.000 C 
ATOM     25  C   UNL     1      -6.880  -2.741 -23.359  0.00  0.00    +0.000 A 
ATOM     26  C   UNL     1      -9.633  -2.535 -22.300  0.00  0.00    +0.000 C 
ATOM     27  C   UNL     1     -11.044  -1.949 -22.305  0.00  0.00    +0.000 C 
ATOM     28  C   UNL     1      -9.714  -3.833 -21.510  0.00  0.00    +0.000 C 
ATOM     29  C   UNL     1      -7.228  -3.981 -23.924  0.00  0.00    +0.000 A 
ATOM     30  C   UNL     1     -12.089  -2.973 -22.839  0.00  0.00    +0.000 C 
ATOM     31  C   UNL     1     -11.672  -4.498 -22.764  0.00  0.00    +0.000 C 
ATOM     32  C   UNL     1      -7.891  -5.209 -23.320  0.00  0.00    +0.000 C 
ATOM     33  C   UNL     1      -9.438  -5.253 -23.504  0.00  0.00    +0.000 C 
ATOM     34  C   UNL     1      -6.871  -3.921 -25.322  0.00  0.00    +0.000 A 
ATOM     35  C   UNL     1      -6.353  -2.661 -25.578  0.00  0.00    +0.000 A 
ATOM     36  C   UNL     1      -6.963  -4.832 -26.399  0.00  0.00    +0.000 A 
ATOM     37  C   UNL     1      -5.910  -2.255 -26.844  0.00  0.00    +0.000 A 
ATOM     38  C   UNL     1      -6.525  -4.449 -27.672  0.00  0.00    +0.000 A 
ATOM     39  C   UNL     1      -6.006  -3.177 -27.889  0.00  0.00    +0.000 A 
ATOM     40  H   UNL     1      -6.070  -1.015 -24.304  0.00  0.00    +0.000 HD
BRANCH  23  42
ATOM     41  O   UNL     1      -6.048  -4.119 -20.867  0.00  0.00    +0.000 OA
ATOM     42  C   UNL     1      -6.683  -3.075 -20.788  0.00  0.00    +0.000 C 
BRANCH  42  43
ATOM     43  O   UNL     1      -7.182  -2.597 -19.598  0.00  0.00    +0.000 OA
ATOM     44  C   UNL     1      -6.242  -2.622 -18.524  0.00  0.00    +0.000 C 
ENDBRANCH  42  43
ENDBRANCH  23  42
BRANCH  30  45
ATOM     45  O   UNL     1     -13.254  -2.805 -21.993  0.00  0.00    +0.000 OA
ATOM     46  H   UNL     1     -13.205  -3.481 -21.294  0.00  0.00    +0.000 HD
ENDBRANCH  30  45
BRANCH  30  47
ATOM     47  C   UNL     1     -12.596  -2.583 -24.248  0.00  0.00    +0.000 C 
ATOM     48  C   UNL     1     -13.944  -1.886 -24.315  0.00  0.00    +0.000 C 
ENDBRANCH  30  47
ENDBRANCH  19  23
BRANCH   7  49
ATOM     49  O   UNL     1      -0.162   2.636 -22.441  0.00  0.00    +0.000 OA
ATOM     50  H   UNL     1       0.052   3.548 -22.155  0.00  0.00    +0.000 HD
ENDBRANCH   7  49
BRANCH   7  52
ATOM     51  O   UNL     1      -1.039   2.733 -18.929  0.00  0.00    +0.000 OA
ATOM     52  C   UNL     1      -0.598   2.929 -20.053  0.00  0.00    +0.000 C 
BRANCH  52  53
ATOM     53  O   UNL     1       0.048   4.084 -20.424  0.00  0.00    +0.000 OA
ATOM     54  C   UNL     1       1.213   4.372 -19.649  0.00  0.00    +0.000 C 
ENDBRANCH  52  53
ENDBRANCH   7  52
BRANCH  20  55
ATOM     55  O   UNL     1      -7.763   0.677 -22.178  0.00  0.00    +0.000 OA
ATOM     56  C   UNL     1      -8.071   1.972 -22.686  0.00  0.00    +0.000 C 
ENDBRANCH  20  55
BRANCH   6  57
ATOM     57  C   UNL     1       0.316  -0.325 -23.345  0.00  0.00    +0.000 C 
ATOM     58  C   UNL     1      -0.755  -0.891 -24.280  0.00  0.00    +0.000 C 
ENDBRANCH   6  57
BRANCH   9  59
ATOM     59  O   UNL     1       0.637   0.449 -19.628  0.00  0.00    +0.000 OA
BRANCH  59  61
ATOM     60  O   UNL     1       2.685   1.452 -19.404  0.00  0.00    +0.000 OA
ATOM     61  C   UNL     1       1.896   0.560 -19.124  0.00  0.00    +0.000 C 
ATOM     62  C   UNL     1       2.162  -0.547 -18.152  0.00  0.00    +0.000 C 
ENDBRANCH  59  61
ENDBRANCH   9  59
TORSDOF 12
ENDMDL
MODEL 6
REMARK VINA RESULT:      -6.5      7.496     12.524
REMARK  Name = 
REMARK  19 active torsions:
REMARK  status: ('A' for Active; 'I' for Inactive)
REMARK    1  A    between atoms: O_1  and  C_20
REMARK    2  A    between atoms: O_1  and  C_36
REMARK    3  A    between atoms: O_2  and  C_18
REMARK    4  A    between atoms: O_3  and  C_28
REMARK    5  A    between atoms: O_3  and  C_42
REMARK    6  A    between atoms: O_5  and  C_34
REMARK    7  A    between atoms: O_5  and  C_50
REMARK    8  A    between atoms: O_7  and  C_40
REMARK    9  A    between atoms: O_7  and  C_56
REMARK   10  A    between atoms: O_9  and  C_46
REMARK   11  A    between atoms: N_11  and  C_30
REMARK   12  A    between atoms: C_17  and  C_23
REMARK   13  A    between atoms: C_18  and  C_28
REMARK   14  A    between atoms: C_23  and  C_32
REMARK   15  A    between atoms: C_33  and  C_35
REMARK   16  A    between atoms: C_35  and  C_40
REMARK   17  A    between atoms: C_36  and  C_41
REMARK   18  A    between atoms: C_46  and  C_53
REMARK   19  A    between atoms: C_53  and  C_57
REMARK                            x       y       z     vdW  Elec       q    Type
REMARK                         _______ _______ _______ _____ _____    ______ ____
ROOT
ATOM      1  N   UNL     1      -2.941  -0.299 -19.960  0.00  0.00    +0.000 NA
ATOM      2  N   UNL     1      -3.104   2.017 -24.130  0.00  0.00    +0.000 N 
ATOM      3  C   UNL     1      -2.985   0.820 -22.005  0.00  0.00    +0.000 C 
ATOM      4  C   UNL     1      -2.280  -0.339 -21.278  0.00  0.00    +0.000 C 
ATOM      5  C   UNL     1      -2.177   1.247 -23.247  0.00  0.00    +0.000 C 
ATOM      6  C   UNL     1      -0.686  -0.238 -21.300  0.00  0.00    +0.000 C 
ATOM      7  C   UNL     1      -0.777   1.820 -22.973  0.00  0.00    +0.000 C 
ATOM      8  C   UNL     1      -3.309   1.845 -20.902  0.00  0.00    +0.000 C 
ATOM      9  C   UNL     1      -0.155   1.217 -21.670  0.00  0.00    +0.000 C 
ATOM     10  C   UNL     1      -4.286   0.539 -22.731  0.00  0.00    +0.000 A 
ATOM     11  C   UNL     1      -3.123   1.098 -19.584  0.00  0.00    +0.000 C 
ATOM     12  C   UNL     1      -4.319   1.298 -23.909  0.00  0.00    +0.000 A 
ATOM     13  C   UNL     1      -0.079  -0.622 -19.948  0.00  0.00    +0.000 C 
ATOM     14  C   UNL     1      -2.308  -1.114 -18.934  0.00  0.00    +0.000 C 
ATOM     15  C   UNL     1      -0.816  -1.024 -18.904  0.00  0.00    +0.000 C 
ATOM     16  C   UNL     1      -5.351  -0.268 -22.344  0.00  0.00    +0.000 A 
ATOM     17  C   UNL     1      -2.731   2.161 -25.536  0.00  0.00    +0.000 C 
ATOM     18  C   UNL     1      -5.453   1.284 -24.697  0.00  0.00    +0.000 A 
ATOM     19  C   UNL     1      -6.520  -0.308 -23.129  0.00  0.00    +0.000 A 
ATOM     20  C   UNL     1      -6.548   0.496 -24.307  0.00  0.00    +0.000 A 
ENDROOT
BRANCH  19  23
ATOM     21  N   UNL     1     -10.825  -3.738 -21.061  0.00  0.00    +0.000 NA
ATOM     22  N   UNL     1      -8.829   1.031 -22.094  0.00  0.00    +0.000 N 
ATOM     23  C   UNL     1      -7.771  -1.186 -22.724  0.00  0.00    +0.000 C 
ATOM     24  C   UNL     1      -7.501  -1.990 -21.371  0.00  0.00    +0.000 C 
ATOM     25  C   UNL     1      -9.028  -0.284 -22.478  0.00  0.00    +0.000 A 
ATOM     26  C   UNL     1      -8.725  -2.604 -20.671  0.00  0.00    +0.000 C 
ATOM     27  C   UNL     1      -8.440  -3.226 -19.305  0.00  0.00    +0.000 C 
ATOM     28  C   UNL     1      -9.438  -3.674 -21.486  0.00  0.00    +0.000 C 
ATOM     29  C   UNL     1     -10.419  -0.491 -22.453  0.00  0.00    +0.000 A 
ATOM     30  C   UNL     1      -9.736  -3.790 -18.649  0.00  0.00    +0.000 C 
ATOM     31  C   UNL     1     -10.930  -4.118 -19.636  0.00  0.00    +0.000 C 
ATOM     32  C   UNL     1     -11.253  -1.740 -22.693  0.00  0.00    +0.000 C 
ATOM     33  C   UNL     1     -11.613  -2.523 -21.395  0.00  0.00    +0.000 C 
ATOM     34  C   UNL     1     -11.025   0.769 -22.090  0.00  0.00    +0.000 A 
ATOM     35  C   UNL     1     -10.008   1.688 -21.877  0.00  0.00    +0.000 A 
ATOM     36  C   UNL     1     -12.358   1.201 -21.908  0.00  0.00    +0.000 A 
ATOM     37  C   UNL     1     -10.241   3.017 -21.501  0.00  0.00    +0.000 A 
ATOM     38  C   UNL     1     -12.615   2.525 -21.534  0.00  0.00    +0.000 A 
ATOM     39  C   UNL     1     -11.568   3.419 -21.334  0.00  0.00    +0.000 A 
ATOM     40  H   UNL     1      -7.923   1.471 -22.002  0.00  0.00    +0.000 HD
BRANCH  23  42
ATOM     41  O   UNL     1      -8.926  -2.227 -24.688  0.00  0.00    +0.000 OA
ATOM     42  C   UNL     1      -7.976  -2.178 -23.917  0.00  0.00    +0.000 C 
BRANCH  42  43
ATOM     43  O   UNL     1      -6.890  -3.015 -24.021  0.00  0.00    +0.000 OA
ATOM     44  C   UNL     1      -7.224  -4.354 -24.383  0.00  0.00    +0.000 C 
ENDBRANCH  42  43
ENDBRANCH  23  42
BRANCH  30  45
ATOM     45  O   UNL     1      -9.338  -5.038 -18.028  0.00  0.00    +0.000 OA
ATOM     46  H   UNL     1      -9.124  -4.845 -17.098  0.00  0.00    +0.000 HD
ENDBRANCH  30  45
BRANCH  30  47
ATOM     47  C   UNL     1     -10.197  -2.916 -17.459  0.00  0.00    +0.000 C 
ATOM     48  C   UNL     1     -10.559  -1.475 -17.775  0.00  0.00    +0.000 C 
ENDBRANCH  30  47
ENDBRANCH  19  23
BRANCH   7  49
ATOM     49  O   UNL     1       0.061   1.345 -24.076  0.00  0.00    +0.000 OA
ATOM     50  H   UNL     1       0.514   2.138 -24.431  0.00  0.00    +0.000 HD
ENDBRANCH   7  49
BRANCH   7  52
ATOM     51  O   UNL     1      -1.640   4.112 -22.567  0.00  0.00    +0.000 OA
ATOM     52  C   UNL     1      -0.759   3.369 -22.977  0.00  0.00    +0.000 C 
BRANCH  52  53
ATOM     53  O   UNL     1       0.452   3.814 -23.447  0.00  0.00    +0.000 OA
ATOM     54  C   UNL     1       0.619   5.231 -23.369  0.00  0.00    +0.000 C 
ENDBRANCH  52  53
ENDBRANCH   7  52
BRANCH  20  55
ATOM     55  O   UNL     1      -7.672   0.422 -25.090  0.00  0.00    +0.000 OA
ATOM     56  C   UNL     1      -8.147   1.670 -25.588  0.00  0.00    +0.000 C 
ENDBRANCH  20  55
BRANCH   6  57
ATOM     57  C   UNL     1      -0.105  -1.261 -22.344  0.00  0.00    +0.000 C 
ATOM     58  C   UNL     1      -1.068  -2.332 -22.860  0.00  0.00    +0.000 C 
ENDBRANCH   6  57
BRANCH   9  59
ATOM     59  O   UNL     1      -0.356   2.077 -20.523  0.00  0.00    +0.000 OA
BRANCH  59  61
ATOM     60  O   UNL     1       1.854   2.241 -19.942  0.00  0.00    +0.000 OA
ATOM     61  C   UNL     1       0.734   2.726 -20.033  0.00  0.00    +0.000 C 
ATOM     62  C   UNL     1       0.374   4.128 -19.654  0.00  0.00    +0.000 C 
ENDBRANCH  59  61
ENDBRANCH   9  59
TORSDOF 12
ENDMDL
MODEL 7
REMARK VINA RESULT:      -6.5     11.404     16.215
REMARK  Name = 
REMARK  19 active torsions:
REMARK  status: ('A' for Active; 'I' for Inactive)
REMARK    1  A    between atoms: O_1  and  C_20
REMARK    2  A    between atoms: O_1  and  C_36
REMARK    3  A    between atoms: O_2  and  C_18
REMARK    4  A    between atoms: O_3  and  C_28
REMARK    5  A    between atoms: O_3  and  C_42
REMARK    6  A    between atoms: O_5  and  C_34
REMARK    7  A    between atoms: O_5  and  C_50
REMARK    8  A    between atoms: O_7  and  C_40
REMARK    9  A    between atoms: O_7  and  C_56
REMARK   10  A    between atoms: O_9  and  C_46
REMARK   11  A    between atoms: N_11  and  C_30
REMARK   12  A    between atoms: C_17  and  C_23
REMARK   13  A    between atoms: C_18  and  C_28
REMARK   14  A    between atoms: C_23  and  C_32
REMARK   15  A    between atoms: C_33  and  C_35
REMARK   16  A    between atoms: C_35  and  C_40
REMARK   17  A    between atoms: C_36  and  C_41
REMARK   18  A    between atoms: C_46  and  C_53
REMARK   19  A    between atoms: C_53  and  C_57
REMARK                            x       y       z     vdW  Elec       q    Type
REMARK                         _______ _______ _______ _____ _____    ______ ____
ROOT
ATOM      1  N   UNL     1      11.210  11.035 -16.249  0.00  0.00    +0.000 NA
ATOM      2  N   UNL     1      11.870  15.755 -15.996  0.00  0.00    +0.000 N 
ATOM      3  C   UNL     1      11.567  13.334 -16.108  0.00  0.00    +0.000 C 
ATOM      4  C   UNL     1      12.322  11.993 -16.106  0.00  0.00    +0.000 C 
ATOM      5  C   UNL     1      12.462  14.458 -15.550  0.00  0.00    +0.000 C 
ATOM      6  C   UNL     1      13.293  11.805 -14.851  0.00  0.00    +0.000 C 
ATOM      7  C   UNL     1      12.887  14.311 -14.079  0.00  0.00    +0.000 C 
ATOM      8  C   UNL     1      10.207  13.029 -15.451  0.00  0.00    +0.000 C 
ATOM      9  C   UNL     1      12.975  12.808 -13.655  0.00  0.00    +0.000 C 
ATOM     10  C   UNL     1      11.265  13.996 -17.439  0.00  0.00    +0.000 A 
ATOM     11  C   UNL     1      10.094  11.507 -15.439  0.00  0.00    +0.000 C 
ATOM     12  C   UNL     1      11.399  15.384 -17.293  0.00  0.00    +0.000 A 
ATOM     13  C   UNL     1      13.220  10.381 -14.292  0.00  0.00    +0.000 C 
ATOM     14  C   UNL     1      11.569   9.644 -16.015  0.00  0.00    +0.000 C 
ATOM     15  C   UNL     1      12.454   9.423 -14.832  0.00  0.00    +0.000 C 
ATOM     16  C   UNL     1      10.857  13.417 -18.635  0.00  0.00    +0.000 A 
ATOM     17  C   UNL     1      12.735  16.933 -15.978  0.00  0.00    +0.000 C 
ATOM     18  C   UNL     1      11.081  16.214 -18.350  0.00  0.00    +0.000 A 
ATOM     19  C   UNL     1      10.530  14.236 -19.734  0.00  0.00    +0.000 A 
ATOM     20  C   UNL     1      10.642  15.647 -19.558  0.00  0.00    +0.000 A 
ENDROOT
BRANCH  19  23
ATOM     21  N   UNL     1       8.660  11.395 -24.530  0.00  0.00    +0.000 NA
ATOM     22  N   UNL     1       7.812  14.694 -20.508  0.00  0.00    +0.000 N 
ATOM     23  C   UNL     1      10.035  13.633 -21.109  0.00  0.00    +0.000 C 
ATOM     24  C   UNL     1       9.851  12.049 -21.016  0.00  0.00    +0.000 C 
ATOM     25  C   UNL     1       8.645  14.233 -21.512  0.00  0.00    +0.000 A 
ATOM     26  C   UNL     1       9.054  11.374 -22.145  0.00  0.00    +0.000 C 
ATOM     27  C   UNL     1       8.771   9.888 -21.932  0.00  0.00    +0.000 C 
ATOM     28  C   UNL     1       9.698  11.493 -23.519  0.00  0.00    +0.000 C 
ATOM     29  C   UNL     1       7.918  14.357 -22.710  0.00  0.00    +0.000 A 
ATOM     30  C   UNL     1       7.930   9.291 -23.100  0.00  0.00    +0.000 C 
ATOM     31  C   UNL     1       7.977  10.084 -24.469  0.00  0.00    +0.000 C 
ATOM     32  C   UNL     1       8.252  13.947 -24.135  0.00  0.00    +0.000 C 
ATOM     33  C   UNL     1       7.714  12.540 -24.535  0.00  0.00    +0.000 C 
ATOM     34  C   UNL     1       6.649  14.958 -22.370  0.00  0.00    +0.000 A 
ATOM     35  C   UNL     1       6.621  15.153 -20.997  0.00  0.00    +0.000 A 
ATOM     36  C   UNL     1       5.510  15.337 -23.117  0.00  0.00    +0.000 A 
ATOM     37  C   UNL     1       5.528  15.714 -20.324  0.00  0.00    +0.000 A 
ATOM     38  C   UNL     1       4.407  15.900 -22.465  0.00  0.00    +0.000 A 
ATOM     39  C   UNL     1       4.418  16.085 -21.087  0.00  0.00    +0.000 A 
ATOM     40  H   UNL     1       8.054  14.715 -19.526  0.00  0.00    +0.000 HD
BRANCH  23  42
ATOM     41  O   UNL     1      11.115  14.843 -23.018  0.00  0.00    +0.000 OA
ATOM     42  C   UNL     1      11.157  13.992 -22.139  0.00  0.00    +0.000 C 
BRANCH  42  43
ATOM     43  O   UNL     1      12.270  13.218 -21.907  0.00  0.00    +0.000 OA
ATOM     44  C   UNL     1      13.138  13.099 -23.034  0.00  0.00    +0.000 C 
ENDBRANCH  42  43
ENDBRANCH  23  42
BRANCH  30  45
ATOM     45  O   UNL     1       8.495   7.978 -23.345  0.00  0.00    +0.000 OA
ATOM     46  H   UNL     1       8.871   7.988 -24.243  0.00  0.00    +0.000 HD
ENDBRANCH  30  45
BRANCH  30  47
ATOM     47  C   UNL     1       6.478   8.991 -22.658  0.00  0.00    +0.000 C 
ATOM     48  C   UNL     1       5.506   8.584 -23.751  0.00  0.00    +0.000 C 
ENDBRANCH  30  47
ENDBRANCH  19  23
BRANCH   7  49
ATOM     49  O   UNL     1      14.255  14.829 -14.015  0.00  0.00    +0.000 OA
ATOM     50  H   UNL     1      14.744  14.390 -14.741  0.00  0.00    +0.000 HD
ENDBRANCH   7  49
BRANCH   7  52
ATOM     51  O   UNL     1      10.785  15.267 -13.166  0.00  0.00    +0.000 OA
ATOM     52  C   UNL     1      12.002  15.146 -13.121  0.00  0.00    +0.000 C 
BRANCH  52  53
ATOM     53  O   UNL     1      12.782  15.691 -12.130  0.00  0.00    +0.000 OA
ATOM     54  C   UNL     1      12.120  15.809 -10.869  0.00  0.00    +0.000 C 
ENDBRANCH  52  53
ENDBRANCH   7  52
BRANCH  20  55
ATOM     55  O   UNL     1      10.361  16.439 -20.643  0.00  0.00    +0.000 OA
ATOM     56  C   UNL     1      10.128  17.813 -20.347  0.00  0.00    +0.000 C 
ENDBRANCH  20  55
BRANCH   6  57
ATOM     57  C   UNL     1      14.785  12.021 -15.299  0.00  0.00    +0.000 C 
ATOM     58  C   UNL     1      15.064  11.945 -16.802  0.00  0.00    +0.000 C 
ENDBRANCH   6  57
BRANCH   9  59
ATOM     59  O   UNL     1      11.768  12.357 -12.995  0.00  0.00    +0.000 OA
BRANCH  59  61
ATOM     60  O   UNL     1      10.841  12.094 -10.917  0.00  0.00    +0.000 OA
ATOM     61  C   UNL     1      11.818  12.203 -11.645  0.00  0.00    +0.000 C 
ATOM     62  C   UNL     1      13.241  12.151 -11.183  0.00  0.00    +0.000 C 
ENDBRANCH  59  61
ENDBRANCH   9  59
TORSDOF 12
ENDMDL
MODEL 8
REMARK VINA RESULT:      -6.5      5.774     10.489
REMARK  Name = 
REMARK  19 active torsions:
REMARK  status: ('A' for Active; 'I' for Inactive)
REMARK    1  A    between atoms: O_1  and  C_20
REMARK    2  A    between atoms: O_1  and  C_36
REMARK    3  A    between atoms: O_2  and  C_18
REMARK    4  A    between atoms: O_3  and  C_28
REMARK    5  A    between atoms: O_3  and  C_42
REMARK    6  A    between atoms: O_5  and  C_34
REMARK    7  A    between atoms: O_5  and  C_50
REMARK    8  A    between atoms: O_7  and  C_40
REMARK    9  A    between atoms: O_7  and  C_56
REMARK   10  A    between atoms: O_9  and  C_46
REMARK   11  A    between atoms: N_11  and  C_30
REMARK   12  A    between atoms: C_17  and  C_23
REMARK   13  A    between atoms: C_18  and  C_28
REMARK   14  A    between atoms: C_23  and  C_32
REMARK   15  A    between atoms: C_33  and  C_35
REMARK   16  A    between atoms: C_35  and  C_40
REMARK   17  A    between atoms: C_36  and  C_41
REMARK   18  A    between atoms: C_46  and  C_53
REMARK   19  A    between atoms: C_53  and  C_57
REMARK                            x       y       z     vdW  Elec       q    Type
REMARK                         _______ _______ _______ _____ _____    ______ ____
ROOT
ATOM      1  N   UNL     1      18.092  -2.895 -20.988  0.00  0.00    +0.000 NA
ATOM      2  N   UNL     1      14.840  -6.100 -19.599  0.00  0.00    +0.000 N 
ATOM      3  C   UNL     1      16.525  -4.468 -20.278  0.00  0.00    +0.000 C 
ATOM      4  C   UNL     1      17.666  -3.580 -19.753  0.00  0.00    +0.000 C 
ATOM      5  C   UNL     1      16.201  -5.585 -19.266  0.00  0.00    +0.000 C 
ATOM      6  C   UNL     1      18.783  -4.382 -18.939  0.00  0.00    +0.000 C 
ATOM      7  C   UNL     1      17.326  -6.599 -19.001  0.00  0.00    +0.000 C 
ATOM      8  C   UNL     1      16.929  -4.826 -21.722  0.00  0.00    +0.000 C 
ATOM      9  C   UNL     1      18.738  -5.953 -19.194  0.00  0.00    +0.000 C 
ATOM     10  C   UNL     1      15.126  -3.888 -20.351  0.00  0.00    +0.000 A 
ATOM     11  C   UNL     1      18.056  -3.860 -22.080  0.00  0.00    +0.000 C 
ATOM     12  C   UNL     1      14.204  -4.887 -20.009  0.00  0.00    +0.000 A 
ATOM     13  C   UNL     1      20.192  -3.896 -19.289  0.00  0.00    +0.000 C 
ATOM     14  C   UNL     1      19.347  -2.166 -20.880  0.00  0.00    +0.000 C 
ATOM     15  C   UNL     1      20.427  -2.895 -20.149  0.00  0.00    +0.000 C 
ATOM     16  C   UNL     1      14.723  -2.615 -20.742  0.00  0.00    +0.000 A 
ATOM     17  C   UNL     1      14.124  -6.839 -18.561  0.00  0.00    +0.000 C 
ATOM     18  C   UNL     1      12.851  -4.624 -20.095  0.00  0.00    +0.000 A 
ATOM     19  C   UNL     1      13.350  -2.314 -20.834  0.00  0.00    +0.000 A 
ATOM     20  C   UNL     1      12.426  -3.352 -20.512  0.00  0.00    +0.000 A 
ENDROOT
BRANCH  19  23
ATOM     21  N   UNL     1      10.943   2.642 -22.889  0.00  0.00    +0.000 NA
ATOM     22  N   UNL     1      11.895  -0.726 -18.947  0.00  0.00    +0.000 N 
ATOM     23  C   UNL     1      12.834  -0.893 -21.297  0.00  0.00    +0.000 C 
ATOM     24  C   UNL     1      11.598  -1.021 -22.300  0.00  0.00    +0.000 C 
ATOM     25  C   UNL     1      12.343  -0.052 -20.070  0.00  0.00    +0.000 A 
ATOM     26  C   UNL     1      10.776   0.252 -22.558  0.00  0.00    +0.000 C 
ATOM     27  C   UNL     1       9.516   0.046 -23.397  0.00  0.00    +0.000 C 
ATOM     28  C   UNL     1      11.558   1.371 -23.232  0.00  0.00    +0.000 C 
ATOM     29  C   UNL     1      12.133   1.315 -19.813  0.00  0.00    +0.000 A 
ATOM     30  C   UNL     1       8.724   1.375 -23.580  0.00  0.00    +0.000 C 
ATOM     31  C   UNL     1       9.550   2.711 -23.381  0.00  0.00    +0.000 C 
ATOM     32  C   UNL     1      12.343   2.544 -20.683  0.00  0.00    +0.000 C 
ATOM     33  C   UNL     1      11.068   3.003 -21.453  0.00  0.00    +0.000 C 
ATOM     34  C   UNL     1      11.594   1.413 -18.476  0.00  0.00    +0.000 A 
ATOM     35  C   UNL     1      11.462   0.128 -17.972  0.00  0.00    +0.000 A 
ATOM     36  C   UNL     1      11.190   2.492 -17.657  0.00  0.00    +0.000 A 
ATOM     37  C   UNL     1      10.959  -0.147 -16.694  0.00  0.00    +0.000 A 
ATOM     38  C   UNL     1      10.685   2.240 -16.376  0.00  0.00    +0.000 A 
ATOM     39  C   UNL     1      10.572   0.937 -15.903  0.00  0.00    +0.000 A 
ATOM     40  H   UNL     1      11.902  -1.733 -18.842  0.00  0.00    +0.000 HD
BRANCH  23  42
ATOM     41  O   UNL     1      14.861   0.559 -21.544  0.00  0.00    +0.000 OA
ATOM     42  C   UNL     1      14.055  -0.232 -22.019  0.00  0.00    +0.000 C 
BRANCH  42  43
ATOM     43  O   UNL     1      14.140  -0.693 -23.312  0.00  0.00    +0.000 OA
ATOM     44  C   UNL     1      15.318  -0.273 -24.000  0.00  0.00    +0.000 C 
ENDBRANCH  42  43
ENDBRANCH  23  42
BRANCH  30  45
ATOM     45  O   UNL     1       8.262   1.357 -24.954  0.00  0.00    +0.000 OA
ATOM     46  H   UNL     1       7.502   0.750 -24.997  0.00  0.00    +0.000 HD
ENDBRANCH  30  45
BRANCH  30  47
ATOM     47  C   UNL     1       7.418   1.376 -22.751  0.00  0.00    +0.000 C 
ATOM     48  C   UNL     1       7.462   2.100 -21.417  0.00  0.00    +0.000 C 
ENDBRANCH  30  47
ENDBRANCH  19  23
BRANCH   7  49
ATOM     49  O   UNL     1      17.226  -6.931 -17.578  0.00  0.00    +0.000 OA
ATOM     50  H   UNL     1      17.040  -6.086 -17.117  0.00  0.00    +0.000 HD
ENDBRANCH   7  49
BRANCH   7  52
ATOM     51  O   UNL     1      16.858  -7.990 -21.004  0.00  0.00    +0.000 OA
ATOM     52  C   UNL     1      17.153  -7.902 -19.820  0.00  0.00    +0.000 C 
BRANCH  52  53
ATOM     53  O   UNL     1      17.463  -8.985 -19.034  0.00  0.00    +0.000 OA
ATOM     54  C   UNL     1      18.137 -10.035 -19.731  0.00  0.00    +0.000 C 
ENDBRANCH  52  53
ENDBRANCH   7  52
BRANCH  20  55
ATOM     55  O   UNL     1      11.091  -3.042 -20.565  0.00  0.00    +0.000 OA
ATOM     56  C   UNL     1      10.247  -3.856 -19.755  0.00  0.00    +0.000 C 
ENDBRANCH  20  55
BRANCH   6  57
ATOM     57  C   UNL     1      18.603  -4.122 -17.398  0.00  0.00    +0.000 C 
ATOM     58  C   UNL     1      19.754  -4.564 -16.492  0.00  0.00    +0.000 C 
ENDBRANCH   6  57
BRANCH   9  59
ATOM     59  O   UNL     1      19.280  -6.213 -20.511  0.00  0.00    +0.000 OA
BRANCH  59  61
ATOM     60  O   UNL     1      20.714  -7.594 -21.644  0.00  0.00    +0.000 OA
ATOM     61  C   UNL     1      20.292  -7.117 -20.600  0.00  0.00    +0.000 C 
ATOM     62  C   UNL     1      20.838  -7.416 -19.239  0.00  0.00    +0.000 C 
ENDBRANCH  59  61
ENDBRANCH   9  59
TORSDOF 12
ENDMDL
MODEL 9
REMARK VINA RESULT:      -6.4      5.515     10.822
REMARK  Name = 
REMARK  19 active torsions:
REMARK  status: ('A' for Active; 'I' for Inactive)
REMARK    1  A    between atoms: O_1  and  C_20
REMARK    2  A    between atoms: O_1  and  C_36
REMARK    3  A    between atoms: O_2  and  C_18
REMARK    4  A    between atoms: O_3  and  C_28
REMARK    5  A    between atoms: O_3  and  C_42
REMARK    6  A    between atoms: O_5  and  C_34
REMARK    7  A    between atoms: O_5  and  C_50
REMARK    8  A    between atoms: O_7  and  C_40
REMARK    9  A    between atoms: O_7  and  C_56
REMARK   10  A    between atoms: O_9  and  C_46
REMARK   11  A    between atoms: N_11  and  C_30
REMARK   12  A    between atoms: C_17  and  C_23
REMARK   13  A    between atoms: C_18  and  C_28
REMARK   14  A    between atoms: C_23  and  C_32
REMARK   15  A    between atoms: C_33  and  C_35
REMARK   16  A    between atoms: C_35  and  C_40
REMARK   17  A    between atoms: C_36  and  C_41
REMARK   18  A    between atoms: C_46  and  C_53
REMARK   19  A    between atoms: C_53  and  C_57
REMARK                            x       y       z     vdW  Elec       q    Type
REMARK                         _______ _______ _______ _____ _____    ______ ____
ROOT
ATOM      1  N   UNL     1      11.560  -0.551 -18.382  0.00  0.00    +0.000 NA
ATOM      2  N   UNL     1      10.721   0.229 -23.015  0.00  0.00    +0.000 N 
ATOM      3  C   UNL     1      11.156  -0.132 -20.640  0.00  0.00    +0.000 C 
ATOM      4  C   UNL     1      11.844   0.474 -19.404  0.00  0.00    +0.000 C 
ATOM      5  C   UNL     1      10.951   0.944 -21.725  0.00  0.00    +0.000 C 
ATOM      6  C   UNL     1      11.389   1.972 -19.084  0.00  0.00    +0.000 C 
ATOM      7  C   UNL     1      10.015   2.106 -21.350  0.00  0.00    +0.000 C 
ATOM      8  C   UNL     1       9.948  -0.910 -20.083  0.00  0.00    +0.000 C 
ATOM      9  C   UNL     1      10.034   2.385 -19.811  0.00  0.00    +0.000 C 
ATOM     10  C   UNL     1      11.936  -1.104 -21.503  0.00  0.00    +0.000 A 
ATOM     11  C   UNL     1      10.196  -1.026 -18.581  0.00  0.00    +0.000 C 
ATOM     12  C   UNL     1      11.599  -0.886 -22.846  0.00  0.00    +0.000 A 
ATOM     13  C   UNL     1      11.194   2.192 -17.582  0.00  0.00    +0.000 C 
ATOM     14  C   UNL     1      11.856  -0.149 -17.015  0.00  0.00    +0.000 C 
ATOM     15  C   UNL     1      11.420   1.238 -16.668  0.00  0.00    +0.000 C 
ATOM     16  C   UNL     1      12.810  -2.115 -21.118  0.00  0.00    +0.000 A 
ATOM     17  C   UNL     1      10.927   0.983 -24.251  0.00  0.00    +0.000 C 
ATOM     18  C   UNL     1      12.112  -1.718 -23.822  0.00  0.00    +0.000 A 
ATOM     19  C   UNL     1      13.355  -2.977 -22.089  0.00  0.00    +0.000 A 
ATOM     20  C   UNL     1      12.976  -2.760 -23.447  0.00  0.00    +0.000 A 
ENDROOT
BRANCH  19  23
ATOM     21  N   UNL     1      16.806  -7.263 -20.017  0.00  0.00    +0.000 NA
ATOM     22  N   UNL     1      12.478  -5.661 -22.566  0.00  0.00    +0.000 N 
ATOM     23  C   UNL     1      14.332  -4.159 -21.705  0.00  0.00    +0.000 C 
ATOM     24  C   UNL     1      14.412  -4.356 -20.122  0.00  0.00    +0.000 C 
ATOM     25  C   UNL     1      13.831  -5.515 -22.310  0.00  0.00    +0.000 A 
ATOM     26  C   UNL     1      15.035  -5.667 -19.615  0.00  0.00    +0.000 C 
ATOM     27  C   UNL     1      14.947  -5.878 -18.104  0.00  0.00    +0.000 C 
ATOM     28  C   UNL     1      16.500  -5.844 -19.985  0.00  0.00    +0.000 C 
ATOM     29  C   UNL     1      14.420  -6.758 -22.604  0.00  0.00    +0.000 A 
ATOM     30  C   UNL     1      15.566  -7.243 -17.678  0.00  0.00    +0.000 C 
ATOM     31  C   UNL     1      16.602  -7.883 -18.690  0.00  0.00    +0.000 C 
ATOM     32  C   UNL     1      15.849  -7.254 -22.451  0.00  0.00    +0.000 C 
ATOM     33  C   UNL     1      16.122  -8.001 -21.111  0.00  0.00    +0.000 C 
ATOM     34  C   UNL     1      13.366  -7.617 -23.092  0.00  0.00    +0.000 A 
ATOM     35  C   UNL     1      12.178  -6.902 -23.055  0.00  0.00    +0.000 A 
ATOM     36  C   UNL     1      13.320  -8.955 -23.546  0.00  0.00    +0.000 A 
ATOM     37  C   UNL     1      10.947  -7.437 -23.453  0.00  0.00    +0.000 A 
ATOM     38  C   UNL     1      12.101  -9.510 -23.950  0.00  0.00    +0.000 A 
ATOM     39  C   UNL     1      10.931  -8.760 -23.903  0.00  0.00    +0.000 A 
ATOM     40  H   UNL     1      11.787  -4.934 -22.432  0.00  0.00    +0.000 HD
BRANCH  23  42
ATOM     41  O   UNL     1      16.290  -4.175 -23.268  0.00  0.00    +0.000 OA
ATOM     42  C   UNL     1      15.727  -3.735 -22.273  0.00  0.00    +0.000 C 
BRANCH  42  43
ATOM     43  O   UNL     1      16.263  -2.733 -21.499  0.00  0.00    +0.000 OA
ATOM     44  C   UNL     1      17.490  -2.207 -22.001  0.00  0.00    +0.000 C 
ENDBRANCH  42  43
ENDBRANCH  23  42
BRANCH  30  45
ATOM     45  O   UNL     1      16.283  -6.969 -16.447  0.00  0.00    +0.000 OA
ATOM     46  H   UNL     1      16.004  -7.635 -15.795  0.00  0.00    +0.000 HD
ENDBRANCH  30  45
BRANCH  30  47
ATOM     47  C   UNL     1      14.475  -8.253 -17.253  0.00  0.00    +0.000 C 
ATOM     48  C   UNL     1      14.135  -9.345 -18.253  0.00  0.00    +0.000 C 
ENDBRANCH  30  47
ENDBRANCH  19  23
BRANCH   7  49
ATOM     49  O   UNL     1      10.596   3.293 -21.982  0.00  0.00    +0.000 OA
ATOM     50  H   UNL     1      11.044   3.788 -21.265  0.00  0.00    +0.000 HD
ENDBRANCH   7  49
BRANCH   7  52
ATOM     51  O   UNL     1       7.943   0.868 -21.931  0.00  0.00    +0.000 OA
ATOM     52  C   UNL     1       8.580   1.911 -21.901  0.00  0.00    +0.000 C 
BRANCH  52  53
ATOM     53  O   UNL     1       8.069   3.125 -22.293  0.00  0.00    +0.000 OA
ATOM     54  C   UNL     1       7.342   3.078 -23.522  0.00  0.00    +0.000 C 
ENDBRANCH  52  53
ENDBRANCH   7  52
BRANCH  20  55
ATOM     55  O   UNL     1      13.540  -3.577 -24.394  0.00  0.00    +0.000 OA
ATOM     56  C   UNL     1      12.864  -3.609 -25.648  0.00  0.00    +0.000 C 
ENDBRANCH  20  55
BRANCH   6  57
ATOM     57  C   UNL     1      12.518   2.974 -19.528  0.00  0.00    +0.000 C 
ATOM     58  C   UNL     1      13.756   2.361 -20.185  0.00  0.00    +0.000 C 
ENDBRANCH   6  57
BRANCH   9  59
ATOM     59  O   UNL     1       8.937   1.733 -19.127  0.00  0.00    +0.000 OA
BRANCH  59  61
ATOM     60  O   UNL     1       8.008   3.736 -18.515  0.00  0.00    +0.000 OA
ATOM     61  C   UNL     1       7.931   2.525 -18.669  0.00  0.00    +0.000 C 
ATOM     62  C   UNL     1       6.704   1.705 -18.415  0.00  0.00    +0.000 C 
ENDBRANCH  59  61
ENDBRANCH   9  59
TORSDOF 12
ENDMDL
