MODEL 1
REMARK VINA RESULT:      -5.3      0.000      0.000
REMARK  Name = Vorinostat.pdbqt.pdb
REMARK  6 active torsions:
REMARK  status: ('A' for Active; 'I' for Inactive)
REMARK    1  A    between atoms: C_1  and  C_2
REMARK    2  A    between atoms: C_3  and  C_4
REMARK    3  A    between atoms: C_5  and  C_8
REMARK    4  A    between atoms: N_7  and  O_10
REMARK    5  A    between atoms: C_12  and  C_15
REMARK    6  A    between atoms: N_14  and  C_17
REMARK                            x       y       z     vdW  Elec       q    Type
REMARK                         _______ _______ _______ _____ _____    ______ ____
ROOT
ATOM      1  C   UNL     1       4.268   0.931 -18.547  0.00  0.00    +0.000 C 
ATOM      2  C   UNL     1       5.691   1.493 -18.487  0.00  0.00    +0.000 C 
ENDROOT
BRANCH   2   5
ATOM      3  O   UNL     1       7.207   3.200 -18.696  0.00  0.00    +0.000 OA
ATOM      4  N   UNL     1       7.985   1.096 -18.064  0.00  0.00    +0.000 N 
ATOM      5  C   UNL     1       7.034   2.021 -18.428  0.00  0.00    +0.000 C 
ATOM      6  H   UNL     1       7.668   0.153 -17.875  0.00  0.00    +0.000 HD
BRANCH   4   7
ATOM      7  C   UNL     1       9.362   1.346 -17.931  0.00  0.00    +0.000 A 
ATOM      8  C   UNL     1       9.944   1.136 -16.680  0.00  0.00    +0.000 A 
ATOM      9  C   UNL     1      10.155   1.788 -18.989  0.00  0.00    +0.000 A 
ATOM     10  C   UNL     1      11.305   1.368 -16.489  0.00  0.00    +0.000 A 
ATOM     11  C   UNL     1      11.517   2.019 -18.800  0.00  0.00    +0.000 A 
ATOM     12  C   UNL     1      12.091   1.809 -17.550  0.00  0.00    +0.000 A 
ENDBRANCH   4   7
ENDBRANCH   2   5
BRANCH   1  13
ATOM     13  C   UNL     1       2.845   0.368 -18.608  0.00  0.00    +0.000 C 
ATOM     14  C   UNL     1       1.422  -0.195 -18.667  0.00  0.00    +0.000 C 
BRANCH  14  15
ATOM     15  C   UNL     1      -0.001  -0.758 -18.727  0.00  0.00    +0.000 C 
ATOM     16  C   UNL     1      -1.424  -1.322 -18.785  0.00  0.00    +0.000 C 
BRANCH  16  19
ATOM     17  O   UNL     1      -3.168  -2.413 -19.846  0.00  0.00    +0.000 OA
ATOM     18  N   UNL     1      -3.514  -1.683 -17.709  0.00  0.00    +0.000 N 
ATOM     19  C   UNL     1      -2.761  -1.850 -18.838  0.00  0.00    +0.000 C 
ATOM     20  H   UNL     1      -3.182  -1.256 -16.853  0.00  0.00    +0.000 HD
BRANCH  18  21
ATOM     21  O   UNL     1      -4.821  -2.217 -17.710  0.00  0.00    +0.000 OA
ATOM     22  H   UNL     1      -4.691  -3.107 -17.316  0.00  0.00    +0.000 HD
ENDBRANCH  18  21
ENDBRANCH  16  19
ENDBRANCH  14  15
ENDBRANCH   1  13
TORSDOF 6
ENDMDL
MODEL 2
REMARK VINA RESULT:      -5.0     19.608     20.509
REMARK  Name = Vorinostat.pdbqt.pdb
REMARK  6 active torsions:
REMARK  status: ('A' for Active; 'I' for Inactive)
REMARK    1  A    between atoms: C_1  and  C_2
REMARK    2  A    between atoms: C_3  and  C_4
REMARK    3  A    between atoms: C_5  and  C_8
REMARK    4  A    between atoms: N_7  and  O_10
REMARK    5  A    between atoms: C_12  and  C_15
REMARK    6  A    between atoms: N_14  and  C_17
REMARK                            x       y       z     vdW  Elec       q    Type
REMARK                         _______ _______ _______ _____ _____    ______ ____
ROOT
ATOM      1  C   UNL     1      -2.765   0.669   0.486  0.00  0.00    +0.000 C 
ATOM      2  C   UNL     1      -1.378   1.315   0.430  0.00  0.00    +0.000 C 
ENDROOT
BRANCH   2   5
ATOM      3  O   UNL     1       0.171   2.708  -0.528  0.00  0.00    +0.000 OA
ATOM      4  N   UNL     1       0.775   1.527   1.389  0.00  0.00    +0.000 N 
ATOM      5  C   UNL     1      -0.068   1.923   0.376  0.00  0.00    +0.000 C 
ATOM      6  H   UNL     1       0.413   0.862   2.062  0.00  0.00    +0.000 HD
BRANCH   4   7
ATOM      7  C   UNL     1       2.099   1.964   1.570  0.00  0.00    +0.000 A 
ATOM      8  C   UNL     1       2.330   2.965   2.514  0.00  0.00    +0.000 A 
ATOM      9  C   UNL     1       3.173   1.441   0.851  0.00  0.00    +0.000 A 
ATOM     10  C   UNL     1       3.621   3.438   2.737  0.00  0.00    +0.000 A 
ATOM     11  C   UNL     1       4.465   1.912   1.072  0.00  0.00    +0.000 A 
ATOM     12  C   UNL     1       4.689   2.911   2.016  0.00  0.00    +0.000 A 
ENDBRANCH   4   7
ENDBRANCH   2   5
BRANCH   1  13
ATOM     13  C   UNL     1      -4.152   0.023   0.541  0.00  0.00    +0.000 C 
ATOM     14  C   UNL     1      -5.540  -0.624   0.596  0.00  0.00    +0.000 C 
BRANCH  14  15
ATOM     15  C   UNL     1      -6.926  -1.271   0.651  0.00  0.00    +0.000 C 
ATOM     16  C   UNL     1      -8.314  -1.918   0.705  0.00  0.00    +0.000 C 
BRANCH  16  19
ATOM     17  O   UNL     1      -9.897  -3.327   1.637  0.00  0.00    +0.000 OA
ATOM     18  N   UNL     1     -10.489  -2.147  -0.229  0.00  0.00    +0.000 N 
ATOM     19  C   UNL     1      -9.617  -2.526   0.753  0.00  0.00    +0.000 C 
ATOM     20  H   UNL     1     -10.289  -1.458  -0.942  0.00  0.00    +0.000 HD
BRANCH  18  21
ATOM     21  O   UNL     1     -11.789  -2.697  -0.196  0.00  0.00    +0.000 OA
ATOM     22  H   UNL     1     -11.731  -3.346   0.540  0.00  0.00    +0.000 HD
ENDBRANCH  18  21
ENDBRANCH  16  19
ENDBRANCH  14  15
ENDBRANCH   1  13
TORSDOF 6
ENDMDL
MODEL 3
REMARK VINA RESULT:      -4.9     13.791     14.981
REMARK  Name = Vorinostat.pdbqt.pdb
REMARK  6 active torsions:
REMARK  status: ('A' for Active; 'I' for Inactive)
REMARK    1  A    between atoms: C_1  and  C_2
REMARK    2  A    between atoms: C_3  and  C_4
REMARK    3  A    between atoms: C_5  and  C_8
REMARK    4  A    between atoms: N_7  and  O_10
REMARK    5  A    between atoms: C_12  and  C_15
REMARK    6  A    between atoms: N_14  and  C_17
REMARK                            x       y       z     vdW  Elec       q    Type
REMARK                         _______ _______ _______ _____ _____    ______ ____
ROOT
ATOM      1  C   UNL     1      12.584  10.663 -18.860  0.00  0.00    +0.000 C 
ATOM      2  C   UNL     1      13.007  10.815 -20.324  0.00  0.00    +0.000 C 
ENDROOT
BRANCH   2   5
ATOM      3  O   UNL     1      14.598  11.065 -21.957  0.00  0.00    +0.000 OA
ATOM      4  N   UNL     1      12.359  10.952 -22.596  0.00  0.00    +0.000 N 
ATOM      5  C   UNL     1      13.408  10.957 -21.705  0.00  0.00    +0.000 C 
ATOM      6  H   UNL     1      11.426  10.853 -22.214  0.00  0.00    +0.000 HD
BRANCH   4   7
ATOM      7  C   UNL     1      12.470  11.075 -23.991  0.00  0.00    +0.000 A 
ATOM      8  C   UNL     1      12.237   9.937 -24.765  0.00  0.00    +0.000 A 
ATOM      9  C   UNL     1      12.799  12.274 -24.621  0.00  0.00    +0.000 A 
ATOM     10  C   UNL     1      12.332   9.997 -26.154  0.00  0.00    +0.000 A 
ATOM     11  C   UNL     1      12.894  12.337 -26.010  0.00  0.00    +0.000 A 
ATOM     12  C   UNL     1      12.661  11.198 -26.776  0.00  0.00    +0.000 A 
ENDBRANCH   4   7
ENDBRANCH   2   5
BRANCH   1  13
ATOM     13  C   UNL     1      12.162  10.510 -17.396  0.00  0.00    +0.000 C 
ATOM     14  C   UNL     1      11.740  10.355 -15.932  0.00  0.00    +0.000 C 
BRANCH  14  15
ATOM     15  C   UNL     1      11.317  10.201 -14.468  0.00  0.00    +0.000 C 
ATOM     16  C   UNL     1      10.894  10.045 -13.004  0.00  0.00    +0.000 C 
BRANCH  16  19
ATOM     17  O   UNL     1       9.880   8.903 -11.265  0.00  0.00    +0.000 OA
ATOM     18  N   UNL     1      10.851  10.916 -10.792  0.00  0.00    +0.000 N 
ATOM     19  C   UNL     1      10.495   9.897 -11.630  0.00  0.00    +0.000 C 
ATOM     20  H   UNL     1      11.393  11.726 -11.067  0.00  0.00    +0.000 HD
BRANCH  18  21
ATOM     21  O   UNL     1      10.507  10.793  -9.428  0.00  0.00    +0.000 OA
ATOM     22  H   UNL     1      10.019   9.940  -9.405  0.00  0.00    +0.000 HD
ENDBRANCH  18  21
ENDBRANCH  16  19
ENDBRANCH  14  15
ENDBRANCH   1  13
TORSDOF 6
ENDMDL
MODEL 4
REMARK VINA RESULT:      -4.9      2.222     11.983
REMARK  Name = Vorinostat.pdbqt.pdb
REMARK  6 active torsions:
REMARK  status: ('A' for Active; 'I' for Inactive)
REMARK    1  A    between atoms: C_1  and  C_2
REMARK    2  A    between atoms: C_3  and  C_4
REMARK    3  A    between atoms: C_5  and  C_8
REMARK    4  A    between atoms: N_7  and  O_10
REMARK    5  A    between atoms: C_12  and  C_15
REMARK    6  A    between atoms: N_14  and  C_17
REMARK                            x       y       z     vdW  Elec       q    Type
REMARK                         _______ _______ _______ _____ _____    ______ ____
ROOT
ATOM      1  C   UNL     1       2.206  -0.326 -18.803  0.00  0.00    +0.000 C 
ATOM      2  C   UNL     1       0.830  -0.990 -18.907  0.00  0.00    +0.000 C 
ENDROOT
BRANCH   2   5
ATOM      3  O   UNL     1      -0.523  -2.796 -19.314  0.00  0.00    +0.000 OA
ATOM      4  N   UNL     1      -1.519  -0.772 -18.725  0.00  0.00    +0.000 N 
ATOM      5  C   UNL     1      -0.468  -1.616 -19.004  0.00  0.00    +0.000 C 
ATOM      6  H   UNL     1      -1.294   0.186 -18.484  0.00  0.00    +0.000 HD
BRANCH   4   7
ATOM      7  C   UNL     1      -2.880  -1.123 -18.747  0.00  0.00    +0.000 A 
ATOM      8  C   UNL     1      -3.506  -1.378 -17.526  0.00  0.00    +0.000 A 
ATOM      9  C   UNL     1      -3.615  -1.225 -19.927  0.00  0.00    +0.000 A 
ATOM     10  C   UNL     1      -4.853  -1.731 -17.485  0.00  0.00    +0.000 A 
ATOM     11  C   UNL     1      -4.963  -1.578 -19.889  0.00  0.00    +0.000 A 
ATOM     12  C   UNL     1      -5.582  -1.830 -18.668  0.00  0.00    +0.000 A 
ENDBRANCH   4   7
ENDBRANCH   2   5
BRANCH   1  13
ATOM     13  C   UNL     1       3.581   0.339 -18.702  0.00  0.00    +0.000 C 
ATOM     14  C   UNL     1       4.958   1.005 -18.601  0.00  0.00    +0.000 C 
BRANCH  14  15
ATOM     15  C   UNL     1       6.333   1.669 -18.501  0.00  0.00    +0.000 C 
ATOM     16  C   UNL     1       7.709   2.335 -18.401  0.00  0.00    +0.000 C 
BRANCH  16  19
ATOM     17  O   UNL     1       9.107   4.105 -17.877  0.00  0.00    +0.000 OA
ATOM     18  N   UNL     1      10.063   2.205 -18.712  0.00  0.00    +0.000 N 
ATOM     19  C   UNL     1       9.000   2.962 -18.306  0.00  0.00    +0.000 C 
ATOM     20  H   UNL     1       9.999   1.247 -19.032  0.00  0.00    +0.000 HD
BRANCH  18  21
ATOM     21  O   UNL     1      11.351   2.774 -18.603  0.00  0.00    +0.000 OA
ATOM     22  H   UNL     1      11.916   1.993 -18.412  0.00  0.00    +0.000 HD
ENDBRANCH  18  21
ENDBRANCH  16  19
ENDBRANCH  14  15
ENDBRANCH   1  13
TORSDOF 6
ENDMDL
MODEL 5
REMARK VINA RESULT:      -4.7     11.224     15.883
REMARK  Name = Vorinostat.pdbqt.pdb
REMARK  6 active torsions:
REMARK  status: ('A' for Active; 'I' for Inactive)
REMARK    1  A    between atoms: C_1  and  C_2
REMARK    2  A    between atoms: C_3  and  C_4
REMARK    3  A    between atoms: C_5  and  C_8
REMARK    4  A    between atoms: N_7  and  O_10
REMARK    5  A    between atoms: C_12  and  C_15
REMARK    6  A    between atoms: N_14  and  C_17
REMARK                            x       y       z     vdW  Elec       q    Type
REMARK                         _______ _______ _______ _____ _____    ______ ____
ROOT
ATOM      1  C   UNL     1     -10.373  -2.664 -22.415  0.00  0.00    +0.000 C 
ATOM      2  C   UNL     1      -9.436  -2.062 -21.364  0.00  0.00    +0.000 C 
ENDROOT
BRANCH   2   5
ATOM      3  O   UNL     1      -9.023  -0.735 -19.541  0.00  0.00    +0.000 OA
ATOM      4  N   UNL     1      -7.243  -1.903 -20.490  0.00  0.00    +0.000 N 
ATOM      5  C   UNL     1      -8.552  -1.497 -20.371  0.00  0.00    +0.000 C 
ATOM      6  H   UNL     1      -7.022  -2.544 -21.242  0.00  0.00    +0.000 HD
BRANCH   4   7
ATOM      7  C   UNL     1      -6.183  -1.505 -19.657  0.00  0.00    +0.000 A 
ATOM      8  C   UNL     1      -5.984  -2.215 -18.473  0.00  0.00    +0.000 A 
ATOM      9  C   UNL     1      -5.337  -0.441 -19.968  0.00  0.00    +0.000 A 
ATOM     10  C   UNL     1      -4.949  -1.866 -17.607  0.00  0.00    +0.000 A 
ATOM     11  C   UNL     1      -4.301  -0.090 -19.104  0.00  0.00    +0.000 A 
ATOM     12  C   UNL     1      -4.107  -0.803 -17.923  0.00  0.00    +0.000 A 
ENDBRANCH   4   7
ENDBRANCH   2   5
BRANCH   1  13
ATOM     13  C   UNL     1     -11.309  -3.266 -23.467  0.00  0.00    +0.000 C 
ATOM     14  C   UNL     1     -12.245  -3.870 -24.518  0.00  0.00    +0.000 C 
BRANCH  14  15
ATOM     15  C   UNL     1     -13.180  -4.474 -25.570  0.00  0.00    +0.000 C 
ATOM     16  C   UNL     1     -14.117  -5.079 -26.621  0.00  0.00    +0.000 C 
BRANCH  16  19
ATOM     17  O   UNL     1     -15.282  -5.023 -28.620  0.00  0.00    +0.000 OA
ATOM     18  N   UNL     1     -15.469  -6.902 -27.332  0.00  0.00    +0.000 N 
ATOM     19  C   UNL     1     -14.997  -5.648 -27.606  0.00  0.00    +0.000 C 
ATOM     20  H   UNL     1     -15.212  -7.449 -26.520  0.00  0.00    +0.000 HD
BRANCH  18  21
ATOM     21  O   UNL     1     -16.310  -7.508 -28.291  0.00  0.00    +0.000 OA
ATOM     22  H   UNL     1     -16.080  -7.025 -29.115  0.00  0.00    +0.000 HD
ENDBRANCH  18  21
ENDBRANCH  16  19
ENDBRANCH  14  15
ENDBRANCH   1  13
TORSDOF 6
ENDMDL
MODEL 6
REMARK VINA RESULT:      -4.6     19.283     19.987
REMARK  Name = Vorinostat.pdbqt.pdb
REMARK  6 active torsions:
REMARK  status: ('A' for Active; 'I' for Inactive)
REMARK    1  A    between atoms: C_1  and  C_2
REMARK    2  A    between atoms: C_3  and  C_4
REMARK    3  A    between atoms: C_5  and  C_8
REMARK    4  A    between atoms: N_7  and  O_10
REMARK    5  A    between atoms: C_12  and  C_15
REMARK    6  A    between atoms: N_14  and  C_17
REMARK                            x       y       z     vdW  Elec       q    Type
REMARK                         _______ _______ _______ _____ _____    ______ ____
ROOT
ATOM      1  C   UNL     1      -1.512   1.110   1.370  0.00  0.00    +0.000 C 
ATOM      2  C   UNL     1      -0.079   1.499   1.746  0.00  0.00    +0.000 C 
ENDROOT
BRANCH   2   5
ATOM      3  O   UNL     1       1.562   1.942   3.284  0.00  0.00    +0.000 OA
ATOM      4  N   UNL     1       2.095   2.086   1.020  0.00  0.00    +0.000 N 
ATOM      5  C   UNL     1       1.272   1.864   2.101  0.00  0.00    +0.000 C 
ATOM      6  H   UNL     1       1.690   1.978   0.098  0.00  0.00    +0.000 HD
BRANCH   4   7
ATOM      7  C   UNL     1       3.450   2.453   1.084  0.00  0.00    +0.000 A 
ATOM      8  C   UNL     1       4.240   1.855   2.067  0.00  0.00    +0.000 A 
ATOM      9  C   UNL     1       4.025   3.378   0.214  0.00  0.00    +0.000 A 
ATOM     10  C   UNL     1       5.590   2.179   2.180  0.00  0.00    +0.000 A 
ATOM     11  C   UNL     1       5.376   3.704   0.324  0.00  0.00    +0.000 A 
ATOM     12  C   UNL     1       6.158   3.103   1.307  0.00  0.00    +0.000 A 
ENDBRANCH   4   7
ENDBRANCH   2   5
BRANCH   1  13
ATOM     13  C   UNL     1      -2.944   0.720   0.992  0.00  0.00    +0.000 C 
ATOM     14  C   UNL     1      -4.377   0.330   0.615  0.00  0.00    +0.000 C 
BRANCH  14  15
ATOM     15  C   UNL     1      -5.808  -0.061   0.239  0.00  0.00    +0.000 C 
ATOM     16  C   UNL     1      -7.241  -0.452  -0.139  0.00  0.00    +0.000 C 
BRANCH  16  19
ATOM     17  O   UNL     1      -9.527  -0.498   0.218  0.00  0.00    +0.000 OA
ATOM     18  N   UNL     1      -8.723  -1.526  -1.657  0.00  0.00    +0.000 N 
ATOM     19  C   UNL     1      -8.585  -0.819  -0.495  0.00  0.00    +0.000 C 
ATOM     20  H   UNL     1      -7.961  -1.766  -2.279  0.00  0.00    +0.000 HD
BRANCH  18  21
ATOM     21  O   UNL     1     -10.030  -1.877  -2.058  0.00  0.00    +0.000 OA
ATOM     22  H   UNL     1     -10.221  -1.225  -2.767  0.00  0.00    +0.000 HD
ENDBRANCH  18  21
ENDBRANCH  16  19
ENDBRANCH  14  15
ENDBRANCH   1  13
TORSDOF 6
ENDMDL
MODEL 7
REMARK VINA RESULT:      -4.6     20.544     24.588
REMARK  Name = Vorinostat.pdbqt.pdb
REMARK  6 active torsions:
REMARK  status: ('A' for Active; 'I' for Inactive)
REMARK    1  A    between atoms: C_1  and  C_2
REMARK    2  A    between atoms: C_3  and  C_4
REMARK    3  A    between atoms: C_5  and  C_8
REMARK    4  A    between atoms: N_7  and  O_10
REMARK    5  A    between atoms: C_12  and  C_15
REMARK    6  A    between atoms: N_14  and  C_17
REMARK                            x       y       z     vdW  Elec       q    Type
REMARK                         _______ _______ _______ _____ _____    ______ ____
ROOT
ATOM      1  C   UNL     1     -13.443  10.915  -7.658  0.00  0.00    +0.000 C 
ATOM      2  C   UNL     1     -14.074  12.286  -7.397  0.00  0.00    +0.000 C 
ENDROOT
BRANCH   2   5
ATOM      3  O   UNL     1     -15.880  13.646  -7.019  0.00  0.00    +0.000 OA
ATOM      4  N   UNL     1     -13.760  14.612  -7.099  0.00  0.00    +0.000 N 
ATOM      5  C   UNL     1     -14.668  13.579  -7.153  0.00  0.00    +0.000 C 
ATOM      6  H   UNL     1     -12.784  14.380  -7.233  0.00  0.00    +0.000 HD
BRANCH   4   7
ATOM      7  C   UNL     1     -14.071  15.964  -6.876  0.00  0.00    +0.000 A 
ATOM      8  C   UNL     1     -14.212  16.390  -5.554  0.00  0.00    +0.000 A 
ATOM      9  C   UNL     1     -14.240  16.882  -7.911  0.00  0.00    +0.000 A 
ATOM     10  C   UNL     1     -14.519  17.719  -5.271  0.00  0.00    +0.000 A 
ATOM     11  C   UNL     1     -14.548  18.213  -7.631  0.00  0.00    +0.000 A 
ATOM     12  C   UNL     1     -14.687  18.630  -6.310  0.00  0.00    +0.000 A 
ENDBRANCH   4   7
ENDBRANCH   2   5
BRANCH   1  13
ATOM     13  C   UNL     1     -12.813   9.544  -7.920  0.00  0.00    +0.000 C 
ATOM     14  C   UNL     1     -12.182   8.173  -8.182  0.00  0.00    +0.000 C 
BRANCH  14  15
ATOM     15  C   UNL     1     -11.551   6.803  -8.444  0.00  0.00    +0.000 C 
ATOM     16  C   UNL     1     -10.918   5.432  -8.707  0.00  0.00    +0.000 C 
BRANCH  16  19
ATOM     17  O   UNL     1      -9.668   3.949  -9.969  0.00  0.00    +0.000 OA
ATOM     18  N   UNL     1     -10.532   3.197  -7.992  0.00  0.00    +0.000 N 
ATOM     19  C   UNL     1     -10.322   4.147  -8.953  0.00  0.00    +0.000 C 
ATOM     20  H   UNL     1     -11.036   3.354  -7.128  0.00  0.00    +0.000 HD
BRANCH  18  21
ATOM     21  O   UNL     1      -9.935   1.931  -8.182  0.00  0.00    +0.000 OA
ATOM     22  H   UNL     1     -10.377   1.380  -7.499  0.00  0.00    +0.000 HD
ENDBRANCH  18  21
ENDBRANCH  16  19
ENDBRANCH  14  15
ENDBRANCH   1  13
TORSDOF 6
ENDMDL
MODEL 8
REMARK VINA RESULT:      -4.5     20.803     24.392
REMARK  Name = Vorinostat.pdbqt.pdb
REMARK  6 active torsions:
REMARK  status: ('A' for Active; 'I' for Inactive)
REMARK    1  A    between atoms: C_1  and  C_2
REMARK    2  A    between atoms: C_3  and  C_4
REMARK    3  A    between atoms: C_5  and  C_8
REMARK    4  A    between atoms: N_7  and  O_10
REMARK    5  A    between atoms: C_12  and  C_15
REMARK    6  A    between atoms: N_14  and  C_17
REMARK                            x       y       z     vdW  Elec       q    Type
REMARK                         _______ _______ _______ _____ _____    ______ ____
ROOT
ATOM      1  C   UNL     1     -12.051  10.296  -5.305  0.00  0.00    +0.000 C 
ATOM      2  C   UNL     1     -12.453  11.610  -4.628  0.00  0.00    +0.000 C 
ENDROOT
BRANCH   2   5
ATOM      3  O   UNL     1     -13.366  12.799  -2.894  0.00  0.00    +0.000 OA
ATOM      4  N   UNL     1     -12.534  13.972  -4.728  0.00  0.00    +0.000 N 
ATOM      5  C   UNL     1     -12.833  12.849  -3.991  0.00  0.00    +0.000 C 
ATOM      6  H   UNL     1     -12.088  13.834  -5.626  0.00  0.00    +0.000 HD
BRANCH   4   7
ATOM      7  C   UNL     1     -12.797  15.298  -4.341  0.00  0.00    +0.000 A 
ATOM      8  C   UNL     1     -11.763  16.017  -3.739  0.00  0.00    +0.000 A 
ATOM      9  C   UNL     1     -14.033  15.912  -4.537  0.00  0.00    +0.000 A 
ATOM     10  C   UNL     1     -11.964  17.335  -3.335  0.00  0.00    +0.000 A 
ATOM     11  C   UNL     1     -14.236  17.231  -4.134  0.00  0.00    +0.000 A 
ATOM     12  C   UNL     1     -13.201  17.942  -3.533  0.00  0.00    +0.000 A 
ENDBRANCH   4   7
ENDBRANCH   2   5
BRANCH   1  13
ATOM     13  C   UNL     1     -11.651   8.983  -5.983  0.00  0.00    +0.000 C 
ATOM     14  C   UNL     1     -11.251   7.668  -6.660  0.00  0.00    +0.000 C 
BRANCH  14  15
ATOM     15  C   UNL     1     -10.852   6.354  -7.337  0.00  0.00    +0.000 C 
ATOM     16  C   UNL     1     -10.451   5.039  -8.014  0.00  0.00    +0.000 C 
BRANCH  16  19
ATOM     17  O   UNL     1      -9.596   3.807  -9.776  0.00  0.00    +0.000 OA
ATOM     18  N   UNL     1     -10.276   2.670  -7.915  0.00  0.00    +0.000 N 
ATOM     19  C   UNL     1     -10.073   3.805  -8.648  0.00  0.00    +0.000 C 
ATOM     20  H   UNL     1     -10.632   2.652  -6.967  0.00  0.00    +0.000 HD
BRANCH  18  21
ATOM     21  O   UNL     1      -9.887   1.440  -8.491  0.00  0.00    +0.000 OA
ATOM     22  H   UNL     1      -8.971   1.624  -8.793  0.00  0.00    +0.000 HD
ENDBRANCH  18  21
ENDBRANCH  16  19
ENDBRANCH  14  15
ENDBRANCH   1  13
TORSDOF 6
ENDMDL
MODEL 9
REMARK VINA RESULT:      -4.5     15.571     18.123
REMARK  Name = Vorinostat.pdbqt.pdb
REMARK  6 active torsions:
REMARK  status: ('A' for Active; 'I' for Inactive)
REMARK    1  A    between atoms: C_1  and  C_2
REMARK    2  A    between atoms: C_3  and  C_4
REMARK    3  A    between atoms: C_5  and  C_8
REMARK    4  A    between atoms: N_7  and  O_10
REMARK    5  A    between atoms: C_12  and  C_15
REMARK    6  A    between atoms: N_14  and  C_17
REMARK                            x       y       z     vdW  Elec       q    Type
REMARK                         _______ _______ _______ _____ _____    ______ ____
ROOT
ATOM      1  C   UNL     1      -2.231  14.146 -19.369  0.00  0.00    +0.000 C 
ATOM      2  C   UNL     1      -3.277  14.750 -18.427  0.00  0.00    +0.000 C 
ENDROOT
BRANCH   2   5
ATOM      3  O   UNL     1      -5.327  15.689 -18.011  0.00  0.00    +0.000 OA
ATOM      4  N   UNL     1      -3.864  15.378 -16.223  0.00  0.00    +0.000 N 
ATOM      5  C   UNL     1      -4.263  15.321 -17.539  0.00  0.00    +0.000 C 
ATOM      6  H   UNL     1      -2.941  15.026 -16.001  0.00  0.00    +0.000 HD
BRANCH   4   7
ATOM      7  C   UNL     1      -4.628  15.885 -15.157  0.00  0.00    +0.000 A 
ATOM      8  C   UNL     1      -4.190  17.060 -14.544  0.00  0.00    +0.000 A 
ATOM      9  C   UNL     1      -5.790  15.267 -14.699  0.00  0.00    +0.000 A 
ATOM     10  C   UNL     1      -4.906  17.609 -13.483  0.00  0.00    +0.000 A 
ATOM     11  C   UNL     1      -6.509  15.815 -13.638  0.00  0.00    +0.000 A 
ATOM     12  C   UNL     1      -6.066  16.986 -13.030  0.00  0.00    +0.000 A 
ENDBRANCH   4   7
ENDBRANCH   2   5
BRANCH   1  13
ATOM     13  C   UNL     1      -1.185  13.544 -20.310  0.00  0.00    +0.000 C 
ATOM     14  C   UNL     1      -0.137  12.943 -21.252  0.00  0.00    +0.000 C 
BRANCH  14  15
ATOM     15  C   UNL     1       0.910  12.342 -22.194  0.00  0.00    +0.000 C 
ATOM     16  C   UNL     1       1.958  11.742 -23.137  0.00  0.00    +0.000 C 
BRANCH  16  19
ATOM     17  O   UNL     1       3.733  10.336 -23.620  0.00  0.00    +0.000 OA
ATOM     18  N   UNL     1       2.922  11.644 -25.309  0.00  0.00    +0.000 N 
ATOM     19  C   UNL     1       2.942  11.181 -24.023  0.00  0.00    +0.000 C 
ATOM     20  H   UNL     1       2.252  12.311 -25.670  0.00  0.00    +0.000 HD
BRANCH  18  21
ATOM     21  O   UNL     1       3.852  11.093 -26.218  0.00  0.00    +0.000 OA
ATOM     22  H   UNL     1       4.076  10.232 -25.802  0.00  0.00    +0.000 HD
ENDBRANCH  18  21
ENDBRANCH  16  19
ENDBRANCH  14  15
ENDBRANCH   1  13
TORSDOF 6
ENDMDL
