MODEL 1
REMARK VINA RESULT:      -7.1      0.000      0.000
REMARK  Name = 10074640_Masitinib.pdbqt.pdb
REMARK  6 active torsions:
REMARK  status: ('A' for Active; 'I' for Inactive)
REMARK    1  A    between atoms: C_1  and  N_22
REMARK    2  A    between atoms: C_2  and  N_9
REMARK    3  A    between atoms: C_12  and  C_16
REMARK    4  A    between atoms: C_23  and  C_30
REMARK    5  A    between atoms: C_25  and  C_31
REMARK    6  A    between atoms: C_31  and  N_32
REMARK                            x       y       z     vdW  Elec       q    Type
REMARK                         _______ _______ _______ _____ _____    ______ ____
ROOT
ATOM      1  C   UNL     1     -33.962  44.757  -7.226  0.00  0.00    +0.000 A 
ATOM      2  C   UNL     1     -34.055  43.309  -5.252  0.00  0.00    +0.000 A 
ATOM      3  C   UNL     1     -34.505  43.677  -6.527  0.00  0.00    +0.000 A 
ATOM      4  C   UNL     1     -33.018  44.080  -4.689  0.00  0.00    +0.000 A 
ATOM      5  C   UNL     1     -32.922  45.484  -6.650  0.00  0.00    +0.000 A 
ATOM      6  C   UNL     1     -32.457  45.154  -5.380  0.00  0.00    +0.000 A 
ATOM      7  C   UNL     1     -32.480  43.759  -3.309  0.00  0.00    +0.000 C 
ENDROOT
BRANCH   2   9
ATOM      8  S   UNL     1     -35.239  39.668  -3.975  0.00  0.00    +0.000 S 
ATOM      9  N   UNL     1     -34.579  42.187  -4.567  0.00  0.00    +0.000 N 
ATOM     10  N   UNL     1     -33.577  40.407  -5.785  0.00  0.00    +0.000 NA
ATOM     11  C   UNL     1     -34.389  40.883  -4.867  0.00  0.00    +0.000 A 
ATOM     12  C   UNL     1     -33.633  39.027  -5.834  0.00  0.00    +0.000 A 
ATOM     13  C   UNL     1     -34.490  38.471  -4.916  0.00  0.00    +0.000 A 
ATOM     14  H   UNL     1     -35.140  42.431  -3.753  0.00  0.00    +0.000 HD
BRANCH  12  16
ATOM     15  N   UNL     1     -31.362  38.244  -8.693  0.00  0.00    +0.000 NA
ATOM     16  C   UNL     1     -32.836  38.262  -6.767  0.00  0.00    +0.000 A 
ATOM     17  C   UNL     1     -32.707  36.880  -6.664  0.00  0.00    +0.000 A 
ATOM     18  C   UNL     1     -32.151  38.890  -7.798  0.00  0.00    +0.000 A 
ATOM     19  C   UNL     1     -31.918  36.178  -7.568  0.00  0.00    +0.000 A 
ATOM     20  C   UNL     1     -31.272  36.904  -8.555  0.00  0.00    +0.000 A 
ENDBRANCH  12  16
ENDBRANCH   2   9
BRANCH   1  22
ATOM     21  O   UNL     1     -32.999  43.814  -9.799  0.00  0.00    +0.000 OA
ATOM     22  N   UNL     1     -34.403  45.137  -8.509  0.00  0.00    +0.000 N 
ATOM     23  C   UNL     1     -33.862  44.678  -9.701  0.00  0.00    +0.000 C 
ATOM     24  H   UNL     1     -35.193  45.771  -8.539  0.00  0.00    +0.000 HD
BRANCH  23  30
ATOM     25  C   UNL     1     -35.339  46.397 -13.319  0.00  0.00    +0.000 A 
ATOM     26  C   UNL     1     -36.128  46.445 -12.173  0.00  0.00    +0.000 A 
ATOM     27  C   UNL     1     -34.086  45.792 -13.285  0.00  0.00    +0.000 A 
ATOM     28  C   UNL     1     -35.661  45.885 -10.986  0.00  0.00    +0.000 A 
ATOM     29  C   UNL     1     -33.620  45.232 -12.098  0.00  0.00    +0.000 A 
ATOM     30  C   UNL     1     -34.407  45.275 -10.944  0.00  0.00    +0.000 A 
BRANCH  25  31
ATOM     31  C   UNL     1     -35.817  46.972 -14.534  0.00  0.00    +0.000 C 
BRANCH  31  32
ATOM     32  N   UNL     1     -36.307  47.559 -15.775  0.00  0.00    +0.000 N 
ATOM     33  N   UNL     1     -33.938  47.751 -18.412  0.00  0.00    +0.000 N 
ATOM     34  C   UNL     1     -35.333  48.615 -16.167  0.00  0.00    +0.000 C 
ATOM     35  C   UNL     1     -35.953  46.613 -16.870  0.00  0.00    +0.000 C 
ATOM     36  C   UNL     1     -34.301  48.703 -17.328  0.00  0.00    +0.000 C 
ATOM     37  C   UNL     1     -34.921  46.700 -18.030  0.00  0.00    +0.000 C 
ATOM     38  C   UNL     1     -34.402  48.333 -19.664  0.00  0.00    +0.000 C 
ENDBRANCH  31  32
ENDBRANCH  25  31
ENDBRANCH  23  30
ENDBRANCH   1  22
TORSDOF 6
ENDMDL
MODEL 2
REMARK VINA RESULT:      -7.0     22.035     25.862
REMARK  Name = 10074640_Masitinib.pdbqt.pdb
REMARK  6 active torsions:
REMARK  status: ('A' for Active; 'I' for Inactive)
REMARK    1  A    between atoms: C_1  and  N_22
REMARK    2  A    between atoms: C_2  and  N_9
REMARK    3  A    between atoms: C_12  and  C_16
REMARK    4  A    between atoms: C_23  and  C_30
REMARK    5  A    between atoms: C_25  and  C_31
REMARK    6  A    between atoms: C_31  and  N_32
REMARK                            x       y       z     vdW  Elec       q    Type
REMARK                         _______ _______ _______ _____ _____    ______ ____
ROOT
ATOM      1  C   UNL     1     -18.220  53.232 -28.346  0.00  0.00    +0.000 A 
ATOM      2  C   UNL     1     -16.488  52.289 -26.893  0.00  0.00    +0.000 A 
ATOM      3  C   UNL     1     -17.357  52.195 -27.989  0.00  0.00    +0.000 A 
ATOM      4  C   UNL     1     -16.517  53.487 -26.152  0.00  0.00    +0.000 A 
ATOM      5  C   UNL     1     -18.207  54.412 -27.606  0.00  0.00    +0.000 A 
ATOM      6  C   UNL     1     -17.364  54.538 -26.505  0.00  0.00    +0.000 A 
ATOM      7  C   UNL     1     -15.619  53.669 -24.945  0.00  0.00    +0.000 C 
ENDROOT
BRANCH   2   9
ATOM      8  S   UNL     1     -14.630  48.910 -25.704  0.00  0.00    +0.000 S 
ATOM      9  N   UNL     1     -15.585  51.252 -26.561  0.00  0.00    +0.000 N 
ATOM     10  N   UNL     1     -17.087  49.440 -26.219  0.00  0.00    +0.000 NA
ATOM     11  C   UNL     1     -15.891  49.984 -26.205  0.00  0.00    +0.000 A 
ATOM     12  C   UNL     1     -17.044  48.128 -25.786  0.00  0.00    +0.000 A 
ATOM     13  C   UNL     1     -15.783  47.688 -25.466  0.00  0.00    +0.000 A 
ATOM     14  H   UNL     1     -14.607  51.525 -26.628  0.00  0.00    +0.000 HD
BRANCH  12  16
ATOM     15  N   UNL     1     -19.729  45.971 -24.344  0.00  0.00    +0.000 NA
ATOM     16  C   UNL     1     -18.234  47.310 -25.705  0.00  0.00    +0.000 A 
ATOM     17  C   UNL     1     -19.052  47.090 -26.809  0.00  0.00    +0.000 A 
ATOM     18  C   UNL     1     -18.613  46.725 -24.505  0.00  0.00    +0.000 A 
ATOM     19  C   UNL     1     -20.198  46.311 -26.690  0.00  0.00    +0.000 A 
ATOM     20  C   UNL     1     -20.488  45.781 -25.444  0.00  0.00    +0.000 A 
ENDBRANCH  12  16
ENDBRANCH   2   9
BRANCH   1  22
ATOM     21  O   UNL     1     -17.805  54.234 -31.041  0.00  0.00    +0.000 OA
ATOM     22  N   UNL     1     -19.098  53.152 -29.446  0.00  0.00    +0.000 N 
ATOM     23  C   UNL     1     -18.851  53.697 -30.697  0.00  0.00    +0.000 C 
ATOM     24  H   UNL     1     -19.953  52.628 -29.297  0.00  0.00    +0.000 HD
BRANCH  23  30
ATOM     25  C   UNL     1     -22.048  53.451 -33.517  0.00  0.00    +0.000 A 
ATOM     26  C   UNL     1     -21.190  52.364 -33.367  0.00  0.00    +0.000 A 
ATOM     27  C   UNL     1     -21.862  54.603 -32.760  0.00  0.00    +0.000 A 
ATOM     28  C   UNL     1     -20.140  52.432 -32.453  0.00  0.00    +0.000 A 
ATOM     29  C   UNL     1     -20.812  54.670 -31.848  0.00  0.00    +0.000 A 
ATOM     30  C   UNL     1     -19.946  53.585 -31.692  0.00  0.00    +0.000 A 
BRANCH  25  31
ATOM     31  C   UNL     1     -23.124  53.381 -34.451  0.00  0.00    +0.000 C 
BRANCH  31  32
ATOM     32  N   UNL     1     -24.223  53.308 -35.406  0.00  0.00    +0.000 N 
ATOM     33  N   UNL     1     -26.674  50.833 -34.721  0.00  0.00    +0.000 N 
ATOM     34  C   UNL     1     -24.343  51.881 -35.817  0.00  0.00    +0.000 C 
ATOM     35  C   UNL     1     -25.485  53.344 -34.615  0.00  0.00    +0.000 C 
ATOM     36  C   UNL     1     -25.422  50.799 -35.524  0.00  0.00    +0.000 C 
ATOM     37  C   UNL     1     -26.563  52.262 -34.321  0.00  0.00    +0.000 C 
ATOM     38  C   UNL     1     -27.784  50.738 -35.659  0.00  0.00    +0.000 C 
ENDBRANCH  31  32
ENDBRANCH  25  31
ENDBRANCH  23  30
ENDBRANCH   1  22
TORSDOF 6
ENDMDL
MODEL 3
REMARK VINA RESULT:      -6.8      4.733     12.927
REMARK  Name = 10074640_Masitinib.pdbqt.pdb
REMARK  6 active torsions:
REMARK  status: ('A' for Active; 'I' for Inactive)
REMARK    1  A    between atoms: C_1  and  N_22
REMARK    2  A    between atoms: C_2  and  N_9
REMARK    3  A    between atoms: C_12  and  C_16
REMARK    4  A    between atoms: C_23  and  C_30
REMARK    5  A    between atoms: C_25  and  C_31
REMARK    6  A    between atoms: C_31  and  N_32
REMARK                            x       y       z     vdW  Elec       q    Type
REMARK                         _______ _______ _______ _____ _____    ______ ____
ROOT
ATOM      1  C   UNL     1     -31.948  44.268 -16.234  0.00  0.00    +0.000 A 
ATOM      2  C   UNL     1     -32.200  43.920 -18.645  0.00  0.00    +0.000 A 
ATOM      3  C   UNL     1     -32.733  43.972 -17.350  0.00  0.00    +0.000 A 
ATOM      4  C   UNL     1     -30.823  44.181 -18.784  0.00  0.00    +0.000 A 
ATOM      5  C   UNL     1     -30.594  44.544 -16.409  0.00  0.00    +0.000 A 
ATOM      6  C   UNL     1     -30.029  44.491 -17.680  0.00  0.00    +0.000 A 
ATOM      7  C   UNL     1     -30.163  44.134 -20.148  0.00  0.00    +0.000 C 
ENDROOT
BRANCH   2   9
ATOM      8  S   UNL     1     -34.834  43.967 -21.703  0.00  0.00    +0.000 S 
ATOM      9  N   UNL     1     -33.008  43.662 -19.778  0.00  0.00    +0.000 N 
ATOM     10  N   UNL     1     -33.930  45.819 -20.174  0.00  0.00    +0.000 NA
ATOM     11  C   UNL     1     -33.825  44.531 -20.414  0.00  0.00    +0.000 A 
ATOM     12  C   UNL     1     -34.865  46.408 -21.003  0.00  0.00    +0.000 A 
ATOM     13  C   UNL     1     -35.449  45.538 -21.891  0.00  0.00    +0.000 A 
ATOM     14  H   UNL     1     -32.923  42.712 -20.132  0.00  0.00    +0.000 HD
BRANCH  12  16
ATOM     15  N   UNL     1     -36.582  49.586 -20.056  0.00  0.00    +0.000 NA
ATOM     16  C   UNL     1     -35.169  47.819 -20.932  0.00  0.00    +0.000 A 
ATOM     17  C   UNL     1     -34.390  48.774 -21.579  0.00  0.00    +0.000 A 
ATOM     18  C   UNL     1     -36.252  48.277 -20.194  0.00  0.00    +0.000 A 
ATOM     19  C   UNL     1     -34.702  50.125 -21.475  0.00  0.00    +0.000 A 
ATOM     20  C   UNL     1     -35.799  50.473 -20.706  0.00  0.00    +0.000 A 
ENDBRANCH  12  16
ENDBRANCH   2   9
BRANCH   1  22
ATOM     21  O   UNL     1     -34.041  46.008 -15.218  0.00  0.00    +0.000 OA
ATOM     22  N   UNL     1     -32.470  44.325 -14.926  0.00  0.00    +0.000 N 
ATOM     23  C   UNL     1     -33.441  45.219 -14.499  0.00  0.00    +0.000 C 
ATOM     24  H   UNL     1     -32.116  43.634 -14.273  0.00  0.00    +0.000 HD
BRANCH  23  30
ATOM     25  C   UNL     1     -34.499  45.172 -10.363  0.00  0.00    +0.000 A 
ATOM     26  C   UNL     1     -33.289  44.610 -10.760  0.00  0.00    +0.000 A 
ATOM     27  C   UNL     1     -35.355  45.738 -11.304  0.00  0.00    +0.000 A 
ATOM     28  C   UNL     1     -32.932  44.615 -12.107  0.00  0.00    +0.000 A 
ATOM     29  C   UNL     1     -34.997  45.741 -12.650  0.00  0.00    +0.000 A 
ATOM     30  C   UNL     1     -33.785  45.178 -13.057  0.00  0.00    +0.000 A 
BRANCH  25  31
ATOM     31  C   UNL     1     -34.864  45.169  -8.984  0.00  0.00    +0.000 C 
BRANCH  31  32
ATOM     32  N   UNL     1     -35.237  45.163  -7.575  0.00  0.00    +0.000 N 
ATOM     33  N   UNL     1     -32.674  44.178  -5.324  0.00  0.00    +0.000 N 
ATOM     34  C   UNL     1     -34.843  43.834  -7.030  0.00  0.00    +0.000 C 
ATOM     35  C   UNL     1     -34.193  45.940  -6.849  0.00  0.00    +0.000 C 
ATOM     36  C   UNL     1     -33.726  43.404  -6.037  0.00  0.00    +0.000 C 
ATOM     37  C   UNL     1     -33.075  45.509  -5.857  0.00  0.00    +0.000 C 
ATOM     38  C   UNL     1     -33.019  44.164  -3.909  0.00  0.00    +0.000 C 
ENDBRANCH  31  32
ENDBRANCH  25  31
ENDBRANCH  23  30
ENDBRANCH   1  22
TORSDOF 6
ENDMDL
MODEL 4
REMARK VINA RESULT:      -6.8      1.973      2.390
REMARK  Name = 10074640_Masitinib.pdbqt.pdb
REMARK  6 active torsions:
REMARK  status: ('A' for Active; 'I' for Inactive)
REMARK    1  A    between atoms: C_1  and  N_22
REMARK    2  A    between atoms: C_2  and  N_9
REMARK    3  A    between atoms: C_12  and  C_16
REMARK    4  A    between atoms: C_23  and  C_30
REMARK    5  A    between atoms: C_25  and  C_31
REMARK    6  A    between atoms: C_31  and  N_32
REMARK                            x       y       z     vdW  Elec       q    Type
REMARK                         _______ _______ _______ _____ _____    ______ ____
ROOT
ATOM      1  C   UNL     1     -34.510  45.088  -7.318  0.00  0.00    +0.000 A 
ATOM      2  C   UNL     1     -34.342  43.598  -5.381  0.00  0.00    +0.000 A 
ATOM      3  C   UNL     1     -35.016  44.061  -6.519  0.00  0.00    +0.000 A 
ATOM      4  C   UNL     1     -33.116  44.215  -5.065  0.00  0.00    +0.000 A 
ATOM      5  C   UNL     1     -33.283  45.661  -6.990  0.00  0.00    +0.000 A 
ATOM      6  C   UNL     1     -32.591  45.234  -5.861  0.00  0.00    +0.000 A 
ATOM      7  C   UNL     1     -32.327  43.784  -3.845  0.00  0.00    +0.000 C 
ENDROOT
BRANCH   2   9
ATOM      8  S   UNL     1     -35.440  40.054  -3.793  0.00  0.00    +0.000 S 
ATOM      9  N   UNL     1     -34.838  42.527  -4.600  0.00  0.00    +0.000 N 
ATOM     10  N   UNL     1     -33.804  40.671  -5.670  0.00  0.00    +0.000 NA
ATOM     11  C   UNL     1     -34.621  41.206  -4.791  0.00  0.00    +0.000 A 
ATOM     12  C   UNL     1     -33.830  39.292  -5.602  0.00  0.00    +0.000 A 
ATOM     13  C   UNL     1     -34.670  38.797  -4.635  0.00  0.00    +0.000 A 
ATOM     14  H   UNL     1     -35.400  42.827  -3.806  0.00  0.00    +0.000 HD
BRANCH  12  16
ATOM     15  N   UNL     1     -32.092  36.285  -6.972  0.00  0.00    +0.000 NA
ATOM     16  C   UNL     1     -33.021  38.468  -6.473  0.00  0.00    +0.000 A 
ATOM     17  C   UNL     1     -32.435  38.974  -7.629  0.00  0.00    +0.000 A 
ATOM     18  C   UNL     1     -32.812  37.126  -6.189  0.00  0.00    +0.000 A 
ATOM     19  C   UNL     1     -31.677  38.149  -8.453  0.00  0.00    +0.000 A 
ATOM     20  C   UNL     1     -31.540  36.822  -8.081  0.00  0.00    +0.000 A 
ENDBRANCH  12  16
ENDBRANCH   2   9
BRANCH   1  22
ATOM     21  O   UNL     1     -36.650  47.047  -7.461  0.00  0.00    +0.000 OA
ATOM     22  N   UNL     1     -35.176  45.562  -8.466  0.00  0.00    +0.000 N 
ATOM     23  C   UNL     1     -36.226  46.468  -8.454  0.00  0.00    +0.000 C 
ATOM     24  H   UNL     1     -34.826  45.226  -9.356  0.00  0.00    +0.000 HD
BRANCH  23  30
ATOM     25  C   UNL     1     -37.946  47.301 -12.272  0.00  0.00    +0.000 A 
ATOM     26  C   UNL     1     -38.563  47.798 -11.126  0.00  0.00    +0.000 A 
ATOM     27  C   UNL     1     -36.786  46.539 -12.172  0.00  0.00    +0.000 A 
ATOM     28  C   UNL     1     -38.014  47.531  -9.874  0.00  0.00    +0.000 A 
ATOM     29  C   UNL     1     -36.240  46.272 -10.919  0.00  0.00    +0.000 A 
ATOM     30  C   UNL     1     -36.853  46.766  -9.765  0.00  0.00    +0.000 A 
BRANCH  25  31
ATOM     31  C   UNL     1     -38.506  47.575 -13.555  0.00  0.00    +0.000 C 
BRANCH  31  32
ATOM     32  N   UNL     1     -39.077  47.854 -14.867  0.00  0.00    +0.000 N 
ATOM     33  N   UNL     1     -36.850  49.305 -17.221  0.00  0.00    +0.000 N 
ATOM     34  C   UNL     1     -38.748  49.271 -15.188  0.00  0.00    +0.000 C 
ATOM     35  C   UNL     1     -38.157  47.253 -15.874  0.00  0.00    +0.000 C 
ATOM     36  C   UNL     1     -37.778  49.906 -16.226  0.00  0.00    +0.000 C 
ATOM     37  C   UNL     1     -37.188  47.889 -16.911  0.00  0.00    +0.000 C 
ATOM     38  C   UNL     1     -37.393  49.594 -18.540  0.00  0.00    +0.000 C 
ENDBRANCH  31  32
ENDBRANCH  25  31
ENDBRANCH  23  30
ENDBRANCH   1  22
TORSDOF 6
ENDMDL
MODEL 5
REMARK VINA RESULT:      -6.7      7.641     13.569
REMARK  Name = 10074640_Masitinib.pdbqt.pdb
REMARK  6 active torsions:
REMARK  status: ('A' for Active; 'I' for Inactive)
REMARK    1  A    between atoms: C_1  and  N_22
REMARK    2  A    between atoms: C_2  and  N_9
REMARK    3  A    between atoms: C_12  and  C_16
REMARK    4  A    between atoms: C_23  and  C_30
REMARK    5  A    between atoms: C_25  and  C_31
REMARK    6  A    between atoms: C_31  and  N_32
REMARK                            x       y       z     vdW  Elec       q    Type
REMARK                         _______ _______ _______ _____ _____    ______ ____
ROOT
ATOM      1  C   UNL     1     -39.756  49.498  -5.095  0.00  0.00    +0.000 A 
ATOM      2  C   UNL     1     -39.356  49.298  -7.503  0.00  0.00    +0.000 A 
ATOM      3  C   UNL     1     -39.320  48.772  -6.205  0.00  0.00    +0.000 A 
ATOM      4  C   UNL     1     -39.854  50.607  -7.653  0.00  0.00    +0.000 A 
ATOM      5  C   UNL     1     -40.265  50.781  -5.281  0.00  0.00    +0.000 A 
ATOM      6  C   UNL     1     -40.306  51.340  -6.555  0.00  0.00    +0.000 A 
ATOM      7  C   UNL     1     -39.917  51.257  -9.020  0.00  0.00    +0.000 C 
ENDROOT
BRANCH   2   9
ATOM      8  S   UNL     1     -37.473  47.039 -10.268  0.00  0.00    +0.000 S 
ATOM      9  N   UNL     1     -38.953  48.541  -8.630  0.00  0.00    +0.000 N 
ATOM     10  N   UNL     1     -36.996  47.485  -7.786  0.00  0.00    +0.000 NA
ATOM     11  C   UNL     1     -37.847  47.773  -8.746  0.00  0.00    +0.000 A 
ATOM     12  C   UNL     1     -35.973  46.681  -8.250  0.00  0.00    +0.000 A 
ATOM     13  C   UNL     1     -36.083  46.349  -9.579  0.00  0.00    +0.000 A 
ATOM     14  H   UNL     1     -39.604  48.593  -9.410  0.00  0.00    +0.000 HD
BRANCH  12  16
ATOM     15  N   UNL     1     -34.233  45.147  -5.324  0.00  0.00    +0.000 NA
ATOM     16  C   UNL     1     -34.904  46.229  -7.388  0.00  0.00    +0.000 A 
ATOM     17  C   UNL     1     -33.565  46.367  -7.742  0.00  0.00    +0.000 A 
ATOM     18  C   UNL     1     -35.180  45.622  -6.171  0.00  0.00    +0.000 A 
ATOM     19  C   UNL     1     -32.562  45.906  -6.896  0.00  0.00    +0.000 A 
ATOM     20  C   UNL     1     -32.949  45.308  -5.709  0.00  0.00    +0.000 A 
ENDBRANCH  12  16
ENDBRANCH   2   9
BRANCH   1  22
ATOM     21  O   UNL     1     -41.852  48.052  -3.698  0.00  0.00    +0.000 OA
ATOM     22  N   UNL     1     -39.727  48.982  -3.784  0.00  0.00    +0.000 N 
ATOM     23  C   UNL     1     -40.788  48.340  -3.163  0.00  0.00    +0.000 C 
ATOM     24  H   UNL     1     -38.848  49.071  -3.288  0.00  0.00    +0.000 HD
BRANCH  23  30
ATOM     25  C   UNL     1     -40.198  47.139   0.892  0.00  0.00    +0.000 A 
ATOM     26  C   UNL     1     -40.738  48.395   0.627  0.00  0.00    +0.000 A 
ATOM     27  C   UNL     1     -39.851  46.288  -0.154  0.00  0.00    +0.000 A 
ATOM     28  C   UNL     1     -40.933  48.802  -0.691  0.00  0.00    +0.000 A 
ATOM     29  C   UNL     1     -40.046  46.696  -1.471  0.00  0.00    +0.000 A 
ATOM     30  C   UNL     1     -40.586  47.956  -1.745  0.00  0.00    +0.000 A 
BRANCH  25  31
ATOM     31  C   UNL     1     -39.999  46.722   2.241  0.00  0.00    +0.000 C 
BRANCH  31  32
ATOM     32  N   UNL     1     -39.799  46.297   3.621  0.00  0.00    +0.000 N 
ATOM     33  N   UNL     1     -36.994  44.192   4.176  0.00  0.00    +0.000 N 
ATOM     34  C   UNL     1     -39.642  44.816   3.598  0.00  0.00    +0.000 C 
ATOM     35  C   UNL     1     -38.379  46.594   3.962  0.00  0.00    +0.000 C 
ATOM     36  C   UNL     1     -38.415  43.894   3.850  0.00  0.00    +0.000 C 
ATOM     37  C   UNL     1     -37.152  45.672   4.213  0.00  0.00    +0.000 C 
ATOM     38  C   UNL     1     -36.769  43.753   5.546  0.00  0.00    +0.000 C 
ENDBRANCH  31  32
ENDBRANCH  25  31
ENDBRANCH  23  30
ENDBRANCH   1  22
TORSDOF 6
ENDMDL
MODEL 6
REMARK VINA RESULT:      -6.7     24.199     25.908
REMARK  Name = 10074640_Masitinib.pdbqt.pdb
REMARK  6 active torsions:
REMARK  status: ('A' for Active; 'I' for Inactive)
REMARK    1  A    between atoms: C_1  and  N_22
REMARK    2  A    between atoms: C_2  and  N_9
REMARK    3  A    between atoms: C_12  and  C_16
REMARK    4  A    between atoms: C_23  and  C_30
REMARK    5  A    between atoms: C_25  and  C_31
REMARK    6  A    between atoms: C_31  and  N_32
REMARK                            x       y       z     vdW  Elec       q    Type
REMARK                         _______ _______ _______ _____ _____    ______ ____
ROOT
ATOM      1  C   UNL     1     -15.256  57.085 -19.289  0.00  0.00    +0.000 A 
ATOM      2  C   UNL     1     -15.975  58.042 -17.152  0.00  0.00    +0.000 A 
ATOM      3  C   UNL     1     -16.258  57.524 -18.423  0.00  0.00    +0.000 A 
ATOM      4  C   UNL     1     -14.619  58.106 -16.773  0.00  0.00    +0.000 A 
ATOM      5  C   UNL     1     -13.927  57.140 -18.874  0.00  0.00    +0.000 A 
ATOM      6  C   UNL     1     -13.607  57.659 -17.622  0.00  0.00    +0.000 A 
ATOM      7  C   UNL     1     -14.222  58.663 -15.421  0.00  0.00    +0.000 C 
ENDROOT
BRANCH   2   9
ATOM      8  S   UNL     1     -18.961  59.871 -15.146  0.00  0.00    +0.000 S 
ATOM      9  N   UNL     1     -16.998  58.445 -16.262  0.00  0.00    +0.000 N 
ATOM     10  N   UNL     1     -18.019  60.193 -17.511  0.00  0.00    +0.000 NA
ATOM     11  C   UNL     1     -17.873  59.461 -16.429  0.00  0.00    +0.000 A 
ATOM     12  C   UNL     1     -19.000  61.150 -17.339  0.00  0.00    +0.000 A 
ATOM     13  C   UNL     1     -19.607  61.111 -16.107  0.00  0.00    +0.000 A 
ATOM     14  H   UNL     1     -17.060  57.871 -15.424  0.00  0.00    +0.000 HD
BRANCH  12  16
ATOM     15  N   UNL     1     -20.829  63.830 -19.187  0.00  0.00    +0.000 NA
ATOM     16  C   UNL     1     -19.347  62.086 -18.385  0.00  0.00    +0.000 A 
ATOM     17  C   UNL     1     -18.582  62.214 -19.541  0.00  0.00    +0.000 A 
ATOM     18  C   UNL     1     -20.458  62.909 -18.263  0.00  0.00    +0.000 A 
ATOM     19  C   UNL     1     -18.935  63.137 -20.519  0.00  0.00    +0.000 A 
ATOM     20  C   UNL     1     -20.058  63.914 -20.293  0.00  0.00    +0.000 A 
ENDBRANCH  12  16
ENDBRANCH   2   9
BRANCH   1  22
ATOM     21  O   UNL     1     -15.186  54.307 -20.134  0.00  0.00    +0.000 OA
ATOM     22  N   UNL     1     -15.526  56.561 -20.569  0.00  0.00    +0.000 N 
ATOM     23  C   UNL     1     -15.427  55.221 -20.913  0.00  0.00    +0.000 C 
ATOM     24  H   UNL     1     -15.843  57.225 -21.266  0.00  0.00    +0.000 HD
BRANCH  23  30
ATOM     25  C   UNL     1     -16.049  54.182 -25.008  0.00  0.00    +0.000 A 
ATOM     26  C   UNL     1     -16.326  55.480 -24.587  0.00  0.00    +0.000 A 
ATOM     27  C   UNL     1     -15.579  53.234 -24.103  0.00  0.00    +0.000 A 
ATOM     28  C   UNL     1     -16.131  55.832 -23.253  0.00  0.00    +0.000 A 
ATOM     29  C   UNL     1     -15.386  53.588 -22.770  0.00  0.00    +0.000 A 
ATOM     30  C   UNL     1     -15.663  54.888 -22.339  0.00  0.00    +0.000 A 
BRANCH  25  31
ATOM     31  C   UNL     1     -16.247  53.821 -26.373  0.00  0.00    +0.000 C 
BRANCH  31  32
ATOM     32  N   UNL     1     -16.451  53.451 -27.768  0.00  0.00    +0.000 N 
ATOM     33  N   UNL     1     -18.823  55.414 -29.536  0.00  0.00    +0.000 N 
ATOM     34  C   UNL     1     -17.920  53.304 -27.965  0.00  0.00    +0.000 C 
ATOM     35  C   UNL     1     -16.315  54.699 -28.571  0.00  0.00    +0.000 C 
ATOM     36  C   UNL     1     -18.958  54.159 -28.747  0.00  0.00    +0.000 C 
ATOM     37  C   UNL     1     -17.352  55.554 -29.352  0.00  0.00    +0.000 C 
ATOM     38  C   UNL     1     -19.046  55.066 -30.932  0.00  0.00    +0.000 C 
ENDBRANCH  31  32
ENDBRANCH  25  31
ENDBRANCH  23  30
ENDBRANCH   1  22
TORSDOF 6
ENDMDL
MODEL 7
REMARK VINA RESULT:      -6.7     21.335     24.597
REMARK  Name = 10074640_Masitinib.pdbqt.pdb
REMARK  6 active torsions:
REMARK  status: ('A' for Active; 'I' for Inactive)
REMARK    1  A    between atoms: C_1  and  N_22
REMARK    2  A    between atoms: C_2  and  N_9
REMARK    3  A    between atoms: C_12  and  C_16
REMARK    4  A    between atoms: C_23  and  C_30
REMARK    5  A    between atoms: C_25  and  C_31
REMARK    6  A    between atoms: C_31  and  N_32
REMARK                            x       y       z     vdW  Elec       q    Type
REMARK                         _______ _______ _______ _____ _____    ______ ____
ROOT
ATOM      1  C   UNL     1     -15.821  47.605   2.133  0.00  0.00    +0.000 A 
ATOM      2  C   UNL     1     -14.052  46.655   0.730  0.00  0.00    +0.000 A 
ATOM      3  C   UNL     1     -14.508  47.599   1.660  0.00  0.00    +0.000 A 
ATOM      4  C   UNL     1     -14.981  45.697   0.281  0.00  0.00    +0.000 A 
ATOM      5  C   UNL     1     -16.708  46.629   1.686  0.00  0.00    +0.000 A 
ATOM      6  C   UNL     1     -16.294  45.681   0.754  0.00  0.00    +0.000 A 
ATOM      7  C   UNL     1     -14.576  44.646  -0.734  0.00  0.00    +0.000 C 
ENDROOT
BRANCH   2   9
ATOM      8  S   UNL     1     -10.565  46.792  -1.298  0.00  0.00    +0.000 S 
ATOM      9  N   UNL     1     -12.708  46.627   0.287  0.00  0.00    +0.000 N 
ATOM     10  N   UNL     1     -12.914  47.671  -1.840  0.00  0.00    +0.000 NA
ATOM     11  C   UNL     1     -12.233  47.044  -0.907  0.00  0.00    +0.000 A 
ATOM     12  C   UNL     1     -12.123  47.945  -2.939  0.00  0.00    +0.000 A 
ATOM     13  C   UNL     1     -10.820  47.530  -2.805  0.00  0.00    +0.000 A 
ATOM     14  H   UNL     1     -12.058  46.264   0.980  0.00  0.00    +0.000 HD
BRANCH  12  16
ATOM     15  N   UNL     1     -12.391  50.390  -5.748  0.00  0.00    +0.000 NA
ATOM     16  C   UNL     1     -12.641  48.624  -4.105  0.00  0.00    +0.000 A 
ATOM     17  C   UNL     1     -13.803  48.203  -4.745  0.00  0.00    +0.000 A 
ATOM     18  C   UNL     1     -11.982  49.721  -4.641  0.00  0.00    +0.000 A 
ATOM     19  C   UNL     1     -14.265  48.870  -5.875  0.00  0.00    +0.000 A 
ATOM     20  C   UNL     1     -13.525  49.948  -6.331  0.00  0.00    +0.000 A 
ENDBRANCH  12  16
ENDBRANCH   2   9
BRANCH   1  22
ATOM     21  O   UNL     1     -16.674  50.339   1.644  0.00  0.00    +0.000 OA
ATOM     22  N   UNL     1     -16.293  48.547   3.069  0.00  0.00    +0.000 N 
ATOM     23  C   UNL     1     -16.639  49.857   2.769  0.00  0.00    +0.000 C 
ATOM     24  H   UNL     1     -16.406  48.214   4.019  0.00  0.00    +0.000 HD
BRANCH  23  30
ATOM     25  C   UNL     1     -17.741  52.250   6.129  0.00  0.00    +0.000 A 
ATOM     26  C   UNL     1     -17.907  52.763   4.845  0.00  0.00    +0.000 A 
ATOM     27  C   UNL     1     -17.218  50.973   6.313  0.00  0.00    +0.000 A 
ATOM     28  C   UNL     1     -17.549  51.995   3.740  0.00  0.00    +0.000 A 
ATOM     29  C   UNL     1     -16.859  50.207   5.207  0.00  0.00    +0.000 A 
ATOM     30  C   UNL     1     -17.022  50.716   3.916  0.00  0.00    +0.000 A 
BRANCH  25  31
ATOM     31  C   UNL     1     -18.109  53.035   7.261  0.00  0.00    +0.000 C 
BRANCH  31  32
ATOM     32  N   UNL     1     -18.484  53.840   8.417  0.00  0.00    +0.000 N 
ATOM     33  N   UNL     1     -21.431  55.781   8.033  0.00  0.00    +0.000 N 
ATOM     34  C   UNL     1     -18.708  55.227   7.923  0.00  0.00    +0.000 C 
ATOM     35  C   UNL     1     -19.917  53.547   8.701  0.00  0.00    +0.000 C 
ATOM     36  C   UNL     1     -19.998  56.081   7.764  0.00  0.00    +0.000 C 
ATOM     37  C   UNL     1     -21.207  54.400   8.541  0.00  0.00    +0.000 C 
ATOM     38  C   UNL     1     -21.829  56.595   9.174  0.00  0.00    +0.000 C 
ENDBRANCH  31  32
ENDBRANCH  25  31
ENDBRANCH  23  30
ENDBRANCH   1  22
TORSDOF 6
ENDMDL
MODEL 8
REMARK VINA RESULT:      -6.6      1.763      2.006
REMARK  Name = 10074640_Masitinib.pdbqt.pdb
REMARK  6 active torsions:
REMARK  status: ('A' for Active; 'I' for Inactive)
REMARK    1  A    between atoms: C_1  and  N_22
REMARK    2  A    between atoms: C_2  and  N_9
REMARK    3  A    between atoms: C_12  and  C_16
REMARK    4  A    between atoms: C_23  and  C_30
REMARK    5  A    between atoms: C_25  and  C_31
REMARK    6  A    between atoms: C_31  and  N_32
REMARK                            x       y       z     vdW  Elec       q    Type
REMARK                         _______ _______ _______ _____ _____    ______ ____
ROOT
ATOM      1  C   UNL     1     -33.424  44.178  -7.405  0.00  0.00    +0.000 A 
ATOM      2  C   UNL     1     -33.996  42.896  -5.398  0.00  0.00    +0.000 A 
ATOM      3  C   UNL     1     -34.164  43.187  -6.758  0.00  0.00    +0.000 A 
ATOM      4  C   UNL     1     -33.038  43.652  -4.693  0.00  0.00    +0.000 A 
ATOM      5  C   UNL     1     -32.468  44.891  -6.684  0.00  0.00    +0.000 A 
ATOM      6  C   UNL     1     -32.281  44.637  -5.328  0.00  0.00    +0.000 A 
ATOM      7  C   UNL     1     -32.800  43.411  -3.216  0.00  0.00    +0.000 C 
ENDROOT
BRANCH   2   9
ATOM      8  S   UNL     1     -35.662  39.437  -4.154  0.00  0.00    +0.000 S 
ATOM      9  N   UNL     1     -34.718  41.861  -4.757  0.00  0.00    +0.000 N 
ATOM     10  N   UNL     1     -33.653  39.939  -5.668  0.00  0.00    +0.000 NA
ATOM     11  C   UNL     1     -34.577  40.530  -4.943  0.00  0.00    +0.000 A 
ATOM     12  C   UNL     1     -33.804  38.566  -5.648  0.00  0.00    +0.000 A 
ATOM     13  C   UNL     1     -34.851  38.131  -4.873  0.00  0.00    +0.000 A 
ATOM     14  H   UNL     1     -35.395  42.197  -4.076  0.00  0.00    +0.000 HD
BRANCH  12  16
ATOM     15  N   UNL     1     -31.776  35.550  -6.508  0.00  0.00    +0.000 NA
ATOM     16  C   UNL     1     -32.913  37.688  -6.374  0.00  0.00    +0.000 A 
ATOM     17  C   UNL     1     -32.370  38.046  -7.605  0.00  0.00    +0.000 A 
ATOM     18  C   UNL     1     -32.580  36.439  -5.871  0.00  0.00    +0.000 A 
ATOM     19  C   UNL     1     -31.530  37.170  -8.284  0.00  0.00    +0.000 A 
ATOM     20  C   UNL     1     -31.270  35.944  -7.695  0.00  0.00    +0.000 A 
ENDBRANCH  12  16
ENDBRANCH   2   9
BRANCH   1  22
ATOM     21  O   UNL     1     -35.401  45.915  -8.635  0.00  0.00    +0.000 OA
ATOM     22  N   UNL     1     -33.582  44.481  -8.772  0.00  0.00    +0.000 N 
ATOM     23  C   UNL     1     -34.583  45.285  -9.295  0.00  0.00    +0.000 C 
ATOM     24  H   UNL     1     -32.884  44.094  -9.398  0.00  0.00    +0.000 HD
BRANCH  23  30
ATOM     25  C   UNL     1     -34.623  45.603 -13.553  0.00  0.00    +0.000 A 
ATOM     26  C   UNL     1     -35.717  46.068 -12.826  0.00  0.00    +0.000 A 
ATOM     27  C   UNL     1     -33.533  45.038 -12.897  0.00  0.00    +0.000 A 
ATOM     28  C   UNL     1     -35.719  45.967 -11.437  0.00  0.00    +0.000 A 
ATOM     29  C   UNL     1     -33.537  44.937 -11.508  0.00  0.00    +0.000 A 
ATOM     30  C   UNL     1     -34.631  45.400 -10.773  0.00  0.00    +0.000 A 
BRANCH  25  31
ATOM     31  C   UNL     1     -34.620  45.706 -14.975  0.00  0.00    +0.000 C 
BRANCH  31  32
ATOM     32  N   UNL     1     -34.617  45.815 -16.429  0.00  0.00    +0.000 N 
ATOM     33  N   UNL     1     -32.032  44.033 -18.087  0.00  0.00    +0.000 N 
ATOM     34  C   UNL     1     -33.236  46.203 -16.830  0.00  0.00    +0.000 C 
ATOM     35  C   UNL     1     -34.547  44.427 -16.965  0.00  0.00    +0.000 C 
ATOM     36  C   UNL     1     -32.107  45.425 -17.565  0.00  0.00    +0.000 C 
ATOM     37  C   UNL     1     -33.417  43.649 -17.699  0.00  0.00    +0.000 C 
ATOM     38  C   UNL     1     -32.006  44.124 -19.540  0.00  0.00    +0.000 C 
ENDBRANCH  31  32
ENDBRANCH  25  31
ENDBRANCH  23  30
ENDBRANCH   1  22
TORSDOF 6
ENDMDL
MODEL 9
REMARK VINA RESULT:      -6.5     25.062     27.467
REMARK  Name = 10074640_Masitinib.pdbqt.pdb
REMARK  6 active torsions:
REMARK  status: ('A' for Active; 'I' for Inactive)
REMARK    1  A    between atoms: C_1  and  N_22
REMARK    2  A    between atoms: C_2  and  N_9
REMARK    3  A    between atoms: C_12  and  C_16
REMARK    4  A    between atoms: C_23  and  C_30
REMARK    5  A    between atoms: C_25  and  C_31
REMARK    6  A    between atoms: C_31  and  N_32
REMARK                            x       y       z     vdW  Elec       q    Type
REMARK                         _______ _______ _______ _____ _____    ______ ____
ROOT
ATOM      1  C   UNL     1     -17.459  57.378 -29.106  0.00  0.00    +0.000 A 
ATOM      2  C   UNL     1     -16.598  58.231 -26.977  0.00  0.00    +0.000 A 
ATOM      3  C   UNL     1     -17.522  57.479 -27.715  0.00  0.00    +0.000 A 
ATOM      4  C   UNL     1     -15.587  58.894 -27.700  0.00  0.00    +0.000 A 
ATOM      5  C   UNL     1     -16.432  58.027 -29.788  0.00  0.00    +0.000 A 
ATOM      6  C   UNL     1     -15.503  58.792 -29.089  0.00  0.00    +0.000 A 
ATOM      7  C   UNL     1     -14.553  59.739 -26.982  0.00  0.00    +0.000 C 
ENDROOT
BRANCH   2   9
ATOM      8  S   UNL     1     -16.708  57.547 -23.001  0.00  0.00    +0.000 S 
ATOM      9  N   UNL     1     -16.641  58.294 -25.564  0.00  0.00    +0.000 N 
ATOM     10  N   UNL     1     -16.131  56.041 -24.996  0.00  0.00    +0.000 NA
ATOM     11  C   UNL     1     -16.480  57.272 -24.694  0.00  0.00    +0.000 A 
ATOM     12  C   UNL     1     -16.067  55.248 -23.867  0.00  0.00    +0.000 A 
ATOM     13  C   UNL     1     -16.355  55.915 -22.701  0.00  0.00    +0.000 A 
ATOM     14  H   UNL     1     -16.793  59.233 -25.202  0.00  0.00    +0.000 HD
BRANCH  12  16
ATOM     15  N   UNL     1     -14.876  51.874 -22.800  0.00  0.00    +0.000 NA
ATOM     16  C   UNL     1     -15.709  53.849 -23.934  0.00  0.00    +0.000 A 
ATOM     17  C   UNL     1     -15.868  53.105 -25.099  0.00  0.00    +0.000 A 
ATOM     18  C   UNL     1     -15.206  53.190 -22.822  0.00  0.00    +0.000 A 
ATOM     19  C   UNL     1     -15.529  51.756 -25.124  0.00  0.00    +0.000 A 
ATOM     20  C   UNL     1     -15.043  51.195 -23.955  0.00  0.00    +0.000 A 
ENDBRANCH  12  16
ENDBRANCH   2   9
BRANCH   1  22
ATOM     21  O   UNL     1     -17.402  54.528 -29.667  0.00  0.00    +0.000 OA
ATOM     22  N   UNL     1     -18.380  56.624 -29.860  0.00  0.00    +0.000 N 
ATOM     23  C   UNL     1     -18.263  55.268 -30.127  0.00  0.00    +0.000 C 
ATOM     24  H   UNL     1     -19.195  57.123 -30.198  0.00  0.00    +0.000 HD
BRANCH  23  30
ATOM     25  C   UNL     1     -21.256  53.672 -32.721  0.00  0.00    +0.000 A 
ATOM     26  C   UNL     1     -20.602  52.821 -31.833  0.00  0.00    +0.000 A 
ATOM     27  C   UNL     1     -20.934  55.025 -32.763  0.00  0.00    +0.000 A 
ATOM     28  C   UNL     1     -19.620  53.327 -30.984  0.00  0.00    +0.000 A 
ATOM     29  C   UNL     1     -19.952  55.530 -31.914  0.00  0.00    +0.000 A 
ATOM     30  C   UNL     1     -19.290  54.682 -31.022  0.00  0.00    +0.000 A 
BRANCH  25  31
ATOM     31  C   UNL     1     -22.262  53.155 -33.590  0.00  0.00    +0.000 C 
BRANCH  31  32
ATOM     32  N   UNL     1     -23.288  52.624 -34.478  0.00  0.00    +0.000 N 
ATOM     33  N   UNL     1     -26.071  51.120 -32.865  0.00  0.00    +0.000 N 
ATOM     34  C   UNL     1     -23.553  51.224 -34.043  0.00  0.00    +0.000 C 
ATOM     35  C   UNL     1     -24.591  53.177 -34.011  0.00  0.00    +0.000 C 
ATOM     36  C   UNL     1     -24.776  50.563 -33.344  0.00  0.00    +0.000 C 
ATOM     37  C   UNL     1     -25.813  52.516 -33.312  0.00  0.00    +0.000 C 
ATOM     38  C   UNL     1     -27.112  50.581 -33.729  0.00  0.00    +0.000 C 
ENDBRANCH  31  32
ENDBRANCH  25  31
ENDBRANCH  23  30
ENDBRANCH   1  22
TORSDOF 6
ENDMDL
