MODEL 1
REMARK VINA RESULT:      -6.2      0.000      0.000
REMARK  Name = 101808841_CandidaspongiolideA.pdbqt.pdb
REMARK  13 active torsions:
REMARK  status: ('A' for Active; 'I' for Inactive)
REMARK    1  A    between atoms: C_6  and  C_39
REMARK    2  A    between atoms: C_9  and  O_27
REMARK    3  A    between atoms: C_9  and  C_51
REMARK    4  A    between atoms: C_10  and  O_29
REMARK    5  A    between atoms: C_14  and  O_31
REMARK    6  A    between atoms: C_15  and  O_33
REMARK    7  A    between atoms: C_20  and  O_35
REMARK    8  A    between atoms: O_35  and  C_37
REMARK    9  A    between atoms: C_39  and  C_41
REMARK   10  A    between atoms: C_39  and  O_49
REMARK   11  A    between atoms: C_42  and  C_44
REMARK   12  A    between atoms: C_44  and  C_46
REMARK   13  A    between atoms: C_51  and  O_52
REMARK                            x       y       z     vdW  Elec       q    Type
REMARK                         _______ _______ _______ _____ _____    ______ ____
ROOT
ATOM      1  O   UNL     1     -37.144  61.322  -7.076  0.00  0.00    +0.000 OA
ATOM      2  O   UNL     1     -33.243  62.530  -7.859  0.00  0.00    +0.000 OA
ATOM      3  O   UNL     1     -37.490  60.519  -9.210  0.00  0.00    +0.000 OA
ATOM      4  O   UNL     1     -35.075  66.418  -2.857  0.00  0.00    +0.000 OA
ATOM      5  O   UNL     1     -37.271  61.315  -4.234  0.00  0.00    +0.000 OA
ATOM      6  C   UNL     1     -35.461  63.318  -7.947  0.00  0.00    +0.000 C 
ATOM      7  C   UNL     1     -34.079  63.294  -7.373  0.00  0.00    +0.000 C 
ATOM      8  C   UNL     1     -36.362  62.300  -7.526  0.00  0.00    +0.000 C 
ATOM      9  C   UNL     1     -33.840  64.187  -6.125  0.00  0.00    +0.000 C 
ATOM     10  C   UNL     1     -34.478  63.566  -4.894  0.00  0.00    +0.000 C 
ATOM     11  C   UNL     1     -34.993  64.343  -3.816  0.00  0.00    +0.000 C 
ATOM     12  C   UNL     1     -37.577  60.426  -7.994  0.00  0.00    +0.000 C 
ATOM     13  C   UNL     1     -35.471  65.259  -2.793  0.00  0.00    +0.000 C 
ATOM     14  C   UNL     1     -38.153  59.228  -7.341  0.00  0.00    +0.000 C 
ATOM     15  C   UNL     1     -38.375  59.090  -5.916  0.00  0.00    +0.000 C 
ATOM     16  C   UNL     1     -36.402  64.773  -1.724  0.00  0.00    +0.000 C 
ATOM     17  C   UNL     1     -39.092  60.024  -5.055  0.00  0.00    +0.000 C 
ATOM     18  C   UNL     1     -38.930  60.730  -2.608  0.00  0.00    +0.000 C 
ATOM     19  C   UNL     1     -38.322  60.724  -3.981  0.00  0.00    +0.000 C 
ATOM     20  C   UNL     1     -38.428  61.681  -1.613  0.00  0.00    +0.000 C 
ATOM     21  C   UNL     1     -36.763  63.407  -1.602  0.00  0.00    +0.000 C 
ATOM     22  C   UNL     1     -37.066  62.152  -1.501  0.00  0.00    +0.000 C 
ATOM     23  C   UNL     1     -37.020  65.686  -0.685  0.00  0.00    +0.000 C 
ATOM     24  C   UNL     1     -40.305  60.763  -5.624  0.00  0.00    +0.000 C 
ATOM     25  C   UNL     1     -39.980  59.698  -2.215  0.00  0.00    +0.000 C 
ATOM     26  C   UNL     1     -35.898  61.201  -1.436  0.00  0.00    +0.000 C 
ENDROOT
BRANCH   9  27
ATOM     27  O   UNL     1     -34.438  65.466  -6.344  0.00  0.00    +0.000 OA
ATOM     28  H   UNL     1     -34.815  65.455  -7.242  0.00  0.00    +0.000 HD
ENDBRANCH   9  27
BRANCH  10  29
ATOM     29  O   UNL     1     -34.532  62.188  -4.811  0.00  0.00    +0.000 OA
ATOM     30  H   UNL     1     -33.676  61.749  -4.974  0.00  0.00    +0.000 HD
ENDBRANCH  10  29
BRANCH  14  31
ATOM     31  O   UNL     1     -38.462  58.128  -8.122  0.00  0.00    +0.000 OA
ATOM     32  H   UNL     1     -38.031  58.197  -9.001  0.00  0.00    +0.000 HD
ENDBRANCH  14  31
BRANCH  15  33
ATOM     33  O   UNL     1     -38.338  57.782  -5.463  0.00  0.00    +0.000 OA
ATOM     34  C   UNL     1     -39.614  57.375  -5.044  0.00  0.00    +0.000 C 
ENDBRANCH  15  33
BRANCH  20  35
ATOM     35  O   UNL     1     -39.201  61.917  -0.445  0.00  0.00    +0.000 OA
BRANCH  35  37
ATOM     36  O   UNL     1     -38.338  60.224   0.908  0.00  0.00    +0.000 OA
ATOM     37  C   UNL     1     -38.687  61.367   0.685  0.00  0.00    +0.000 C 
ATOM     38  C   UNL     1     -38.586  62.299   1.835  0.00  0.00    +0.000 C 
ENDBRANCH  35  37
ENDBRANCH  20  35
BRANCH   6  39
ATOM     39  C   UNL     1     -35.817  64.281  -8.969  0.00  0.00    +0.000 C 
BRANCH  39  41
ATOM     40  O   UNL     1     -35.423  65.315 -11.266  0.00  0.00    +0.000 OA
ATOM     41  C   UNL     1     -35.230  64.219 -10.338  0.00  0.00    +0.000 C 
ATOM     42  C   UNL     1     -34.229  65.247 -10.610  0.00  0.00    +0.000 C 
ATOM     43  C   UNL     1     -35.352  62.872 -11.129  0.00  0.00    +0.000 C 
BRANCH  42  44
ATOM     44  C   UNL     1     -33.038  64.975 -11.364  0.00  0.00    +0.000 C 
ATOM     45  C   UNL     1     -33.074  65.010 -12.871  0.00  0.00    +0.000 C 
BRANCH  44  46
ATOM     46  C   UNL     1     -31.775  65.224 -10.763  0.00  0.00    +0.000 C 
ATOM     47  C   UNL     1     -30.666  65.417 -10.349  0.00  0.00    +0.000 C 
ATOM     48  C   UNL     1     -29.198  65.609  -9.943  0.00  0.00    +0.000 C 
ENDBRANCH  44  46
ENDBRANCH  42  44
ENDBRANCH  39  41
BRANCH  39  49
ATOM     49  O   UNL     1     -36.961  65.019  -8.704  0.00  0.00    +0.000 OA
ATOM     50  H   UNL     1     -37.766  64.467  -8.681  0.00  0.00    +0.000 HD
ENDBRANCH  39  49
ENDBRANCH   6  39
BRANCH   9  51
ATOM     51  C   UNL     1     -32.390  64.368  -5.877  0.00  0.00    +0.000 C 
BRANCH  51  52
ATOM     52  O   UNL     1     -31.088  64.515  -5.632  0.00  0.00    +0.000 OA
ATOM     53  H   UNL     1     -30.657  65.013  -6.351  0.00  0.00    +0.000 HD
ENDBRANCH  51  52
ENDBRANCH   9  51
TORSDOF 13
ENDMDL
MODEL 2
REMARK VINA RESULT:      -6.1     15.827     20.418
REMARK  Name = 101808841_CandidaspongiolideA.pdbqt.pdb
REMARK  13 active torsions:
REMARK  status: ('A' for Active; 'I' for Inactive)
REMARK    1  A    between atoms: C_6  and  C_39
REMARK    2  A    between atoms: C_9  and  O_27
REMARK    3  A    between atoms: C_9  and  C_51
REMARK    4  A    between atoms: C_10  and  O_29
REMARK    5  A    between atoms: C_14  and  O_31
REMARK    6  A    between atoms: C_15  and  O_33
REMARK    7  A    between atoms: C_20  and  O_35
REMARK    8  A    between atoms: O_35  and  C_37
REMARK    9  A    between atoms: C_39  and  C_41
REMARK   10  A    between atoms: C_39  and  O_49
REMARK   11  A    between atoms: C_42  and  C_44
REMARK   12  A    between atoms: C_44  and  C_46
REMARK   13  A    between atoms: C_51  and  O_52
REMARK                            x       y       z     vdW  Elec       q    Type
REMARK                         _______ _______ _______ _____ _____    ______ ____
ROOT
ATOM      1  O   UNL     1     -36.682  46.288 -13.514  0.00  0.00    +0.000 OA
ATOM      2  O   UNL     1     -32.796  45.354 -12.370  0.00  0.00    +0.000 OA
ATOM      3  O   UNL     1     -37.597  45.657 -11.493  0.00  0.00    +0.000 OA
ATOM      4  O   UNL     1     -32.610  44.884 -18.945  0.00  0.00    +0.000 OA
ATOM      5  O   UNL     1     -36.314  47.922 -15.814  0.00  0.00    +0.000 OA
ATOM      6  C   UNL     1     -34.696  44.388 -13.371  0.00  0.00    +0.000 C 
ATOM      7  C   UNL     1     -33.296  44.913 -13.407  0.00  0.00    +0.000 C 
ATOM      8  C   UNL     1     -35.754  45.338 -13.439  0.00  0.00    +0.000 C 
ATOM      9  C   UNL     1     -32.611  44.946 -14.800  0.00  0.00    +0.000 C 
ATOM     10  C   UNL     1     -33.172  46.079 -15.644  0.00  0.00    +0.000 C 
ATOM     11  C   UNL     1     -33.262  46.011 -17.065  0.00  0.00    +0.000 C 
ATOM     12  C   UNL     1     -37.494  46.425 -12.440  0.00  0.00    +0.000 C 
ATOM     13  C   UNL     1     -33.289  45.805 -18.504  0.00  0.00    +0.000 C 
ATOM     14  C   UNL     1     -38.253  47.696 -12.501  0.00  0.00    +0.000 C 
ATOM     15  C   UNL     1     -38.255  48.603 -13.630  0.00  0.00    +0.000 C 
ATOM     16  C   UNL     1     -34.118  46.698 -19.377  0.00  0.00    +0.000 C 
ATOM     17  C   UNL     1     -38.531  48.258 -15.020  0.00  0.00    +0.000 C 
ATOM     18  C   UNL     1     -37.763  49.126 -17.294  0.00  0.00    +0.000 C 
ATOM     19  C   UNL     1     -37.426  48.413 -16.016  0.00  0.00    +0.000 C 
ATOM     20  C   UNL     1     -36.858  48.998 -18.438  0.00  0.00    +0.000 C 
ATOM     21  C   UNL     1     -34.810  47.823 -18.862  0.00  0.00    +0.000 C 
ATOM     22  C   UNL     1     -35.421  48.855 -18.372  0.00  0.00    +0.000 C 
ATOM     23  C   UNL     1     -34.275  46.485 -20.867  0.00  0.00    +0.000 C 
ATOM     24  C   UNL     1     -39.576  47.181 -15.315  0.00  0.00    +0.000 C 
ATOM     25  C   UNL     1     -38.970  50.052 -17.376  0.00  0.00    +0.000 C 
ATOM     26  C   UNL     1     -34.563  49.806 -17.577  0.00  0.00    +0.000 C 
ENDROOT
BRANCH   9  27
ATOM     27  O   UNL     1     -32.867  43.714 -15.476  0.00  0.00    +0.000 OA
ATOM     28  H   UNL     1     -32.107  43.547 -16.063  0.00  0.00    +0.000 HD
ENDBRANCH   9  27
BRANCH  10  29
ATOM     29  O   UNL     1     -33.583  47.230 -15.002  0.00  0.00    +0.000 OA
ATOM     30  H   UNL     1     -32.924  47.593 -14.380  0.00  0.00    +0.000 HD
ENDBRANCH  10  29
BRANCH  14  31
ATOM     31  O   UNL     1     -38.979  48.091 -11.391  0.00  0.00    +0.000 OA
ATOM     32  H   UNL     1     -39.832  48.493 -11.661  0.00  0.00    +0.000 HD
ENDBRANCH  14  31
BRANCH  15  33
ATOM     33  O   UNL     1     -38.497  49.924 -13.292  0.00  0.00    +0.000 OA
ATOM     34  C   UNL     1     -39.738  50.337 -13.801  0.00  0.00    +0.000 C 
ENDBRANCH  15  33
BRANCH  20  35
ATOM     35  O   UNL     1     -37.324  49.386 -19.723  0.00  0.00    +0.000 OA
BRANCH  35  37
ATOM     36  O   UNL     1     -36.958  51.690 -19.678  0.00  0.00    +0.000 OA
ATOM     37  C   UNL     1     -36.838  50.578 -20.156  0.00  0.00    +0.000 C 
ATOM     38  C   UNL     1     -36.092  50.513 -21.437  0.00  0.00    +0.000 C 
ENDBRANCH  35  37
ENDBRANCH  20  35
BRANCH   6  39
ATOM     39  C   UNL     1     -34.948  42.976 -13.168  0.00  0.00    +0.000 C 
BRANCH  39  41
ATOM     40  O   UNL     1     -34.711  41.327 -11.238  0.00  0.00    +0.000 OA
ATOM     41  C   UNL     1     -35.400  42.445 -11.851  0.00  0.00    +0.000 C 
ATOM     42  C   UNL     1     -34.417  42.578 -10.779  0.00  0.00    +0.000 C 
ATOM     43  C   UNL     1     -36.940  42.264 -11.622  0.00  0.00    +0.000 C 
BRANCH  42  44
ATOM     44  C   UNL     1     -34.790  42.930  -9.438  0.00  0.00    +0.000 C 
ATOM     45  C   UNL     1     -34.823  41.875  -8.362  0.00  0.00    +0.000 C 
BRANCH  44  46
ATOM     46  C   UNL     1     -34.584  44.265  -8.998  0.00  0.00    +0.000 C 
ATOM     47  C   UNL     1     -34.443  45.361  -8.534  0.00  0.00    +0.000 C 
ATOM     48  C   UNL     1     -34.336  46.718  -7.823  0.00  0.00    +0.000 C 
ENDBRANCH  44  46
ENDBRANCH  42  44
ENDBRANCH  39  41
BRANCH  39  49
ATOM     49  O   UNL     1     -35.076  42.231 -14.332  0.00  0.00    +0.000 OA
ATOM     50  H   UNL     1     -35.504  42.733 -15.053  0.00  0.00    +0.000 HD
ENDBRANCH  39  49
ENDBRANCH   6  39
BRANCH   9  51
ATOM     51  C   UNL     1     -31.147  45.126 -14.663  0.00  0.00    +0.000 C 
BRANCH  51  52
ATOM     52  O   UNL     1     -29.832  45.314 -14.549  0.00  0.00    +0.000 OA
ATOM     53  H   UNL     1     -29.467  44.764 -13.831  0.00  0.00    +0.000 HD
ENDBRANCH  51  52
ENDBRANCH   9  51
TORSDOF 13
ENDMDL
MODEL 3
REMARK VINA RESULT:      -6.1     14.734     19.091
REMARK  Name = 101808841_CandidaspongiolideA.pdbqt.pdb
REMARK  13 active torsions:
REMARK  status: ('A' for Active; 'I' for Inactive)
REMARK    1  A    between atoms: C_6  and  C_39
REMARK    2  A    between atoms: C_9  and  O_27
REMARK    3  A    between atoms: C_9  and  C_51
REMARK    4  A    between atoms: C_10  and  O_29
REMARK    5  A    between atoms: C_14  and  O_31
REMARK    6  A    between atoms: C_15  and  O_33
REMARK    7  A    between atoms: C_20  and  O_35
REMARK    8  A    between atoms: O_35  and  C_37
REMARK    9  A    between atoms: C_39  and  C_41
REMARK   10  A    between atoms: C_39  and  O_49
REMARK   11  A    between atoms: C_42  and  C_44
REMARK   12  A    between atoms: C_44  and  C_46
REMARK   13  A    between atoms: C_51  and  O_52
REMARK                            x       y       z     vdW  Elec       q    Type
REMARK                         _______ _______ _______ _____ _____    ______ ____
ROOT
ATOM      1  O   UNL     1     -35.007  45.162 -11.032  0.00  0.00    +0.000 OA
ATOM      2  O   UNL     1     -36.618  43.692  -7.493  0.00  0.00    +0.000 OA
ATOM      3  O   UNL     1     -33.015  44.027 -10.780  0.00  0.00    +0.000 OA
ATOM      4  O   UNL     1     -39.889  49.341  -8.434  0.00  0.00    +0.000 OA
ATOM      5  O   UNL     1     -37.278  46.169 -12.419  0.00  0.00    +0.000 OA
ATOM      6  C   UNL     1     -35.331  45.484  -8.318  0.00  0.00    +0.000 C 
ATOM      7  C   UNL     1     -36.583  44.899  -7.743  0.00  0.00    +0.000 C 
ATOM      8  C   UNL     1     -35.123  45.336  -9.718  0.00  0.00    +0.000 C 
ATOM      9  C   UNL     1     -37.788  45.867  -7.598  0.00  0.00    +0.000 C 
ATOM     10  C   UNL     1     -38.414  46.148  -8.953  0.00  0.00    +0.000 C 
ATOM     11  C   UNL     1     -39.049  47.385  -9.269  0.00  0.00    +0.000 C 
ATOM     12  C   UNL     1     -33.964  44.407 -11.451  0.00  0.00    +0.000 C 
ATOM     13  C   UNL     1     -39.665  48.690  -9.449  0.00  0.00    +0.000 C 
ATOM     14  C   UNL     1     -34.122  44.019 -12.872  0.00  0.00    +0.000 C 
ATOM     15  C   UNL     1     -35.165  44.508 -13.751  0.00  0.00    +0.000 C 
ATOM     16  C   UNL     1     -39.998  49.181 -10.825  0.00  0.00    +0.000 C 
ATOM     17  C   UNL     1     -35.513  45.903 -13.992  0.00  0.00    +0.000 C 
ATOM     18  C   UNL     1     -37.655  47.168 -14.563  0.00  0.00    +0.000 C 
ATOM     19  C   UNL     1     -36.866  46.375 -13.562  0.00  0.00    +0.000 C 
ATOM     20  C   UNL     1     -38.802  47.953 -14.101  0.00  0.00    +0.000 C 
ATOM     21  C   UNL     1     -39.831  48.370 -11.976  0.00  0.00    +0.000 C 
ATOM     22  C   UNL     1     -39.685  47.606 -13.011  0.00  0.00    +0.000 C 
ATOM     23  C   UNL     1     -40.548  50.565 -11.099  0.00  0.00    +0.000 C 
ATOM     24  C   UNL     1     -34.395  46.947 -14.007  0.00  0.00    +0.000 C 
ATOM     25  C   UNL     1     -37.338  47.082 -16.051  0.00  0.00    +0.000 C 
ATOM     26  C   UNL     1     -40.353  46.257 -12.927  0.00  0.00    +0.000 C 
ENDROOT
BRANCH   9  27
ATOM     27  O   UNL     1     -37.330  47.104  -7.049  0.00  0.00    +0.000 OA
ATOM     28  H   UNL     1     -36.715  47.493  -7.697  0.00  0.00    +0.000 HD
ENDBRANCH   9  27
BRANCH  10  29
ATOM     29  O   UNL     1     -38.388  45.147  -9.905  0.00  0.00    +0.000 OA
ATOM     30  H   UNL     1     -38.872  44.341  -9.644  0.00  0.00    +0.000 HD
ENDBRANCH  10  29
BRANCH  14  31
ATOM     31  O   UNL     1     -33.252  43.085 -13.407  0.00  0.00    +0.000 OA
ATOM     32  H   UNL     1     -33.659  42.636 -14.178  0.00  0.00    +0.000 HD
ENDBRANCH  14  31
BRANCH  15  33
ATOM     33  O   UNL     1     -35.498  43.634 -14.771  0.00  0.00    +0.000 OA
ATOM     34  C   UNL     1     -36.599  42.848 -14.399  0.00  0.00    +0.000 C 
ENDBRANCH  15  33
BRANCH  20  35
ATOM     35  O   UNL     1     -39.340  48.946 -14.964  0.00  0.00    +0.000 OA
BRANCH  35  37
ATOM     36  O   UNL     1     -37.811  50.598 -14.351  0.00  0.00    +0.000 OA
ATOM     37  C   UNL     1     -38.907  50.206 -14.703  0.00  0.00    +0.000 C 
ATOM     38  C   UNL     1     -39.952  51.254 -14.818  0.00  0.00    +0.000 C 
ENDBRANCH  35  37
ENDBRANCH  20  35
BRANCH   6  39
ATOM     39  C   UNL     1     -34.333  46.079  -7.454  0.00  0.00    +0.000 C 
BRANCH  39  41
ATOM     40  O   UNL     1     -32.669  45.752  -5.549  0.00  0.00    +0.000 OA
ATOM     41  C   UNL     1     -33.322  45.248  -6.741  0.00  0.00    +0.000 C 
ATOM     42  C   UNL     1     -33.700  44.875  -5.380  0.00  0.00    +0.000 C 
ATOM     43  C   UNL     1     -32.258  44.486  -7.604  0.00  0.00    +0.000 C 
BRANCH  42  44
ATOM     44  C   UNL     1     -33.423  43.576  -4.838  0.00  0.00    +0.000 C 
ATOM     45  C   UNL     1     -32.290  43.392  -3.860  0.00  0.00    +0.000 C 
BRANCH  44  46
ATOM     46  C   UNL     1     -34.478  42.628  -4.756  0.00  0.00    +0.000 C 
ATOM     47  C   UNL     1     -35.311  41.766  -4.747  0.00  0.00    +0.000 C 
ATOM     48  C   UNL     1     -36.302  40.596  -4.839  0.00  0.00    +0.000 C 
ENDBRANCH  44  46
ENDBRANCH  42  44
ENDBRANCH  39  41
BRANCH  39  49
ATOM     49  O   UNL     1     -34.166  47.448  -7.608  0.00  0.00    +0.000 OA
ATOM     50  H   UNL     1     -33.438  47.800  -7.062  0.00  0.00    +0.000 HD
ENDBRANCH  39  49
ENDBRANCH   6  39
BRANCH   9  51
ATOM     51  C   UNL     1     -38.819  45.294  -6.700  0.00  0.00    +0.000 C 
BRANCH  51  52
ATOM     52  O   UNL     1     -39.749  44.758  -5.911  0.00  0.00    +0.000 OA
ATOM     53  H   UNL     1     -39.783  45.222  -5.054  0.00  0.00    +0.000 HD
ENDBRANCH  51  52
ENDBRANCH   9  51
TORSDOF 13
ENDMDL
MODEL 4
REMARK VINA RESULT:      -6.1     18.723     22.718
REMARK  Name = 101808841_CandidaspongiolideA.pdbqt.pdb
REMARK  13 active torsions:
REMARK  status: ('A' for Active; 'I' for Inactive)
REMARK    1  A    between atoms: C_6  and  C_39
REMARK    2  A    between atoms: C_9  and  O_27
REMARK    3  A    between atoms: C_9  and  C_51
REMARK    4  A    between atoms: C_10  and  O_29
REMARK    5  A    between atoms: C_14  and  O_31
REMARK    6  A    between atoms: C_15  and  O_33
REMARK    7  A    between atoms: C_20  and  O_35
REMARK    8  A    between atoms: O_35  and  C_37
REMARK    9  A    between atoms: C_39  and  C_41
REMARK   10  A    between atoms: C_39  and  O_49
REMARK   11  A    between atoms: C_42  and  C_44
REMARK   12  A    between atoms: C_44  and  C_46
REMARK   13  A    between atoms: C_51  and  O_52
REMARK                            x       y       z     vdW  Elec       q    Type
REMARK                         _______ _______ _______ _____ _____    ______ ____
ROOT
ATOM      1  O   UNL     1     -15.880  58.156 -16.070  0.00  0.00    +0.000 OA
ATOM      2  O   UNL     1     -16.600  62.161 -15.219  0.00  0.00    +0.000 OA
ATOM      3  O   UNL     1     -16.364  58.384 -18.314  0.00  0.00    +0.000 OA
ATOM      4  O   UNL     1     -17.620  59.160  -9.436  0.00  0.00    +0.000 OA
ATOM      5  O   UNL     1     -14.437  57.250 -13.792  0.00  0.00    +0.000 OA
ATOM      6  C   UNL     1     -17.702  60.084 -15.336  0.00  0.00    +0.000 C 
ATOM      7  C   UNL     1     -17.141  61.252 -14.588  0.00  0.00    +0.000 C 
ATOM      8  C   UNL     1     -16.793  59.066 -15.738  0.00  0.00    +0.000 C 
ATOM      9  C   UNL     1     -17.206  61.169 -13.038  0.00  0.00    +0.000 C 
ATOM     10  C   UNL     1     -16.166  60.194 -12.512  0.00  0.00    +0.000 C 
ATOM     11  C   UNL     1     -16.357  59.430 -11.323  0.00  0.00    +0.000 C 
ATOM     12  C   UNL     1     -15.677  57.962 -17.395  0.00  0.00    +0.000 C 
ATOM     13  C   UNL     1     -16.685  58.721 -10.097  0.00  0.00    +0.000 C 
ATOM     14  C   UNL     1     -14.439  57.185 -17.637  0.00  0.00    +0.000 C 
ATOM     15  C   UNL     1     -13.631  56.574 -16.601  0.00  0.00    +0.000 C 
ATOM     16  C   UNL     1     -15.894  57.514  -9.691  0.00  0.00    +0.000 C 
ATOM     17  C   UNL     1     -14.100  55.681 -15.549  0.00  0.00    +0.000 C 
ATOM     18  C   UNL     1     -13.406  55.188 -13.143  0.00  0.00    +0.000 C 
ATOM     19  C   UNL     1     -13.998  56.149 -14.131  0.00  0.00    +0.000 C 
ATOM     20  C   UNL     1     -13.604  55.429 -11.711  0.00  0.00    +0.000 C 
ATOM     21  C   UNL     1     -14.750  57.086 -10.411  0.00  0.00    +0.000 C 
ATOM     22  C   UNL     1     -13.699  56.722 -11.074  0.00  0.00    +0.000 C 
ATOM     23  C   UNL     1     -16.237  56.667  -8.484  0.00  0.00    +0.000 C 
ATOM     24  C   UNL     1     -15.229  54.699 -15.868  0.00  0.00    +0.000 C 
ATOM     25  C   UNL     1     -12.526  54.033 -13.607  0.00  0.00    +0.000 C 
ATOM     26  C   UNL     1     -12.659  57.793 -11.289  0.00  0.00    +0.000 C 
ENDROOT
BRANCH   9  27
ATOM     27  O   UNL     1     -18.498  60.700 -12.650  0.00  0.00    +0.000 OA
ATOM     28  H   UNL     1     -18.405  60.307 -11.763  0.00  0.00    +0.000 HD
ENDBRANCH   9  27
BRANCH  10  29
ATOM     29  O   UNL     1     -14.977  60.071 -13.203  0.00  0.00    +0.000 OA
ATOM     30  H   UNL     1     -14.325  59.489 -12.768  0.00  0.00    +0.000 HD
ENDBRANCH  10  29
BRANCH  14  31
ATOM     31  O   UNL     1     -13.972  57.065 -18.935  0.00  0.00    +0.000 OA
ATOM     32  H   UNL     1     -13.637  56.158 -19.099  0.00  0.00    +0.000 HD
ENDBRANCH  14  31
BRANCH  15  33
ATOM     33  O   UNL     1     -12.294  56.438 -16.936  0.00  0.00    +0.000 OA
ATOM     34  C   UNL     1     -11.559  57.535 -16.460  0.00  0.00    +0.000 C 
ENDBRANCH  15  33
BRANCH  20  35
ATOM     35  O   UNL     1     -13.340  54.372 -10.799  0.00  0.00    +0.000 OA
BRANCH  35  37
ATOM     36  O   UNL     1     -11.046  54.600 -10.441  0.00  0.00    +0.000 OA
ATOM     37  C   UNL     1     -12.203  54.532 -10.074  0.00  0.00    +0.000 C 
ATOM     38  C   UNL     1     -12.410  54.580  -8.605  0.00  0.00    +0.000 C 
ENDBRANCH  35  37
ENDBRANCH  20  35
BRANCH   6  39
ATOM     39  C   UNL     1     -19.099  60.057 -15.720  0.00  0.00    +0.000 C 
BRANCH  39  41
ATOM     40  O   UNL     1     -21.157  61.325 -16.532  0.00  0.00    +0.000 OA
ATOM     41  C   UNL     1     -19.716  61.171 -16.495  0.00  0.00    +0.000 C 
ATOM     42  C   UNL     1     -20.458  62.131 -15.682  0.00  0.00    +0.000 C 
ATOM     43  C   UNL     1     -19.148  61.474 -17.924  0.00  0.00    +0.000 C 
BRANCH  42  44
ATOM     44  C   UNL     1     -20.420  63.543 -15.939  0.00  0.00    +0.000 C 
ATOM     45  C   UNL     1     -21.677  64.272 -16.340  0.00  0.00    +0.000 C 
BRANCH  44  46
ATOM     46  C   UNL     1     -19.417  64.327 -15.309  0.00  0.00    +0.000 C 
ATOM     47  C   UNL     1     -18.599  65.067 -14.839  0.00  0.00    +0.000 C 
ATOM     48  C   UNL     1     -17.578  66.104 -14.348  0.00  0.00    +0.000 C 
ENDBRANCH  44  46
ENDBRANCH  42  44
ENDBRANCH  39  41
BRANCH  39  49
ATOM     49  O   UNL     1     -19.708  58.814 -15.627  0.00  0.00    +0.000 OA
ATOM     50  H   UNL     1     -19.076  58.103 -15.405  0.00  0.00    +0.000 HD
ENDBRANCH  39  49
ENDBRANCH   6  39
BRANCH   9  51
ATOM     51  C   UNL     1     -16.972  62.500 -12.430  0.00  0.00    +0.000 C 
BRANCH  51  52
ATOM     52  O   UNL     1     -16.788  63.700 -11.880  0.00  0.00    +0.000 OA
ATOM     53  H   UNL     1     -16.030  63.685 -11.267  0.00  0.00    +0.000 HD
ENDBRANCH  51  52
ENDBRANCH   9  51
TORSDOF 13
ENDMDL
MODEL 5
REMARK VINA RESULT:      -5.9     12.940     18.219
REMARK  Name = 101808841_CandidaspongiolideA.pdbqt.pdb
REMARK  13 active torsions:
REMARK  status: ('A' for Active; 'I' for Inactive)
REMARK    1  A    between atoms: C_6  and  C_39
REMARK    2  A    between atoms: C_9  and  O_27
REMARK    3  A    between atoms: C_9  and  C_51
REMARK    4  A    between atoms: C_10  and  O_29
REMARK    5  A    between atoms: C_14  and  O_31
REMARK    6  A    between atoms: C_15  and  O_33
REMARK    7  A    between atoms: C_20  and  O_35
REMARK    8  A    between atoms: O_35  and  C_37
REMARK    9  A    between atoms: C_39  and  C_41
REMARK   10  A    between atoms: C_39  and  O_49
REMARK   11  A    between atoms: C_42  and  C_44
REMARK   12  A    between atoms: C_44  and  C_46
REMARK   13  A    between atoms: C_51  and  O_52
REMARK                            x       y       z     vdW  Elec       q    Type
REMARK                         _______ _______ _______ _____ _____    ______ ____
ROOT
ATOM      1  O   UNL     1     -37.105  46.272  -7.650  0.00  0.00    +0.000 OA
ATOM      2  O   UNL     1     -41.237  46.728  -7.651  0.00  0.00    +0.000 OA
ATOM      3  O   UNL     1     -36.987  45.919  -5.373  0.00  0.00    +0.000 OA
ATOM      4  O   UNL     1     -39.328  50.052 -13.018  0.00  0.00    +0.000 OA
ATOM      5  O   UNL     1     -36.492  45.830 -10.393  0.00  0.00    +0.000 OA
ATOM      6  C   UNL     1     -39.253  47.976  -7.418  0.00  0.00    +0.000 C 
ATOM      7  C   UNL     1     -40.487  47.565  -8.158  0.00  0.00    +0.000 C 
ATOM      8  C   UNL     1     -38.120  47.120  -7.508  0.00  0.00    +0.000 C 
ATOM      9  C   UNL     1     -40.670  48.170  -9.576  0.00  0.00    +0.000 C 
ATOM     10  C   UNL     1     -39.726  47.508 -10.566  0.00  0.00    +0.000 C 
ATOM     11  C   UNL     1     -39.187  48.192 -11.695  0.00  0.00    +0.000 C 
ATOM     12  C   UNL     1     -36.677  45.650  -6.526  0.00  0.00    +0.000 C 
ATOM     13  C   UNL     1     -38.719  49.010 -12.802  0.00  0.00    +0.000 C 
ATOM     14  C   UNL     1     -35.784  44.513  -6.850  0.00  0.00    +0.000 C 
ATOM     15  C   UNL     1     -35.300  44.197  -8.177  0.00  0.00    +0.000 C 
ATOM     16  C   UNL     1     -37.544  48.567 -13.620  0.00  0.00    +0.000 C 
ATOM     17  C   UNL     1     -34.632  45.109  -9.098  0.00  0.00    +0.000 C 
ATOM     18  C   UNL     1     -34.500  45.357 -11.635  0.00  0.00    +0.000 C 
ATOM     19  C   UNL     1     -35.322  45.444 -10.382  0.00  0.00    +0.000 C 
ATOM     20  C   UNL     1     -34.991  46.004 -12.853  0.00  0.00    +0.000 C 
ATOM     21  C   UNL     1     -36.920  47.309 -13.424  0.00  0.00    +0.000 C 
ATOM     22  C   UNL     1     -36.377  46.148 -13.238  0.00  0.00    +0.000 C 
ATOM     23  C   UNL     1     -36.938  49.410 -14.722  0.00  0.00    +0.000 C 
ATOM     24  C   UNL     1     -33.693  46.173  -8.525  0.00  0.00    +0.000 C 
ATOM     25  C   UNL     1     -33.224  44.523 -11.674  0.00  0.00    +0.000 C 
ATOM     26  C   UNL     1     -37.319  44.971 -13.274  0.00  0.00    +0.000 C 
ENDROOT
BRANCH   9  27
ATOM     27  O   UNL     1     -40.367  49.566  -9.531  0.00  0.00    +0.000 OA
ATOM     28  H   UNL     1     -39.518  49.659  -9.061  0.00  0.00    +0.000 HD
ENDBRANCH   9  27
BRANCH  10  29
ATOM     29  O   UNL     1     -39.404  46.180 -10.372  0.00  0.00    +0.000 OA
ATOM     30  H   UNL     1     -38.839  45.803 -11.074  0.00  0.00    +0.000 HD
ENDBRANCH  10  29
BRANCH  14  31
ATOM     31  O   UNL     1     -35.416  43.647  -5.835  0.00  0.00    +0.000 OA
ATOM     32  H   UNL     1     -34.890  44.117  -5.154  0.00  0.00    +0.000 HD
ENDBRANCH  14  31
BRANCH  15  33
ATOM     33  O   UNL     1     -35.015  42.855  -8.369  0.00  0.00    +0.000 OA
ATOM     34  C   UNL     1     -33.636  42.671  -8.556  0.00  0.00    +0.000 C 
ENDBRANCH  15  33
BRANCH  20  35
ATOM     35  O   UNL     1     -34.086  46.207 -13.930  0.00  0.00    +0.000 OA
BRANCH  35  37
ATOM     36  O   UNL     1     -34.234  44.153 -15.028  0.00  0.00    +0.000 OA
ATOM     37  C   UNL     1     -34.273  45.368 -14.981  0.00  0.00    +0.000 C 
ATOM     38  C   UNL     1     -34.511  46.048 -16.279  0.00  0.00    +0.000 C 
ENDBRANCH  35  37
ENDBRANCH  20  35
BRANCH   6  39
ATOM     39  C   UNL     1     -39.263  49.146  -6.564  0.00  0.00    +0.000 C 
BRANCH  39  41
ATOM     40  O   UNL     1     -38.832  49.673  -4.106  0.00  0.00    +0.000 OA
ATOM     41  C   UNL     1     -39.656  49.061  -5.128  0.00  0.00    +0.000 C 
ATOM     42  C   UNL     1     -39.947  50.350  -4.507  0.00  0.00    +0.000 C 
ATOM     43  C   UNL     1     -40.171  47.682  -4.589  0.00  0.00    +0.000 C 
BRANCH  42  44
ATOM     44  C   UNL     1     -41.024  50.524  -3.574  0.00  0.00    +0.000 C 
ATOM     45  C   UNL     1     -40.830  50.167  -2.121  0.00  0.00    +0.000 C 
BRANCH  44  46
ATOM     46  C   UNL     1     -42.018  51.500  -3.850  0.00  0.00    +0.000 C 
ATOM     47  C   UNL     1     -42.780  52.393  -4.095  0.00  0.00    +0.000 C 
ATOM     48  C   UNL     1     -43.644  53.626  -4.396  0.00  0.00    +0.000 C 
ENDBRANCH  44  46
ENDBRANCH  42  44
ENDBRANCH  39  41
BRANCH  39  49
ATOM     49  O   UNL     1     -38.570  50.240  -7.061  0.00  0.00    +0.000 OA
ATOM     50  H   UNL     1     -38.408  50.175  -8.022  0.00  0.00    +0.000 HD
ENDBRANCH  39  49
ENDBRANCH   6  39
BRANCH   9  51
ATOM     51  C   UNL     1     -42.064  47.995 -10.048  0.00  0.00    +0.000 C 
BRANCH  51  52
ATOM     52  O   UNL     1     -43.308  47.830 -10.497  0.00  0.00    +0.000 OA
ATOM     53  H   UNL     1     -43.904  47.571  -9.770  0.00  0.00    +0.000 HD
ENDBRANCH  51  52
ENDBRANCH   9  51
TORSDOF 13
ENDMDL
MODEL 6
REMARK VINA RESULT:      -5.9     17.762     22.875
REMARK  Name = 101808841_CandidaspongiolideA.pdbqt.pdb
REMARK  13 active torsions:
REMARK  status: ('A' for Active; 'I' for Inactive)
REMARK    1  A    between atoms: C_6  and  C_39
REMARK    2  A    between atoms: C_9  and  O_27
REMARK    3  A    between atoms: C_9  and  C_51
REMARK    4  A    between atoms: C_10  and  O_29
REMARK    5  A    between atoms: C_14  and  O_31
REMARK    6  A    between atoms: C_15  and  O_33
REMARK    7  A    between atoms: C_20  and  O_35
REMARK    8  A    between atoms: O_35  and  C_37
REMARK    9  A    between atoms: C_39  and  C_41
REMARK   10  A    between atoms: C_39  and  O_49
REMARK   11  A    between atoms: C_42  and  C_44
REMARK   12  A    between atoms: C_44  and  C_46
REMARK   13  A    between atoms: C_51  and  O_52
REMARK                            x       y       z     vdW  Elec       q    Type
REMARK                         _______ _______ _______ _____ _____    ______ ____
ROOT
ATOM      1  O   UNL     1     -35.614  48.075 -23.026  0.00  0.00    +0.000 OA
ATOM      2  O   UNL     1     -38.322  48.571 -19.910  0.00  0.00    +0.000 OA
ATOM      3  O   UNL     1     -34.605  46.237 -22.064  0.00  0.00    +0.000 OA
ATOM      4  O   UNL     1     -37.879  54.607 -22.531  0.00  0.00    +0.000 OA
ATOM      5  O   UNL     1     -36.734  49.635 -25.124  0.00  0.00    +0.000 OA
ATOM      6  C   UNL     1     -36.164  49.227 -20.588  0.00  0.00    +0.000 C 
ATOM      7  C   UNL     1     -37.610  49.494 -20.310  0.00  0.00    +0.000 C 
ATOM      8  C   UNL     1     -35.836  48.628 -21.836  0.00  0.00    +0.000 C 
ATOM      9  C   UNL     1     -38.120  50.921 -20.650  0.00  0.00    +0.000 C 
ATOM     10  C   UNL     1     -38.265  51.093 -22.152  0.00  0.00    +0.000 C 
ATOM     11  C   UNL     1     -38.083  52.346 -22.807  0.00  0.00    +0.000 C 
ATOM     12  C   UNL     1     -35.080  46.831 -23.022  0.00  0.00    +0.000 C 
ATOM     13  C   UNL     1     -37.871  53.684 -23.337  0.00  0.00    +0.000 C 
ATOM     14  C   UNL     1     -35.181  46.202 -24.360  0.00  0.00    +0.000 C 
ATOM     15  C   UNL     1     -35.641  46.876 -25.556  0.00  0.00    +0.000 C 
ATOM     16  C   UNL     1     -37.658  53.885 -24.807  0.00  0.00    +0.000 C 
ATOM     17  C   UNL     1     -35.149  48.143 -26.082  0.00  0.00    +0.000 C 
ATOM     18  C   UNL     1     -36.161  50.076 -27.408  0.00  0.00    +0.000 C 
ATOM     19  C   UNL     1     -36.094  49.303 -26.123  0.00  0.00    +0.000 C 
ATOM     20  C   UNL     1     -36.773  51.407 -27.405  0.00  0.00    +0.000 C 
ATOM     21  C   UNL     1     -37.759  52.819 -25.736  0.00  0.00    +0.000 C 
ATOM     22  C   UNL     1     -37.872  51.833 -26.568  0.00  0.00    +0.000 C 
ATOM     23  C   UNL     1     -37.334  55.231 -25.419  0.00  0.00    +0.000 C 
ATOM     24  C   UNL     1     -33.663  48.473 -25.932  0.00  0.00    +0.000 C 
ATOM     25  C   UNL     1     -35.697  49.452 -28.719  0.00  0.00    +0.000 C 
ATOM     26  C   UNL     1     -39.158  51.050 -26.484  0.00  0.00    +0.000 C 
ENDROOT
BRANCH   9  27
ATOM     27  O   UNL     1     -37.173  51.881 -20.177  0.00  0.00    +0.000 OA
ATOM     28  H   UNL     1     -36.753  51.501 -19.384  0.00  0.00    +0.000 HD
ENDBRANCH   9  27
BRANCH  10  29
ATOM     29  O   UNL     1     -38.618  49.990 -22.905  0.00  0.00    +0.000 OA
ATOM     30  H   UNL     1     -39.518  49.660 -22.725  0.00  0.00    +0.000 HD
ENDBRANCH  10  29
BRANCH  14  31
ATOM     31  O   UNL     1     -34.866  44.861 -24.489  0.00  0.00    +0.000 OA
ATOM     32  H   UNL     1     -34.692  44.460 -23.611  0.00  0.00    +0.000 HD
ENDBRANCH  14  31
BRANCH  15  33
ATOM     33  O   UNL     1     -36.214  46.032 -26.494  0.00  0.00    +0.000 OA
ATOM     34  C   UNL     1     -37.607  45.996 -26.330  0.00  0.00    +0.000 C 
ENDBRANCH  15  33
BRANCH  20  35
ATOM     35  O   UNL     1     -36.549  52.263 -28.516  0.00  0.00    +0.000 OA
BRANCH  35  37
ATOM     36  O   UNL     1     -34.230  52.515 -28.473  0.00  0.00    +0.000 OA
ATOM     37  C   UNL     1     -35.371  52.936 -28.473  0.00  0.00    +0.000 C 
ATOM     38  C   UNL     1     -35.506  54.409 -28.357  0.00  0.00    +0.000 C 
ENDBRANCH  35  37
ENDBRANCH  20  35
BRANCH   6  39
ATOM     39  C   UNL     1     -35.161  49.476 -19.572  0.00  0.00    +0.000 C 
BRANCH  39  41
ATOM     40  O   UNL     1     -33.599  48.495 -17.810  0.00  0.00    +0.000 OA
ATOM     41  C   UNL     1     -34.875  48.483 -18.497  0.00  0.00    +0.000 C 
ATOM     42  C   UNL     1     -34.663  49.069 -17.177  0.00  0.00    +0.000 C 
ATOM     43  C   UNL     1     -35.288  46.992 -18.748  0.00  0.00    +0.000 C 
BRANCH  42  44
ATOM     44  C   UNL     1     -35.166  48.460 -15.979  0.00  0.00    +0.000 C 
ATOM     45  C   UNL     1     -34.286  47.541 -15.170  0.00  0.00    +0.000 C 
BRANCH  44  46
ATOM     46  C   UNL     1     -36.212  49.109 -15.268  0.00  0.00    +0.000 C 
ATOM     47  C   UNL     1     -37.124  49.563 -14.636  0.00  0.00    +0.000 C 
ATOM     48  C   UNL     1     -38.340  50.008 -13.812  0.00  0.00    +0.000 C 
ENDBRANCH  44  46
ENDBRANCH  42  44
ENDBRANCH  39  41
BRANCH  39  49
ATOM     49  O   UNL     1     -34.275  50.503 -19.863  0.00  0.00    +0.000 OA
ATOM     50  H   UNL     1     -34.499  50.967 -20.693  0.00  0.00    +0.000 HD
ENDBRANCH  39  49
ENDBRANCH   6  39
BRANCH   9  51
ATOM     51  C   UNL     1     -39.430  51.178 -20.006  0.00  0.00    +0.000 C 
BRANCH  51  52
ATOM     52  O   UNL     1     -40.614  51.383 -19.428  0.00  0.00    +0.000 OA
ATOM     53  H   UNL     1     -40.503  51.809 -18.558  0.00  0.00    +0.000 HD
ENDBRANCH  51  52
ENDBRANCH   9  51
TORSDOF 13
ENDMDL
MODEL 7
REMARK VINA RESULT:      -5.8     17.111     23.048
REMARK  Name = 101808841_CandidaspongiolideA.pdbqt.pdb
REMARK  13 active torsions:
REMARK  status: ('A' for Active; 'I' for Inactive)
REMARK    1  A    between atoms: C_6  and  C_39
REMARK    2  A    between atoms: C_9  and  O_27
REMARK    3  A    between atoms: C_9  and  C_51
REMARK    4  A    between atoms: C_10  and  O_29
REMARK    5  A    between atoms: C_14  and  O_31
REMARK    6  A    between atoms: C_15  and  O_33
REMARK    7  A    between atoms: C_20  and  O_35
REMARK    8  A    between atoms: O_35  and  C_37
REMARK    9  A    between atoms: C_39  and  C_41
REMARK   10  A    between atoms: C_39  and  O_49
REMARK   11  A    between atoms: C_42  and  C_44
REMARK   12  A    between atoms: C_44  and  C_46
REMARK   13  A    between atoms: C_51  and  O_52
REMARK                            x       y       z     vdW  Elec       q    Type
REMARK                         _______ _______ _______ _____ _____    ______ ____
ROOT
ATOM      1  O   UNL     1     -27.488  63.413 -23.888  0.00  0.00    +0.000 OA
ATOM      2  O   UNL     1     -26.879  59.972 -26.140  0.00  0.00    +0.000 OA
ATOM      3  O   UNL     1     -27.931  62.252 -21.944  0.00  0.00    +0.000 OA
ATOM      4  O   UNL     1     -28.653  64.454 -30.641  0.00  0.00    +0.000 OA
ATOM      5  O   UNL     1     -26.350  65.463 -25.500  0.00  0.00    +0.000 OA
ATOM      6  C   UNL     1     -28.586  61.454 -25.477  0.00  0.00    +0.000 C 
ATOM      7  C   UNL     1     -27.665  60.853 -26.493  0.00  0.00    +0.000 C 
ATOM      8  C   UNL     1     -28.056  62.468 -24.632  0.00  0.00    +0.000 C 
ATOM      9  C   UNL     1     -27.714  61.475 -27.915  0.00  0.00    +0.000 C 
ATOM     10  C   UNL     1     -27.024  62.829 -27.930  0.00  0.00    +0.000 C 
ATOM     11  C   UNL     1     -27.417  63.886 -28.802  0.00  0.00    +0.000 C 
ATOM     12  C   UNL     1     -27.390  63.159 -22.561  0.00  0.00    +0.000 C 
ATOM     13  C   UNL     1     -27.923  64.868 -29.748  0.00  0.00    +0.000 C 
ATOM     14  C   UNL     1     -26.468  64.113 -21.901  0.00  0.00    +0.000 C 
ATOM     15  C   UNL     1     -25.870  65.264 -22.545  0.00  0.00    +0.000 C 
ATOM     16  C   UNL     1     -27.545  66.312 -29.606  0.00  0.00    +0.000 C 
ATOM     17  C   UNL     1     -26.572  66.305 -23.286  0.00  0.00    +0.000 C 
ATOM     18  C   UNL     1     -26.010  67.822 -25.261  0.00  0.00    +0.000 C 
ATOM     19  C   UNL     1     -26.291  66.439 -24.750  0.00  0.00    +0.000 C 
ATOM     20  C   UNL     1     -26.086  68.075 -26.702  0.00  0.00    +0.000 C 
ATOM     21  C   UNL     1     -26.614  66.755 -28.633  0.00  0.00    +0.000 C 
ATOM     22  C   UNL     1     -25.749  67.135 -27.747  0.00  0.00    +0.000 C 
ATOM     23  C   UNL     1     -28.108  67.405 -30.489  0.00  0.00    +0.000 C 
ATOM     24  C   UNL     1     -27.961  66.735 -22.812  0.00  0.00    +0.000 C 
ATOM     25  C   UNL     1     -25.553  68.926 -24.315  0.00  0.00    +0.000 C 
ATOM     26  C   UNL     1     -24.429  66.407 -27.768  0.00  0.00    +0.000 C 
ENDROOT
BRANCH   9  27
ATOM     27  O   UNL     1     -29.078  61.662 -28.296  0.00  0.00    +0.000 OA
ATOM     28  H   UNL     1     -29.562  60.859 -28.030  0.00  0.00    +0.000 HD
ENDBRANCH   9  27
BRANCH  10  29
ATOM     29  O   UNL     1     -25.953  63.025 -27.081  0.00  0.00    +0.000 OA
ATOM     30  H   UNL     1     -26.208  63.303 -26.181  0.00  0.00    +0.000 HD
ENDBRANCH  10  29
BRANCH  14  31
ATOM     31  O   UNL     1     -26.097  63.878 -20.589  0.00  0.00    +0.000 OA
ATOM     32  H   UNL     1     -26.052  62.914 -20.409  0.00  0.00    +0.000 HD
ENDBRANCH  14  31
BRANCH  15  33
ATOM     33  O   UNL     1     -24.654  65.645 -22.004  0.00  0.00    +0.000 OA
ATOM     34  C   UNL     1     -23.598  65.053 -22.713  0.00  0.00    +0.000 C 
ENDBRANCH  15  33
BRANCH  20  35
ATOM     35  O   UNL     1     -26.147  69.420 -27.155  0.00  0.00    +0.000 OA
BRANCH  35  37
ATOM     36  O   UNL     1     -28.445  69.506 -27.552  0.00  0.00    +0.000 OA
ATOM     37  C   UNL     1     -27.394  69.958 -27.139  0.00  0.00    +0.000 C 
ATOM     38  C   UNL     1     -27.468  71.329 -26.576  0.00  0.00    +0.000 C 
ENDBRANCH  35  37
ENDBRANCH  20  35
BRANCH   6  39
ATOM     39  C   UNL     1     -29.928  60.936 -25.304  0.00  0.00    +0.000 C 
BRANCH  39  41
ATOM     40  O   UNL     1     -32.400  61.305 -24.798  0.00  0.00    +0.000 OA
ATOM     41  C   UNL     1     -31.099  61.844 -25.140  0.00  0.00    +0.000 C 
ATOM     42  C   UNL     1     -31.664  61.860 -23.793  0.00  0.00    +0.000 C 
ATOM     43  C   UNL     1     -31.298  62.985 -26.196  0.00  0.00    +0.000 C 
BRANCH  42  44
ATOM     44  C   UNL     1     -32.134  63.067 -23.175  0.00  0.00    +0.000 C 
ATOM     45  C   UNL     1     -33.614  63.342 -23.085  0.00  0.00    +0.000 C 
BRANCH  44  46
ATOM     46  C   UNL     1     -31.321  63.696 -22.195  0.00  0.00    +0.000 C 
ATOM     47  C   UNL     1     -30.696  64.185 -21.296  0.00  0.00    +0.000 C 
ATOM     48  C   UNL     1     -30.005  64.773 -20.057  0.00  0.00    +0.000 C 
ENDBRANCH  44  46
ENDBRANCH  42  44
ENDBRANCH  39  41
BRANCH  39  49
ATOM     49  O   UNL     1     -30.089  59.600 -25.643  0.00  0.00    +0.000 OA
ATOM     50  H   UNL     1     -29.847  58.998 -24.913  0.00  0.00    +0.000 HD
ENDBRANCH  39  49
ENDBRANCH   6  39
BRANCH   9  51
ATOM     51  C   UNL     1     -27.055  60.587 -28.901  0.00  0.00    +0.000 C 
BRANCH  51  52
ATOM     52  O   UNL     1     -26.438  59.795 -29.779  0.00  0.00    +0.000 OA
ATOM     53  H   UNL     1     -27.088  59.319 -30.329  0.00  0.00    +0.000 HD
ENDBRANCH  51  52
ENDBRANCH   9  51
TORSDOF 13
ENDMDL
MODEL 8
REMARK VINA RESULT:      -5.8     20.251     24.891
REMARK  Name = 101808841_CandidaspongiolideA.pdbqt.pdb
REMARK  13 active torsions:
REMARK  status: ('A' for Active; 'I' for Inactive)
REMARK    1  A    between atoms: C_6  and  C_39
REMARK    2  A    between atoms: C_9  and  O_27
REMARK    3  A    between atoms: C_9  and  C_51
REMARK    4  A    between atoms: C_10  and  O_29
REMARK    5  A    between atoms: C_14  and  O_31
REMARK    6  A    between atoms: C_15  and  O_33
REMARK    7  A    between atoms: C_20  and  O_35
REMARK    8  A    between atoms: O_35  and  C_37
REMARK    9  A    between atoms: C_39  and  C_41
REMARK   10  A    between atoms: C_39  and  O_49
REMARK   11  A    between atoms: C_42  and  C_44
REMARK   12  A    between atoms: C_44  and  C_46
REMARK   13  A    between atoms: C_51  and  O_52
REMARK                            x       y       z     vdW  Elec       q    Type
REMARK                         _______ _______ _______ _____ _____    ______ ____
ROOT
ATOM      1  O   UNL     1     -26.290  63.200 -25.360  0.00  0.00    +0.000 OA
ATOM      2  O   UNL     1     -24.591  66.994 -25.438  0.00  0.00    +0.000 OA
ATOM      3  O   UNL     1     -26.031  62.959 -23.080  0.00  0.00    +0.000 OA
ATOM      4  O   UNL     1     -23.609  64.750 -31.561  0.00  0.00    +0.000 OA
ATOM      5  O   UNL     1     -27.625  63.027 -27.866  0.00  0.00    +0.000 OA
ATOM      6  C   UNL     1     -24.007  64.718 -25.602  0.00  0.00    +0.000 C 
ATOM      7  C   UNL     1     -24.200  66.087 -26.175  0.00  0.00    +0.000 C 
ATOM      8  C   UNL     1     -25.163  63.901 -25.456  0.00  0.00    +0.000 C 
ATOM      9  C   UNL     1     -23.975  66.228 -27.705  0.00  0.00    +0.000 C 
ATOM     10  C   UNL     1     -25.140  65.625 -28.473  0.00  0.00    +0.000 C 
ATOM     11  C   UNL     1     -24.989  65.027 -29.759  0.00  0.00    +0.000 C 
ATOM     12  C   UNL     1     -26.685  62.861 -24.110  0.00  0.00    +0.000 C 
ATOM     13  C   UNL     1     -24.689  64.455 -31.061  0.00  0.00    +0.000 C 
ATOM     14  C   UNL     1     -28.085  62.380 -24.103  0.00  0.00    +0.000 C 
ATOM     15  C   UNL     1     -28.884  62.147 -25.289  0.00  0.00    +0.000 C 
ATOM     16  C   UNL     1     -25.679  63.552 -31.732  0.00  0.00    +0.000 C 
ATOM     17  C   UNL     1     -28.509  61.338 -26.443  0.00  0.00    +0.000 C 
ATOM     18  C   UNL     1     -29.012  61.399 -28.944  0.00  0.00    +0.000 C 
ATOM     19  C   UNL     1     -28.338  62.027 -27.759  0.00  0.00    +0.000 C 
ATOM     20  C   UNL     1     -28.599  61.800 -30.291  0.00  0.00    +0.000 C 
ATOM     21  C   UNL     1     -26.966  63.308 -31.189  0.00  0.00    +0.000 C 
ATOM     22  C   UNL     1     -28.142  63.113 -30.682  0.00  0.00    +0.000 C 
ATOM     23  C   UNL     1     -25.398  62.841 -33.039  0.00  0.00    +0.000 C 
ATOM     24  C   UNL     1     -27.676  60.076 -26.214  0.00  0.00    +0.000 C 
ATOM     25  C   UNL     1     -30.178  60.435 -28.758  0.00  0.00    +0.000 C 
ATOM     26  C   UNL     1     -28.932  64.358 -30.365  0.00  0.00    +0.000 C 
ENDROOT
BRANCH   9  27
ATOM     27  O   UNL     1     -22.786  65.525 -28.069  0.00  0.00    +0.000 OA
ATOM     28  H   UNL     1     -22.035  66.017 -27.689  0.00  0.00    +0.000 HD
ENDBRANCH   9  27
BRANCH  10  29
ATOM     29  O   UNL     1     -26.398  65.689 -27.908  0.00  0.00    +0.000 OA
ATOM     30  H   UNL     1     -26.398  65.973 -26.974  0.00  0.00    +0.000 HD
ENDBRANCH  10  29
BRANCH  14  31
ATOM     31  O   UNL     1     -28.714  62.180 -22.887  0.00  0.00    +0.000 OA
ATOM     32  H   UNL     1     -29.688  62.241 -22.987  0.00  0.00    +0.000 HD
ENDBRANCH  14  31
BRANCH  15  33
ATOM     33  O   UNL     1     -30.247  62.289 -25.088  0.00  0.00    +0.000 OA
ATOM     34  C   UNL     1     -30.654  63.591 -25.416  0.00  0.00    +0.000 C 
ENDBRANCH  15  33
BRANCH  20  35
ATOM     35  O   UNL     1     -28.987  60.990 -31.392  0.00  0.00    +0.000 OA
BRANCH  35  37
ATOM     36  O   UNL     1     -27.126  59.593 -31.225  0.00  0.00    +0.000 OA
ATOM     37  C   UNL     1     -28.017  60.150 -31.837  0.00  0.00    +0.000 C 
ATOM     38  C   UNL     1     -28.020  59.925 -33.304  0.00  0.00    +0.000 C 
ENDBRANCH  35  37
ENDBRANCH  20  35
BRANCH   6  39
ATOM     39  C   UNL     1     -22.707  64.297 -25.122  0.00  0.00    +0.000 C 
BRANCH  39  41
ATOM     40  O   UNL     1     -23.044  64.335 -22.595  0.00  0.00    +0.000 OA
ATOM     41  C   UNL     1     -22.230  64.644 -23.753  0.00  0.00    +0.000 C 
ATOM     42  C   UNL     1     -22.010  63.493 -22.882  0.00  0.00    +0.000 C 
ATOM     43  C   UNL     1     -21.579  66.054 -23.539  0.00  0.00    +0.000 C 
BRANCH  42  44
ATOM     44  C   UNL     1     -20.901  63.422 -21.974  0.00  0.00    +0.000 C 
ATOM     45  C   UNL     1     -21.099  63.740 -20.513  0.00  0.00    +0.000 C 
BRANCH  44  46
ATOM     46  C   UNL     1     -19.816  62.559 -22.283  0.00  0.00    +0.000 C 
ATOM     47  C   UNL     1     -18.921  61.847 -22.644  0.00  0.00    +0.000 C 
ATOM     48  C   UNL     1     -17.831  60.945 -23.240  0.00  0.00    +0.000 C 
ENDBRANCH  44  46
ENDBRANCH  42  44
ENDBRANCH  39  41
BRANCH  39  49
ATOM     49  O   UNL     1     -22.107  63.290 -25.864  0.00  0.00    +0.000 OA
ATOM     50  H   UNL     1     -22.738  62.593 -26.129  0.00  0.00    +0.000 HD
ENDBRANCH  39  49
ENDBRANCH   6  39
BRANCH   9  51
ATOM     51  C   UNL     1     -23.830  67.652 -28.087  0.00  0.00    +0.000 C 
BRANCH  51  52
ATOM     52  O   UNL     1     -23.675  68.933 -28.422  0.00  0.00    +0.000 OA
ATOM     53  H   UNL     1     -24.417  69.469 -28.086  0.00  0.00    +0.000 HD
ENDBRANCH  51  52
ENDBRANCH   9  51
TORSDOF 13
ENDMDL
MODEL 9
REMARK VINA RESULT:      -5.7     12.907     17.812
REMARK  Name = 101808841_CandidaspongiolideA.pdbqt.pdb
REMARK  13 active torsions:
REMARK  status: ('A' for Active; 'I' for Inactive)
REMARK    1  A    between atoms: C_6  and  C_39
REMARK    2  A    between atoms: C_9  and  O_27
REMARK    3  A    between atoms: C_9  and  C_51
REMARK    4  A    between atoms: C_10  and  O_29
REMARK    5  A    between atoms: C_14  and  O_31
REMARK    6  A    between atoms: C_15  and  O_33
REMARK    7  A    between atoms: C_20  and  O_35
REMARK    8  A    between atoms: O_35  and  C_37
REMARK    9  A    between atoms: C_39  and  C_41
REMARK   10  A    between atoms: C_39  and  O_49
REMARK   11  A    between atoms: C_42  and  C_44
REMARK   12  A    between atoms: C_44  and  C_46
REMARK   13  A    between atoms: C_51  and  O_52
REMARK                            x       y       z     vdW  Elec       q    Type
REMARK                         _______ _______ _______ _____ _____    ______ ____
ROOT
ATOM      1  O   UNL     1     -40.079  45.629  -5.196  0.00  0.00    +0.000 OA
ATOM      2  O   UNL     1     -40.213  47.183  -9.050  0.00  0.00    +0.000 OA
ATOM      3  O   UNL     1     -42.166  46.435  -4.630  0.00  0.00    +0.000 OA
ATOM      4  O   UNL     1     -33.752  46.704  -7.815  0.00  0.00    +0.000 OA
ATOM      5  O   UNL     1     -37.963  43.733  -5.326  0.00  0.00    +0.000 OA
ATOM      6  C   UNL     1     -39.554  47.755  -6.862  0.00  0.00    +0.000 C 
ATOM      7  C   UNL     1     -39.269  47.403  -8.289  0.00  0.00    +0.000 C 
ATOM      8  C   UNL     1     -39.835  46.685  -5.968  0.00  0.00    +0.000 C 
ATOM      9  C   UNL     1     -37.772  47.250  -8.671  0.00  0.00    +0.000 C 
ATOM     10  C   UNL     1     -37.213  45.946  -8.125  0.00  0.00    +0.000 C 
ATOM     11  C   UNL     1     -35.849  45.794  -7.738  0.00  0.00    +0.000 C 
ATOM     12  C   UNL     1     -41.316  45.554  -4.650  0.00  0.00    +0.000 C 
ATOM     13  C   UNL     1     -34.438  45.783  -7.386  0.00  0.00    +0.000 C 
ATOM     14  C   UNL     1     -41.575  44.206  -4.093  0.00  0.00    +0.000 C 
ATOM     15  C   UNL     1     -40.588  43.150  -3.996  0.00  0.00    +0.000 C 
ATOM     16  C   UNL     1     -33.883  44.678  -6.539  0.00  0.00    +0.000 C 
ATOM     17  C   UNL     1     -39.264  43.252  -3.394  0.00  0.00    +0.000 C 
ATOM     18  C   UNL     1     -36.994  42.160  -3.801  0.00  0.00    +0.000 C 
ATOM     19  C   UNL     1     -38.072  43.087  -4.282  0.00  0.00    +0.000 C 
ATOM     20  C   UNL     1     -35.670  42.227  -4.424  0.00  0.00    +0.000 C 
ATOM     21  C   UNL     1     -34.667  43.565  -6.143  0.00  0.00    +0.000 C 
ATOM     22  C   UNL     1     -35.398  42.550  -5.806  0.00  0.00    +0.000 C 
ATOM     23  C   UNL     1     -32.450  44.650  -6.051  0.00  0.00    +0.000 C 
ATOM     24  C   UNL     1     -39.085  44.140  -2.161  0.00  0.00    +0.000 C 
ATOM     25  C   UNL     1     -37.292  41.092  -2.755  0.00  0.00    +0.000 C 
ATOM     26  C   UNL     1     -36.087  41.836  -6.941  0.00  0.00    +0.000 C 
ENDROOT
BRANCH   9  27
ATOM     27  O   UNL     1     -37.031  48.330  -8.102  0.00  0.00    +0.000 OA
ATOM     28  H   UNL     1     -36.172  48.361  -8.561  0.00  0.00    +0.000 HD
ENDBRANCH   9  27
BRANCH  10  29
ATOM     29  O   UNL     1     -38.060  44.861  -8.031  0.00  0.00    +0.000 OA
ATOM     30  H   UNL     1     -38.870  45.035  -7.515  0.00  0.00    +0.000 HD
ENDBRANCH  10  29
BRANCH  14  31
ATOM     31  O   UNL     1     -42.857  43.893  -3.677  0.00  0.00    +0.000 OA
ATOM     32  H   UNL     1     -43.507  44.518  -4.061  0.00  0.00    +0.000 HD
ENDBRANCH  14  31
BRANCH  15  33
ATOM     33  O   UNL     1     -41.124  41.874  -4.028  0.00  0.00    +0.000 OA
ATOM     34  C   UNL     1     -41.109  41.371  -5.338  0.00  0.00    +0.000 C 
ENDBRANCH  15  33
BRANCH  20  35
ATOM     35  O   UNL     1     -34.575  41.601  -3.768  0.00  0.00    +0.000 OA
BRANCH  35  37
ATOM     36  O   UNL     1     -34.474  42.472  -1.606  0.00  0.00    +0.000 OA
ATOM     37  C   UNL     1     -34.058  42.319  -2.738  0.00  0.00    +0.000 C 
ATOM     38  C   UNL     1     -32.822  43.071  -3.069  0.00  0.00    +0.000 C 
ENDBRANCH  35  37
ENDBRANCH  20  35
BRANCH   6  39
ATOM     39  C   UNL     1     -39.641  49.141  -6.449  0.00  0.00    +0.000 C 
BRANCH  39  41
ATOM     40  O   UNL     1     -40.412  51.523  -6.938  0.00  0.00    +0.000 OA
ATOM     41  C   UNL     1     -40.583  50.093  -7.105  0.00  0.00    +0.000 C 
ATOM     42  C   UNL     1     -39.963  50.965  -8.099  0.00  0.00    +0.000 C 
ATOM     43  C   UNL     1     -42.115  49.767  -7.045  0.00  0.00    +0.000 C 
BRANCH  42  44
ATOM     44  C   UNL     1     -40.617  51.307  -9.330  0.00  0.00    +0.000 C 
ATOM     45  C   UNL     1     -41.224  52.676  -9.508  0.00  0.00    +0.000 C 
BRANCH  44  46
ATOM     46  C   UNL     1     -40.229  50.636 -10.521  0.00  0.00    +0.000 C 
ATOM     47  C   UNL     1     -39.961  50.137 -11.578  0.00  0.00    +0.000 C 
ATOM     48  C   UNL     1     -39.726  49.578 -12.988  0.00  0.00    +0.000 C 
ENDBRANCH  44  46
ENDBRANCH  42  44
ENDBRANCH  39  41
BRANCH  39  49
ATOM     49  O   UNL     1     -39.067  49.422  -5.218  0.00  0.00    +0.000 OA
ATOM     50  H   UNL     1     -38.943  48.622  -4.671  0.00  0.00    +0.000 HD
ENDBRANCH  39  49
ENDBRANCH   6  39
BRANCH   9  51
ATOM     51  C   UNL     1     -37.600  47.269 -10.143  0.00  0.00    +0.000 C 
BRANCH  51  52
ATOM     52  O   UNL     1     -37.451  47.261 -11.467  0.00  0.00    +0.000 OA
ATOM     53  H   UNL     1     -38.302  47.440 -11.910  0.00  0.00    +0.000 HD
ENDBRANCH  51  52
ENDBRANCH   9  51
TORSDOF 13
ENDMDL
