MODEL 1
REMARK VINA RESULT:      -7.1      0.000      0.000
REMARK  Name = 101808842_CandidaspongiolideB.pdbqt.pdb
REMARK  12 active torsions:
REMARK  status: ('A' for Active; 'I' for Inactive)
REMARK    1  A    between atoms: C_6  and  C_42
REMARK    2  A    between atoms: C_7  and  O_28
REMARK    3  A    between atoms: C_10  and  O_30
REMARK    4  A    between atoms: C_13  and  O_32
REMARK    5  A    between atoms: C_19  and  O_34
REMARK    6  A    between atoms: C_20  and  O_38
REMARK    7  A    between atoms: C_21  and  O_36
REMARK    8  A    between atoms: O_38  and  C_40
REMARK    9  A    between atoms: C_42  and  C_44
REMARK   10  A    between atoms: C_42  and  O_52
REMARK   11  A    between atoms: C_45  and  C_47
REMARK   12  A    between atoms: C_47  and  C_49
REMARK                            x       y       z     vdW  Elec       q    Type
REMARK                         _______ _______ _______ _____ _____    ______ ____
ROOT
ATOM      1  O   UNL     1     -26.746  61.842 -25.729  0.00  0.00    +0.000 OA
ATOM      2  O   UNL     1     -32.787  63.912 -23.194  0.00  0.00    +0.000 OA
ATOM      3  O   UNL     1     -28.961  64.798 -24.804  0.00  0.00    +0.000 OA
ATOM      4  O   UNL     1     -32.318  63.616 -25.433  0.00  0.00    +0.000 OA
ATOM      5  O   UNL     1     -32.299  60.808 -26.373  0.00  0.00    +0.000 OA
ATOM      6  C   UNL     1     -30.105  64.408 -22.799  0.00  0.00    +0.000 C 
ATOM      7  C   UNL     1     -28.577  62.581 -23.806  0.00  0.00    +0.000 C 
ATOM      8  C   UNL     1     -29.188  63.995 -23.898  0.00  0.00    +0.000 C 
ATOM      9  C   UNL     1     -31.503  64.197 -22.972  0.00  0.00    +0.000 C 
ATOM     10  C   UNL     1     -29.507  61.543 -24.466  0.00  0.00    +0.000 C 
ATOM     11  C   UNL     1     -28.926  60.798 -25.536  0.00  0.00    +0.000 C 
ATOM     12  C   UNL     1     -27.380  62.430 -24.694  0.00  0.00    +0.000 C 
ATOM     13  C   UNL     1     -27.626  60.777 -26.275  0.00  0.00    +0.000 C 
ATOM     14  C   UNL     1     -27.839  61.015 -27.778  0.00  0.00    +0.000 C 
ATOM     15  C   UNL     1     -29.084  61.500 -28.278  0.00  0.00    +0.000 C 
ATOM     16  C   UNL     1     -26.851  60.678 -28.890  0.00  0.00    +0.000 C 
ATOM     17  C   UNL     1     -33.069  63.536 -24.472  0.00  0.00    +0.000 C 
ATOM     18  C   UNL     1     -30.251  61.915 -28.663  0.00  0.00    +0.000 C 
ATOM     19  C   UNL     1     -34.412  62.915 -24.545  0.00  0.00    +0.000 C 
ATOM     20  C   UNL     1     -31.271  60.998 -29.115  0.00  0.00    +0.000 C 
ATOM     21  C   UNL     1     -34.792  62.073 -25.663  0.00  0.00    +0.000 C 
ATOM     22  C   UNL     1     -32.677  61.001 -28.715  0.00  0.00    +0.000 C 
ATOM     23  C   UNL     1     -34.226  62.092 -27.003  0.00  0.00    +0.000 C 
ATOM     24  C   UNL     1     -33.006  61.269 -27.276  0.00  0.00    +0.000 C 
ATOM     25  C   UNL     1     -30.558  63.366 -28.429  0.00  0.00    +0.000 C 
ATOM     26  C   UNL     1     -33.710  60.283 -29.581  0.00  0.00    +0.000 C 
ATOM     27  C   UNL     1     -34.737  63.129 -27.997  0.00  0.00    +0.000 C 
ENDROOT
BRANCH   7  28
ATOM     28  O   UNL     1     -28.240  62.133 -22.509  0.00  0.00    +0.000 OA
ATOM     29  H   UNL     1     -28.171  62.930 -21.952  0.00  0.00    +0.000 HD
ENDBRANCH   7  28
BRANCH  10  30
ATOM     30  O   UNL     1     -30.795  61.331 -24.048  0.00  0.00    +0.000 OA
ATOM     31  H   UNL     1     -30.817  60.843 -23.198  0.00  0.00    +0.000 HD
ENDBRANCH  10  30
BRANCH  13  32
ATOM     32  O   UNL     1     -27.011  59.514 -26.038  0.00  0.00    +0.000 OA
ATOM     33  H   UNL     1     -26.074  59.705 -25.868  0.00  0.00    +0.000 HD
ENDBRANCH  13  32
BRANCH  19  34
ATOM     34  O   UNL     1     -35.310  62.984 -23.497  0.00  0.00    +0.000 OA
ATOM     35  H   UNL     1     -34.909  62.766 -22.630  0.00  0.00    +0.000 HD
ENDBRANCH  19  34
BRANCH  21  36
ATOM     36  O   UNL     1     -36.030  61.464 -25.533  0.00  0.00    +0.000 OA
ATOM     37  C   UNL     1     -36.091  60.284 -26.294  0.00  0.00    +0.000 C 
ENDBRANCH  21  36
BRANCH  20  38
ATOM     38  O   UNL     1     -30.917  60.226 -30.248  0.00  0.00    +0.000 OA
BRANCH  38  40
ATOM     39  O   UNL     1     -31.454  61.818 -31.863  0.00  0.00    +0.000 OA
ATOM     40  C   UNL     1     -30.704  61.023 -31.327  0.00  0.00    +0.000 C 
ATOM     41  C   UNL     1     -29.388  60.848 -31.988  0.00  0.00    +0.000 C 
ENDBRANCH  38  40
ENDBRANCH  20  38
BRANCH   6  42
ATOM     42  C   UNL     1     -29.568  65.197 -21.712  0.00  0.00    +0.000 C 
BRANCH  42  44
ATOM     43  O   UNL     1     -30.622  63.850 -19.850  0.00  0.00    +0.000 OA
ATOM     44  C   UNL     1     -30.119  65.119 -20.334  0.00  0.00    +0.000 C 
ATOM     45  C   UNL     1     -29.362  64.221 -19.468  0.00  0.00    +0.000 C 
ATOM     46  C   UNL     1     -31.065  66.262 -19.836  0.00  0.00    +0.000 C 
BRANCH  45  47
ATOM     47  C   UNL     1     -29.140  64.438 -18.070  0.00  0.00    +0.000 C 
ATOM     48  C   UNL     1     -30.157  63.973 -17.059  0.00  0.00    +0.000 C 
BRANCH  47  49
ATOM     49  C   UNL     1     -27.829  64.661 -17.580  0.00  0.00    +0.000 C 
ATOM     50  C   UNL     1     -26.735  64.809 -17.114  0.00  0.00    +0.000 C 
ATOM     51  C   UNL     1     -25.378  64.940 -16.416  0.00  0.00    +0.000 C 
ENDBRANCH  47  49
ENDBRANCH  45  47
ENDBRANCH  42  44
BRANCH  42  52
ATOM     52  O   UNL     1     -28.485  66.003 -22.040  0.00  0.00    +0.000 OA
ATOM     53  H   UNL     1     -28.437  66.182 -23.001  0.00  0.00    +0.000 HD
ENDBRANCH  42  52
ENDBRANCH   6  42
TORSDOF 12
ENDMDL
MODEL 2
REMARK VINA RESULT:      -6.8      2.062      2.697
REMARK  Name = 101808842_CandidaspongiolideB.pdbqt.pdb
REMARK  12 active torsions:
REMARK  status: ('A' for Active; 'I' for Inactive)
REMARK    1  A    between atoms: C_6  and  C_42
REMARK    2  A    between atoms: C_7  and  O_28
REMARK    3  A    between atoms: C_10  and  O_30
REMARK    4  A    between atoms: C_13  and  O_32
REMARK    5  A    between atoms: C_19  and  O_34
REMARK    6  A    between atoms: C_20  and  O_38
REMARK    7  A    between atoms: C_21  and  O_36
REMARK    8  A    between atoms: O_38  and  C_40
REMARK    9  A    between atoms: C_42  and  C_44
REMARK   10  A    between atoms: C_42  and  O_52
REMARK   11  A    between atoms: C_45  and  C_47
REMARK   12  A    between atoms: C_47  and  C_49
REMARK                            x       y       z     vdW  Elec       q    Type
REMARK                         _______ _______ _______ _____ _____    ______ ____
ROOT
ATOM      1  O   UNL     1     -27.145  61.965 -26.105  0.00  0.00    +0.000 OA
ATOM      2  O   UNL     1     -33.796  62.345 -24.422  0.00  0.00    +0.000 OA
ATOM      3  O   UNL     1     -30.134  64.231 -25.446  0.00  0.00    +0.000 OA
ATOM      4  O   UNL     1     -32.972  62.300 -26.576  0.00  0.00    +0.000 OA
ATOM      5  O   UNL     1     -32.125  59.640 -27.562  0.00  0.00    +0.000 OA
ATOM      6  C   UNL     1     -31.401  63.461 -23.635  0.00  0.00    +0.000 C 
ATOM      7  C   UNL     1     -29.344  62.122 -24.450  0.00  0.00    +0.000 C 
ATOM      8  C   UNL     1     -30.272  63.347 -24.599  0.00  0.00    +0.000 C 
ATOM      9  C   UNL     1     -32.665  62.924 -24.011  0.00  0.00    +0.000 C 
ATOM     10  C   UNL     1     -29.887  60.927 -25.258  0.00  0.00    +0.000 C 
ATOM     11  C   UNL     1     -29.000  60.410 -26.250  0.00  0.00    +0.000 C 
ATOM     12  C   UNL     1     -28.039  62.320 -25.159  0.00  0.00    +0.000 C 
ATOM     13  C   UNL     1     -27.649  60.749 -26.795  0.00  0.00    +0.000 C 
ATOM     14  C   UNL     1     -27.711  61.012 -28.307  0.00  0.00    +0.000 C 
ATOM     15  C   UNL     1     -28.960  61.204 -28.970  0.00  0.00    +0.000 C 
ATOM     16  C   UNL     1     -26.531  60.991 -29.273  0.00  0.00    +0.000 C 
ATOM     17  C   UNL     1     -33.800  61.985 -25.734  0.00  0.00    +0.000 C 
ATOM     18  C   UNL     1     -30.131  61.342 -29.510  0.00  0.00    +0.000 C 
ATOM     19  C   UNL     1     -34.922  61.058 -26.013  0.00  0.00    +0.000 C 
ATOM     20  C   UNL     1     -30.819  60.230 -30.124  0.00  0.00    +0.000 C 
ATOM     21  C   UNL     1     -34.927  60.213 -27.191  0.00  0.00    +0.000 C 
ATOM     22  C   UNL     1     -32.221  59.866 -29.930  0.00  0.00    +0.000 C 
ATOM     23  C   UNL     1     -34.209  60.446 -28.436  0.00  0.00    +0.000 C 
ATOM     24  C   UNL     1     -32.796  59.964 -28.548  0.00  0.00    +0.000 C 
ATOM     25  C   UNL     1     -30.821  62.658 -29.292  0.00  0.00    +0.000 C 
ATOM     26  C   UNL     1     -32.916  58.967 -30.951  0.00  0.00    +0.000 C 
ATOM     27  C   UNL     1     -34.826  61.381 -29.471  0.00  0.00    +0.000 C 
ENDROOT
BRANCH   7  28
ATOM     28  O   UNL     1     -29.082  61.699 -23.127  0.00  0.00    +0.000 OA
ATOM     29  H   UNL     1     -28.112  61.685 -23.030  0.00  0.00    +0.000 HD
ENDBRANCH   7  28
BRANCH  10  30
ATOM     30  O   UNL     1     -31.125  60.383 -25.035  0.00  0.00    +0.000 OA
ATOM     31  H   UNL     1     -31.395  60.487 -24.099  0.00  0.00    +0.000 HD
ENDBRANCH  10  30
BRANCH  13  32
ATOM     32  O   UNL     1     -26.775  59.664 -26.498  0.00  0.00    +0.000 OA
ATOM     33  H   UNL     1     -27.143  58.894 -26.962  0.00  0.00    +0.000 HD
ENDBRANCH  13  32
BRANCH  19  34
ATOM     34  O   UNL     1     -35.942  60.846 -25.104  0.00  0.00    +0.000 OA
ATOM     35  H   UNL     1     -36.742  60.452 -25.508  0.00  0.00    +0.000 HD
ENDBRANCH  19  34
BRANCH  21  36
ATOM     36  O   UNL     1     -35.978  59.313 -27.254  0.00  0.00    +0.000 OA
ATOM     37  C   UNL     1     -35.504  57.994 -27.355  0.00  0.00    +0.000 C 
ENDBRANCH  21  36
BRANCH  20  38
ATOM     38  O   UNL     1     -30.134  59.634 -31.210  0.00  0.00    +0.000 OA
BRANCH  38  40
ATOM     39  O   UNL     1     -30.817  61.149 -32.844  0.00  0.00    +0.000 OA
ATOM     40  C   UNL     1     -29.977  60.521 -32.226  0.00  0.00    +0.000 C 
ATOM     41  C   UNL     1     -28.581  60.697 -32.697  0.00  0.00    +0.000 C 
ENDBRANCH  38  40
ENDBRANCH  20  38
BRANCH   6  42
ATOM     42  C   UNL     1     -31.229  64.294 -22.465  0.00  0.00    +0.000 C 
BRANCH  42  44
ATOM     43  O   UNL     1     -33.068  65.986 -22.851  0.00  0.00    +0.000 OA
ATOM     44  C   UNL     1     -31.716  65.698 -22.418  0.00  0.00    +0.000 C 
ATOM     45  C   UNL     1     -32.841  65.879 -21.507  0.00  0.00    +0.000 C 
ATOM     46  C   UNL     1     -30.769  66.840 -22.916  0.00  0.00    +0.000 C 
BRANCH  45  47
ATOM     47  C   UNL     1     -33.059  67.050 -20.712  0.00  0.00    +0.000 C 
ATOM     48  C   UNL     1     -34.357  67.810 -20.820  0.00  0.00    +0.000 C 
BRANCH  47  49
ATOM     49  C   UNL     1     -32.309  67.261 -19.527  0.00  0.00    +0.000 C 
ATOM     50  C   UNL     1     -31.702  67.382 -18.501  0.00  0.00    +0.000 C 
ATOM     51  C   UNL     1     -30.994  67.443 -17.144  0.00  0.00    +0.000 C 
ENDBRANCH  47  49
ENDBRANCH  45  47
ENDBRANCH  42  44
BRANCH  42  52
ATOM     52  O   UNL     1     -30.609  63.681 -21.385  0.00  0.00    +0.000 OA
ATOM     53  H   UNL     1     -29.634  63.683 -21.470  0.00  0.00    +0.000 HD
ENDBRANCH  42  52
ENDBRANCH   6  42
TORSDOF 12
ENDMDL
MODEL 3
REMARK VINA RESULT:      -6.7      2.604      4.124
REMARK  Name = 101808842_CandidaspongiolideB.pdbqt.pdb
REMARK  12 active torsions:
REMARK  status: ('A' for Active; 'I' for Inactive)
REMARK    1  A    between atoms: C_6  and  C_42
REMARK    2  A    between atoms: C_7  and  O_28
REMARK    3  A    between atoms: C_10  and  O_30
REMARK    4  A    between atoms: C_13  and  O_32
REMARK    5  A    between atoms: C_19  and  O_34
REMARK    6  A    between atoms: C_20  and  O_38
REMARK    7  A    between atoms: C_21  and  O_36
REMARK    8  A    between atoms: O_38  and  C_40
REMARK    9  A    between atoms: C_42  and  C_44
REMARK   10  A    between atoms: C_42  and  O_52
REMARK   11  A    between atoms: C_45  and  C_47
REMARK   12  A    between atoms: C_47  and  C_49
REMARK                            x       y       z     vdW  Elec       q    Type
REMARK                         _______ _______ _______ _____ _____    ______ ____
ROOT
ATOM      1  O   UNL     1     -25.261  65.020 -22.265  0.00  0.00    +0.000 OA
ATOM      2  O   UNL     1     -31.981  63.583 -22.252  0.00  0.00    +0.000 OA
ATOM      3  O   UNL     1     -28.809  66.402 -22.154  0.00  0.00    +0.000 OA
ATOM      4  O   UNL     1     -30.728  64.063 -24.129  0.00  0.00    +0.000 OA
ATOM      5  O   UNL     1     -29.022  61.857 -25.124  0.00  0.00    +0.000 OA
ATOM      6  C   UNL     1     -30.189  65.088 -20.794  0.00  0.00    +0.000 C 
ATOM      7  C   UNL     1     -27.728  64.406 -21.198  0.00  0.00    +0.000 C 
ATOM      8  C   UNL     1     -28.889  65.390 -21.456  0.00  0.00    +0.000 C 
ATOM      9  C   UNL     1     -31.157  64.337 -21.521  0.00  0.00    +0.000 C 
ATOM     10  C   UNL     1     -27.751  63.257 -22.226  0.00  0.00    +0.000 C 
ATOM     11  C   UNL     1     -26.568  63.118 -23.012  0.00  0.00    +0.000 C 
ATOM     12  C   UNL     1     -26.400  65.008 -21.541  0.00  0.00    +0.000 C 
ATOM     13  C   UNL     1     -25.268  63.842 -23.171  0.00  0.00    +0.000 C 
ATOM     14  C   UNL     1     -25.070  64.314 -24.618  0.00  0.00    +0.000 C 
ATOM     15  C   UNL     1     -26.151  64.311 -25.549  0.00  0.00    +0.000 C 
ATOM     16  C   UNL     1     -23.745  64.716 -25.260  0.00  0.00    +0.000 C 
ATOM     17  C   UNL     1     -31.607  63.438 -23.553  0.00  0.00    +0.000 C 
ATOM     18  C   UNL     1     -27.172  64.255 -26.347  0.00  0.00    +0.000 C 
ATOM     19  C   UNL     1     -32.360  62.331 -24.188  0.00  0.00    +0.000 C 
ATOM     20  C   UNL     1     -27.396  63.122 -27.215  0.00  0.00    +0.000 C 
ATOM     21  C   UNL     1     -31.888  61.700 -25.406  0.00  0.00    +0.000 C 
ATOM     22  C   UNL     1     -28.662  62.418 -27.410  0.00  0.00    +0.000 C 
ATOM     23  C   UNL     1     -31.006  62.283 -26.406  0.00  0.00    +0.000 C 
ATOM     24  C   UNL     1     -29.526  62.165 -26.210  0.00  0.00    +0.000 C 
ATOM     25  C   UNL     1     -28.213  65.326 -26.181  0.00  0.00    +0.000 C 
ATOM     26  C   UNL     1     -28.859  61.551 -28.652  0.00  0.00    +0.000 C 
ATOM     27  C   UNL     1     -31.608  63.198 -27.467  0.00  0.00    +0.000 C 
ENDROOT
BRANCH   7  28
ATOM     28  O   UNL     1     -27.656  63.855 -19.899  0.00  0.00    +0.000 OA
ATOM     29  H   UNL     1     -28.563  63.869 -19.543  0.00  0.00    +0.000 HD
ENDBRANCH   7  28
BRANCH  10  30
ATOM     30  O   UNL     1     -28.821  62.413 -22.370  0.00  0.00    +0.000 OA
ATOM     31  H   UNL     1     -29.595  62.881 -22.747  0.00  0.00    +0.000 HD
ENDBRANCH  10  30
BRANCH  13  32
ATOM     32  O   UNL     1     -24.225  62.957 -22.772  0.00  0.00    +0.000 OA
ATOM     33  H   UNL     1     -24.411  62.731 -21.846  0.00  0.00    +0.000 HD
ENDBRANCH  13  32
BRANCH  19  34
ATOM     34  O   UNL     1     -33.459  61.751 -23.584  0.00  0.00    +0.000 OA
ATOM     35  H   UNL     1     -33.234  60.961 -23.051  0.00  0.00    +0.000 HD
ENDBRANCH  19  34
BRANCH  21  36
ATOM     36  O   UNL     1     -32.628  60.602 -25.812  0.00  0.00    +0.000 OA
ATOM     37  C   UNL     1     -31.821  59.681 -26.503  0.00  0.00    +0.000 C 
ENDBRANCH  21  36
BRANCH  20  38
ATOM     38  O   UNL     1     -26.362  62.877 -28.149  0.00  0.00    +0.000 OA
BRANCH  38  40
ATOM     39  O   UNL     1     -27.061  64.394 -29.774  0.00  0.00    +0.000 OA
ATOM     40  C   UNL     1     -26.238  63.915 -29.016  0.00  0.00    +0.000 C 
ATOM     41  C   UNL     1     -24.880  64.506 -29.099  0.00  0.00    +0.000 C 
ENDBRANCH  38  40
ENDBRANCH  20  38
BRANCH   6  42
ATOM     42  C   UNL     1     -30.498  65.747 -19.545  0.00  0.00    +0.000 C 
BRANCH  42  44
ATOM     43  O   UNL     1     -28.378  65.796 -18.169  0.00  0.00    +0.000 OA
ATOM     44  C   UNL     1     -29.774  65.431 -18.286  0.00  0.00    +0.000 C 
ATOM     45  C   UNL     1     -29.300  66.621 -17.588  0.00  0.00    +0.000 C 
ATOM     46  C   UNL     1     -29.988  64.028 -17.626  0.00  0.00    +0.000 C 
BRANCH  45  47
ATOM     47  C   UNL     1     -29.249  66.759 -16.163  0.00  0.00    +0.000 C 
ATOM     48  C   UNL     1     -27.985  67.234 -15.492  0.00  0.00    +0.000 C 
BRANCH  47  49
ATOM     49  C   UNL     1     -30.444  66.899 -15.414  0.00  0.00    +0.000 C 
ATOM     50  C   UNL     1     -31.418  67.047 -14.732  0.00  0.00    +0.000 C 
ATOM     51  C   UNL     1     -32.588  67.273 -13.769  0.00  0.00    +0.000 C 
ENDBRANCH  47  49
ENDBRANCH  45  47
ENDBRANCH  42  44
BRANCH  42  52
ATOM     52  O   UNL     1     -31.493  66.714 -19.613  0.00  0.00    +0.000 OA
ATOM     53  H   UNL     1     -31.154  67.568 -19.951  0.00  0.00    +0.000 HD
ENDBRANCH  42  52
ENDBRANCH   6  42
TORSDOF 12
ENDMDL
MODEL 4
REMARK VINA RESULT:      -6.5      2.630      3.896
REMARK  Name = 101808842_CandidaspongiolideB.pdbqt.pdb
REMARK  12 active torsions:
REMARK  status: ('A' for Active; 'I' for Inactive)
REMARK    1  A    between atoms: C_6  and  C_42
REMARK    2  A    between atoms: C_7  and  O_28
REMARK    3  A    between atoms: C_10  and  O_30
REMARK    4  A    between atoms: C_13  and  O_32
REMARK    5  A    between atoms: C_19  and  O_34
REMARK    6  A    between atoms: C_20  and  O_38
REMARK    7  A    between atoms: C_21  and  O_36
REMARK    8  A    between atoms: O_38  and  C_40
REMARK    9  A    between atoms: C_42  and  C_44
REMARK   10  A    between atoms: C_42  and  O_52
REMARK   11  A    between atoms: C_45  and  C_47
REMARK   12  A    between atoms: C_47  and  C_49
REMARK                            x       y       z     vdW  Elec       q    Type
REMARK                         _______ _______ _______ _____ _____    ______ ____
ROOT
ATOM      1  O   UNL     1     -27.247  61.937 -26.130  0.00  0.00    +0.000 OA
ATOM      2  O   UNL     1     -33.922  62.222 -24.524  0.00  0.00    +0.000 OA
ATOM      3  O   UNL     1     -30.279  64.160 -25.521  0.00  0.00    +0.000 OA
ATOM      4  O   UNL     1     -33.072  62.175 -26.669  0.00  0.00    +0.000 OA
ATOM      5  O   UNL     1     -32.171  59.522 -27.626  0.00  0.00    +0.000 OA
ATOM      6  C   UNL     1     -31.554  63.382 -23.719  0.00  0.00    +0.000 C 
ATOM      7  C   UNL     1     -29.466  62.071 -24.501  0.00  0.00    +0.000 C 
ATOM      8  C   UNL     1     -30.412  63.280 -24.670  0.00  0.00    +0.000 C 
ATOM      9  C   UNL     1     -32.805  62.822 -24.105  0.00  0.00    +0.000 C 
ATOM     10  C   UNL     1     -29.981  60.862 -25.307  0.00  0.00    +0.000 C 
ATOM     11  C   UNL     1     -29.075  60.351 -26.284  0.00  0.00    +0.000 C 
ATOM     12  C   UNL     1     -28.157  62.285 -25.197  0.00  0.00    +0.000 C 
ATOM     13  C   UNL     1     -27.723  60.708 -26.817  0.00  0.00    +0.000 C 
ATOM     14  C   UNL     1     -27.773  60.960 -28.331  0.00  0.00    +0.000 C 
ATOM     15  C   UNL     1     -29.016  61.127 -29.010  0.00  0.00    +0.000 C 
ATOM     16  C   UNL     1     -26.581  60.951 -29.283  0.00  0.00    +0.000 C 
ATOM     17  C   UNL     1     -33.905  61.852 -25.834  0.00  0.00    +0.000 C 
ATOM     18  C   UNL     1     -30.183  61.242 -29.564  0.00  0.00    +0.000 C 
ATOM     19  C   UNL     1     -35.009  60.906 -26.119  0.00  0.00    +0.000 C 
ATOM     20  C   UNL     1     -30.846  60.114 -30.177  0.00  0.00    +0.000 C 
ATOM     21  C   UNL     1     -34.986  60.052 -27.291  0.00  0.00    +0.000 C 
ATOM     22  C   UNL     1     -32.245  59.730 -29.996  0.00  0.00    +0.000 C 
ATOM     23  C   UNL     1     -34.258  60.288 -28.529  0.00  0.00    +0.000 C 
ATOM     24  C   UNL     1     -32.837  59.827 -28.621  0.00  0.00    +0.000 C 
ATOM     25  C   UNL     1     -30.897  62.548 -29.363  0.00  0.00    +0.000 C 
ATOM     26  C   UNL     1     -32.913  58.812 -31.018  0.00  0.00    +0.000 C 
ATOM     27  C   UNL     1     -34.878  61.205 -29.577  0.00  0.00    +0.000 C 
ENDROOT
BRANCH   7  28
ATOM     28  O   UNL     1     -29.213  61.661 -23.173  0.00  0.00    +0.000 OA
ATOM     29  H   UNL     1     -28.246  61.698 -23.053  0.00  0.00    +0.000 HD
ENDBRANCH   7  28
BRANCH  10  30
ATOM     30  O   UNL     1     -31.212  60.299 -25.094  0.00  0.00    +0.000 OA
ATOM     31  H   UNL     1     -31.725  60.807 -24.430  0.00  0.00    +0.000 HD
ENDBRANCH  10  30
BRANCH  13  32
ATOM     32  O   UNL     1     -26.835  59.640 -26.502  0.00  0.00    +0.000 OA
ATOM     33  H   UNL     1     -27.093  58.904 -27.081  0.00  0.00    +0.000 HD
ENDBRANCH  13  32
BRANCH  19  34
ATOM     34  O   UNL     1     -36.035  60.684 -25.220  0.00  0.00    +0.000 OA
ATOM     35  H   UNL     1     -36.015  61.294 -24.453  0.00  0.00    +0.000 HD
ENDBRANCH  19  34
BRANCH  21  36
ATOM     36  O   UNL     1     -36.022  59.135 -27.359  0.00  0.00    +0.000 OA
ATOM     37  C   UNL     1     -35.529  57.819 -27.344  0.00  0.00    +0.000 C 
ENDBRANCH  21  36
BRANCH  20  38
ATOM     38  O   UNL     1     -30.140  59.522 -31.251  0.00  0.00    +0.000 OA
BRANCH  38  40
ATOM     39  O   UNL     1     -30.816  61.024 -32.899  0.00  0.00    +0.000 OA
ATOM     40  C   UNL     1     -29.978  60.407 -32.268  0.00  0.00    +0.000 C 
ATOM     41  C   UNL     1     -28.578  60.595 -32.722  0.00  0.00    +0.000 C 
ENDBRANCH  38  40
ENDBRANCH  20  38
BRANCH   6  42
ATOM     42  C   UNL     1     -31.409  64.226 -22.554  0.00  0.00    +0.000 C 
BRANCH  42  44
ATOM     43  O   UNL     1     -31.364  66.651 -21.841  0.00  0.00    +0.000 OA
ATOM     44  C   UNL     1     -32.079  65.548 -22.449  0.00  0.00    +0.000 C 
ATOM     45  C   UNL     1     -31.398  66.593 -23.207  0.00  0.00    +0.000 C 
ATOM     46  C   UNL     1     -33.575  65.600 -21.991  0.00  0.00    +0.000 C 
BRANCH  45  47
ATOM     47  C   UNL     1     -32.062  67.662 -23.891  0.00  0.00    +0.000 C 
ATOM     48  C   UNL     1     -31.873  69.087 -23.435  0.00  0.00    +0.000 C 
BRANCH  47  49
ATOM     49  C   UNL     1     -32.516  67.487 -25.222  0.00  0.00    +0.000 C 
ATOM     50  C   UNL     1     -32.951  67.300 -26.323  0.00  0.00    +0.000 C 
ATOM     51  C   UNL     1     -33.583  66.978 -27.680  0.00  0.00    +0.000 C 
ENDBRANCH  47  49
ENDBRANCH  45  47
ENDBRANCH  42  44
BRANCH  42  52
ATOM     52  O   UNL     1     -30.628  63.700 -21.532  0.00  0.00    +0.000 OA
ATOM     53  H   UNL     1     -30.445  64.359 -20.832  0.00  0.00    +0.000 HD
ENDBRANCH  42  52
ENDBRANCH   6  42
TORSDOF 12
ENDMDL
MODEL 5
REMARK VINA RESULT:      -6.5     12.253     15.880
REMARK  Name = 101808842_CandidaspongiolideB.pdbqt.pdb
REMARK  12 active torsions:
REMARK  status: ('A' for Active; 'I' for Inactive)
REMARK    1  A    between atoms: C_6  and  C_42
REMARK    2  A    between atoms: C_7  and  O_28
REMARK    3  A    between atoms: C_10  and  O_30
REMARK    4  A    between atoms: C_13  and  O_32
REMARK    5  A    between atoms: C_19  and  O_34
REMARK    6  A    between atoms: C_20  and  O_38
REMARK    7  A    between atoms: C_21  and  O_36
REMARK    8  A    between atoms: O_38  and  C_40
REMARK    9  A    between atoms: C_42  and  C_44
REMARK   10  A    between atoms: C_42  and  O_52
REMARK   11  A    between atoms: C_45  and  C_47
REMARK   12  A    between atoms: C_47  and  C_49
REMARK                            x       y       z     vdW  Elec       q    Type
REMARK                         _______ _______ _______ _____ _____    ______ ____
ROOT
ATOM      1  O   UNL     1     -38.823  51.003 -15.117  0.00  0.00    +0.000 OA
ATOM      2  O   UNL     1     -38.438  52.975 -21.688  0.00  0.00    +0.000 OA
ATOM      3  O   UNL     1     -37.507  53.582 -17.592  0.00  0.00    +0.000 OA
ATOM      4  O   UNL     1     -36.873  51.677 -20.597  0.00  0.00    +0.000 OA
ATOM      5  O   UNL     1     -37.607  48.832 -20.229  0.00  0.00    +0.000 OA
ATOM      6  C   UNL     1     -39.095  54.063 -19.242  0.00  0.00    +0.000 C 
ATOM      7  C   UNL     1     -39.589  52.277 -17.439  0.00  0.00    +0.000 C 
ATOM      8  C   UNL     1     -38.623  53.320 -18.041  0.00  0.00    +0.000 C 
ATOM      9  C   UNL     1     -38.754  53.553 -20.527  0.00  0.00    +0.000 C 
ATOM     10  C   UNL     1     -39.396  50.904 -18.112  0.00  0.00    +0.000 C 
ATOM     11  C   UNL     1     -39.049  49.836 -17.231  0.00  0.00    +0.000 C 
ATOM     12  C   UNL     1     -39.213  51.911 -16.035  0.00  0.00    +0.000 C 
ATOM     13  C   UNL     1     -38.748  49.672 -15.775  0.00  0.00    +0.000 C 
ATOM     14  C   UNL     1     -37.347  49.079 -15.562  0.00  0.00    +0.000 C 
ATOM     15  C   UNL     1     -36.402  49.019 -16.629  0.00  0.00    +0.000 C 
ATOM     16  C   UNL     1     -36.839  48.406 -14.291  0.00  0.00    +0.000 C 
ATOM     17  C   UNL     1     -37.533  51.963 -21.586  0.00  0.00    +0.000 C 
ATOM     18  C   UNL     1     -35.606  48.972 -17.652  0.00  0.00    +0.000 C 
ATOM     19  C   UNL     1     -37.504  51.166 -22.834  0.00  0.00    +0.000 C 
ATOM     20  C   UNL     1     -35.497  47.790 -18.475  0.00  0.00    +0.000 C 
ATOM     21  C   UNL     1     -36.955  49.824 -22.858  0.00  0.00    +0.000 C 
ATOM     22  C   UNL     1     -35.508  47.749 -19.936  0.00  0.00    +0.000 C 
ATOM     23  C   UNL     1     -35.977  49.263 -21.937  0.00  0.00    +0.000 C 
ATOM     24  C   UNL     1     -36.466  48.643 -20.665  0.00  0.00    +0.000 C 
ATOM     25  C   UNL     1     -34.955  50.264 -18.056  0.00  0.00    +0.000 C 
ATOM     26  C   UNL     1     -34.952  46.524 -20.660  0.00  0.00    +0.000 C 
ATOM     27  C   UNL     1     -34.499  49.550 -22.178  0.00  0.00    +0.000 C 
ENDROOT
BRANCH   7  28
ATOM     28  O   UNL     1     -40.962  52.611 -17.468  0.00  0.00    +0.000 OA
ATOM     29  H   UNL     1     -41.123  53.040 -18.328  0.00  0.00    +0.000 HD
ENDBRANCH   7  28
BRANCH  10  30
ATOM     30  O   UNL     1     -39.562  50.709 -19.459  0.00  0.00    +0.000 OA
ATOM     31  H   UNL     1     -39.005  51.328 -19.978  0.00  0.00    +0.000 HD
ENDBRANCH  10  30
BRANCH  13  32
ATOM     32  O   UNL     1     -39.752  48.832 -15.214  0.00  0.00    +0.000 OA
ATOM     33  H   UNL     1     -40.342  49.421 -14.718  0.00  0.00    +0.000 HD
ENDBRANCH  13  32
BRANCH  19  34
ATOM     34  O   UNL     1     -38.121  51.596 -23.994  0.00  0.00    +0.000 OA
ATOM     35  H   UNL     1     -37.519  52.084 -24.593  0.00  0.00    +0.000 HD
ENDBRANCH  19  34
BRANCH  21  36
ATOM     36  O   UNL     1     -37.109  49.158 -24.063  0.00  0.00    +0.000 OA
ATOM     37  C   UNL     1     -38.007  48.084 -23.932  0.00  0.00    +0.000 C 
ENDBRANCH  21  36
BRANCH  20  38
ATOM     38  O   UNL     1     -35.063  46.628 -17.793  0.00  0.00    +0.000 OA
BRANCH  38  40
ATOM     39  O   UNL     1     -32.775  47.043 -17.942  0.00  0.00    +0.000 OA
ATOM     40  C   UNL     1     -33.796  46.785 -17.331  0.00  0.00    +0.000 C 
ATOM     41  C   UNL     1     -33.620  46.539 -15.879  0.00  0.00    +0.000 C 
ENDBRANCH  38  40
ENDBRANCH  20  38
BRANCH   6  42
ATOM     42  C   UNL     1     -39.683  55.371 -19.058  0.00  0.00    +0.000 C 
BRANCH  42  44
ATOM     43  O   UNL     1     -39.745  57.710 -20.017  0.00  0.00    +0.000 OA
ATOM     44  C   UNL     1     -39.943  56.287 -20.199  0.00  0.00    +0.000 C 
ATOM     45  C   UNL     1     -38.750  57.005 -20.637  0.00  0.00    +0.000 C 
ATOM     46  C   UNL     1     -41.225  56.061 -21.068  0.00  0.00    +0.000 C 
BRANCH  45  47
ATOM     47  C   UNL     1     -38.461  57.343 -21.997  0.00  0.00    +0.000 C 
ATOM     48  C   UNL     1     -38.160  56.258 -23.001  0.00  0.00    +0.000 C 
BRANCH  47  49
ATOM     49  C   UNL     1     -38.878  58.589 -22.530  0.00  0.00    +0.000 C 
ATOM     50  C   UNL     1     -39.168  59.649 -23.007  0.00  0.00    +0.000 C 
ATOM     51  C   UNL     1     -39.419  61.019 -23.643  0.00  0.00    +0.000 C 
ENDBRANCH  47  49
ENDBRANCH  45  47
ENDBRANCH  42  44
BRANCH  42  52
ATOM     52  O   UNL     1     -40.013  55.696 -17.748  0.00  0.00    +0.000 OA
ATOM     53  H   UNL     1     -39.699  55.022 -17.112  0.00  0.00    +0.000 HD
ENDBRANCH  42  52
ENDBRANCH   6  42
TORSDOF 12
ENDMDL
MODEL 6
REMARK VINA RESULT:      -6.5     17.550     19.598
REMARK  Name = 101808842_CandidaspongiolideB.pdbqt.pdb
REMARK  12 active torsions:
REMARK  status: ('A' for Active; 'I' for Inactive)
REMARK    1  A    between atoms: C_6  and  C_42
REMARK    2  A    between atoms: C_7  and  O_28
REMARK    3  A    between atoms: C_10  and  O_30
REMARK    4  A    between atoms: C_13  and  O_32
REMARK    5  A    between atoms: C_19  and  O_34
REMARK    6  A    between atoms: C_20  and  O_38
REMARK    7  A    between atoms: C_21  and  O_36
REMARK    8  A    between atoms: O_38  and  C_40
REMARK    9  A    between atoms: C_42  and  C_44
REMARK   10  A    between atoms: C_42  and  O_52
REMARK   11  A    between atoms: C_45  and  C_47
REMARK   12  A    between atoms: C_47  and  C_49
REMARK                            x       y       z     vdW  Elec       q    Type
REMARK                         _______ _______ _______ _____ _____    ______ ____
ROOT
ATOM      1  O   UNL     1     -33.713  45.106 -17.886  0.00  0.00    +0.000 OA
ATOM      2  O   UNL     1     -37.150  47.130 -12.292  0.00  0.00    +0.000 OA
ATOM      3  O   UNL     1     -33.576  46.985 -14.577  0.00  0.00    +0.000 OA
ATOM      4  O   UNL     1     -36.891  48.377 -14.215  0.00  0.00    +0.000 OA
ATOM      5  O   UNL     1     -38.626  47.599 -16.484  0.00  0.00    +0.000 OA
ATOM      6  C   UNL     1     -34.781  45.864 -12.913  0.00  0.00    +0.000 C 
ATOM      7  C   UNL     1     -34.728  44.943 -15.329  0.00  0.00    +0.000 C 
ATOM      8  C   UNL     1     -34.296  46.022 -14.312  0.00  0.00    +0.000 C 
ATOM      9  C   UNL     1     -35.987  46.524 -12.539  0.00  0.00    +0.000 C 
ATOM     10  C   UNL     1     -36.079  45.313 -15.972  0.00  0.00    +0.000 C 
ATOM     11  C   UNL     1     -36.064  45.434 -17.394  0.00  0.00    +0.000 C 
ATOM     12  C   UNL     1     -33.867  44.954 -16.555  0.00  0.00    +0.000 C 
ATOM     13  C   UNL     1     -35.048  45.357 -18.489  0.00  0.00    +0.000 C 
ATOM     14  C   UNL     1     -35.003  46.662 -19.296  0.00  0.00    +0.000 C 
ATOM     15  C   UNL     1     -35.635  47.848 -18.817  0.00  0.00    +0.000 C 
ATOM     16  C   UNL     1     -34.413  46.836 -20.692  0.00  0.00    +0.000 C 
ATOM     17  C   UNL     1     -37.557  47.988 -13.267  0.00  0.00    +0.000 C 
ATOM     18  C   UNL     1     -36.256  48.878 -18.332  0.00  0.00    +0.000 C 
ATOM     19  C   UNL     1     -38.985  48.340 -13.084  0.00  0.00    +0.000 C 
ATOM     20  C   UNL     1     -37.609  49.202 -18.722  0.00  0.00    +0.000 C 
ATOM     21  C   UNL     1     -39.771  48.888 -14.173  0.00  0.00    +0.000 C 
ATOM     22  C   UNL     1     -38.705  49.564 -17.826  0.00  0.00    +0.000 C 
ATOM     23  C   UNL     1     -39.271  49.605 -15.337  0.00  0.00    +0.000 C 
ATOM     24  C   UNL     1     -38.843  48.814 -16.534  0.00  0.00    +0.000 C 
ATOM     25  C   UNL     1     -35.579  49.599 -17.201  0.00  0.00    +0.000 C 
ATOM     26  C   UNL     1     -39.925  50.295 -18.383  0.00  0.00    +0.000 C 
ATOM     27  C   UNL     1     -38.967  51.093 -15.203  0.00  0.00    +0.000 C 
ENDROOT
BRANCH   7  28
ATOM     28  O   UNL     1     -34.802  43.620 -14.838  0.00  0.00    +0.000 OA
ATOM     29  H   UNL     1     -33.895  43.263 -14.870  0.00  0.00    +0.000 HD
ENDBRANCH   7  28
BRANCH  10  30
ATOM     30  O   UNL     1     -37.223  45.497 -15.240  0.00  0.00    +0.000 OA
ATOM     31  H   UNL     1     -37.333  44.790 -14.569  0.00  0.00    +0.000 HD
ENDBRANCH  10  30
BRANCH  13  32
ATOM     32  O   UNL     1     -35.386  44.250 -19.320  0.00  0.00    +0.000 OA
ATOM     33  H   UNL     1     -36.252  44.464 -19.704  0.00  0.00    +0.000 HD
ENDBRANCH  13  32
BRANCH  19  34
ATOM     34  O   UNL     1     -39.673  48.034 -11.925  0.00  0.00    +0.000 OA
ATOM     35  H   UNL     1     -40.500  48.548 -11.821  0.00  0.00    +0.000 HD
ENDBRANCH  19  34
BRANCH  21  36
ATOM     36  O   UNL     1     -41.117  49.052 -13.889  0.00  0.00    +0.000 OA
ATOM     37  C   UNL     1     -41.902  48.178 -14.661  0.00  0.00    +0.000 C 
ENDBRANCH  21  36
BRANCH  20  38
ATOM     38  O   UNL     1     -37.783  49.459 -20.103  0.00  0.00    +0.000 OA
BRANCH  38  40
ATOM     39  O   UNL     1     -37.109  51.689 -20.058  0.00  0.00    +0.000 OA
ATOM     40  C   UNL     1     -37.070  50.550 -20.485  0.00  0.00    +0.000 C 
ATOM     41  C   UNL     1     -36.160  50.335 -21.637  0.00  0.00    +0.000 C 
ENDBRANCH  38  40
ENDBRANCH  20  38
BRANCH   6  42
ATOM     42  C   UNL     1     -33.908  45.238 -11.945  0.00  0.00    +0.000 C 
BRANCH  42  44
ATOM     43  O   UNL     1     -33.441  44.614  -9.540  0.00  0.00    +0.000 OA
ATOM     44  C   UNL     1     -34.396  44.790 -10.615  0.00  0.00    +0.000 C 
ATOM     45  C   UNL     1     -34.165  45.775  -9.563  0.00  0.00    +0.000 C 
ATOM     46  C   UNL     1     -35.452  43.637 -10.549  0.00  0.00    +0.000 C 
BRANCH  45  47
ATOM     47  C   UNL     1     -35.053  46.014  -8.466  0.00  0.00    +0.000 C 
ATOM     48  C   UNL     1     -34.597  45.762  -7.051  0.00  0.00    +0.000 C 
BRANCH  47  49
ATOM     49  C   UNL     1     -36.161  46.885  -8.619  0.00  0.00    +0.000 C 
ATOM     50  C   UNL     1     -37.084  47.646  -8.686  0.00  0.00    +0.000 C 
ATOM     51  C   UNL     1     -38.247  48.643  -8.652  0.00  0.00    +0.000 C 
ENDBRANCH  47  49
ENDBRANCH  45  47
ENDBRANCH  42  44
BRANCH  42  52
ATOM     52  O   UNL     1     -32.594  45.058 -12.359  0.00  0.00    +0.000 OA
ATOM     53  H   UNL     1     -32.540  44.709 -13.272  0.00  0.00    +0.000 HD
ENDBRANCH  42  52
ENDBRANCH   6  42
TORSDOF 12
ENDMDL
MODEL 7
REMARK VINA RESULT:      -6.4      2.469      3.818
REMARK  Name = 101808842_CandidaspongiolideB.pdbqt.pdb
REMARK  12 active torsions:
REMARK  status: ('A' for Active; 'I' for Inactive)
REMARK    1  A    between atoms: C_6  and  C_42
REMARK    2  A    between atoms: C_7  and  O_28
REMARK    3  A    between atoms: C_10  and  O_30
REMARK    4  A    between atoms: C_13  and  O_32
REMARK    5  A    between atoms: C_19  and  O_34
REMARK    6  A    between atoms: C_20  and  O_38
REMARK    7  A    between atoms: C_21  and  O_36
REMARK    8  A    between atoms: O_38  and  C_40
REMARK    9  A    between atoms: C_42  and  C_44
REMARK   10  A    between atoms: C_42  and  O_52
REMARK   11  A    between atoms: C_45  and  C_47
REMARK   12  A    between atoms: C_47  and  C_49
REMARK                            x       y       z     vdW  Elec       q    Type
REMARK                         _______ _______ _______ _____ _____    ______ ____
ROOT
ATOM      1  O   UNL     1     -25.223  65.129 -24.346  0.00  0.00    +0.000 OA
ATOM      2  O   UNL     1     -31.256  63.418 -21.536  0.00  0.00    +0.000 OA
ATOM      3  O   UNL     1     -28.150  66.240 -22.177  0.00  0.00    +0.000 OA
ATOM      4  O   UNL     1     -30.990  64.487 -23.563  0.00  0.00    +0.000 OA
ATOM      5  O   UNL     1     -30.174  62.756 -25.822  0.00  0.00    +0.000 OA
ATOM      6  C   UNL     1     -28.853  64.519 -20.753  0.00  0.00    +0.000 C 
ATOM      7  C   UNL     1     -26.948  64.108 -22.454  0.00  0.00    +0.000 C 
ATOM      8  C   UNL     1     -27.992  65.066 -21.839  0.00  0.00    +0.000 C 
ATOM      9  C   UNL     1     -30.116  63.966 -21.108  0.00  0.00    +0.000 C 
ATOM     10  C   UNL     1     -27.563  63.310 -23.620  0.00  0.00    +0.000 C 
ATOM     11  C   UNL     1     -26.906  63.466 -24.878  0.00  0.00    +0.000 C 
ATOM     12  C   UNL     1     -25.884  64.849 -23.204  0.00  0.00    +0.000 C 
ATOM     13  C   UNL     1     -25.769  64.267 -25.427  0.00  0.00    +0.000 C 
ATOM     14  C   UNL     1     -26.228  65.151 -26.597  0.00  0.00    +0.000 C 
ATOM     15  C   UNL     1     -27.614  65.366 -26.858  0.00  0.00    +0.000 C 
ATOM     16  C   UNL     1     -25.327  65.788 -27.650  0.00  0.00    +0.000 C 
ATOM     17  C   UNL     1     -31.552  63.679 -22.839  0.00  0.00    +0.000 C 
ATOM     18  C   UNL     1     -28.890  65.495 -27.052  0.00  0.00    +0.000 C 
ATOM     19  C   UNL     1     -32.619  62.769 -23.319  0.00  0.00    +0.000 C 
ATOM     20  C   UNL     1     -29.604  64.655 -27.986  0.00  0.00    +0.000 C 
ATOM     21  C   UNL     1     -32.838  62.546 -24.735  0.00  0.00    +0.000 C 
ATOM     22  C   UNL     1     -30.875  63.977 -27.742  0.00  0.00    +0.000 C 
ATOM     23  C   UNL     1     -32.475  63.438 -25.826  0.00  0.00    +0.000 C 
ATOM     24  C   UNL     1     -31.096  63.341 -26.401  0.00  0.00    +0.000 C 
ATOM     25  C   UNL     1     -29.621  66.417 -26.119  0.00  0.00    +0.000 C 
ATOM     26  C   UNL     1     -31.716  63.501 -28.925  0.00  0.00    +0.000 C 
ATOM     27  C   UNL     1     -33.412  64.592 -26.168  0.00  0.00    +0.000 C 
ENDROOT
BRANCH   7  28
ATOM     28  O   UNL     1     -26.329  63.206 -21.559  0.00  0.00    +0.000 OA
ATOM     29  H   UNL     1     -26.288  63.659 -20.697  0.00  0.00    +0.000 HD
ENDBRANCH   7  28
BRANCH  10  30
ATOM     30  O   UNL     1     -28.652  62.492 -23.466  0.00  0.00    +0.000 OA
ATOM     31  H   UNL     1     -28.379  61.563 -23.310  0.00  0.00    +0.000 HD
ENDBRANCH  10  30
BRANCH  13  32
ATOM     32  O   UNL     1     -24.753  63.357 -25.839  0.00  0.00    +0.000 OA
ATOM     33  H   UNL     1     -24.959  62.516 -25.400  0.00  0.00    +0.000 HD
ENDBRANCH  13  32
BRANCH  19  34
ATOM     34  O   UNL     1     -33.357  61.984 -22.454  0.00  0.00    +0.000 OA
ATOM     35  H   UNL     1     -33.087  61.042 -22.462  0.00  0.00    +0.000 HD
ENDBRANCH  19  34
BRANCH  21  36
ATOM     36  O   UNL     1     -33.785  61.579 -25.028  0.00  0.00    +0.000 OA
ATOM     37  C   UNL     1     -33.531  60.991 -26.279  0.00  0.00    +0.000 C 
ENDBRANCH  21  36
BRANCH  20  38
ATOM     38  O   UNL     1     -29.158  64.744 -29.326  0.00  0.00    +0.000 OA
BRANCH  38  40
ATOM     39  O   UNL     1     -28.146  62.654 -29.141  0.00  0.00    +0.000 OA
ATOM     40  C   UNL     1     -28.241  63.780 -29.595  0.00  0.00    +0.000 C 
ATOM     41  C   UNL     1     -27.158  64.182 -30.525  0.00  0.00    +0.000 C 
ENDBRANCH  38  40
ENDBRANCH  20  38
BRANCH   6  42
ATOM     42  C   UNL     1     -28.473  64.769 -19.380  0.00  0.00    +0.000 C 
BRANCH  42  44
ATOM     43  O   UNL     1     -29.108  66.409 -17.564  0.00  0.00    +0.000 OA
ATOM     44  C   UNL     1     -29.448  65.254 -18.368  0.00  0.00    +0.000 C 
ATOM     45  C   UNL     1     -29.928  66.605 -18.642  0.00  0.00    +0.000 C 
ATOM     46  C   UNL     1     -30.180  64.206 -17.466  0.00  0.00    +0.000 C 
BRANCH  45  47
ATOM     47  C   UNL     1     -31.258  67.062 -18.376  0.00  0.00    +0.000 C 
ATOM     48  C   UNL     1     -31.524  67.995 -17.223  0.00  0.00    +0.000 C 
BRANCH  47  49
ATOM     49  C   UNL     1     -32.241  67.035 -19.398  0.00  0.00    +0.000 C 
ATOM     50  C   UNL     1     -33.027  66.979 -20.300  0.00  0.00    +0.000 C 
ATOM     51  C   UNL     1     -33.941  66.861 -21.524  0.00  0.00    +0.000 C 
ENDBRANCH  47  49
ENDBRANCH  45  47
ENDBRANCH  42  44
BRANCH  42  52
ATOM     52  O   UNL     1     -27.148  64.494 -19.070  0.00  0.00    +0.000 OA
ATOM     53  H   UNL     1     -26.600  64.372 -19.872  0.00  0.00    +0.000 HD
ENDBRANCH  42  52
ENDBRANCH   6  42
TORSDOF 12
ENDMDL
MODEL 8
REMARK VINA RESULT:      -6.3     21.238     26.444
REMARK  Name = 101808842_CandidaspongiolideB.pdbqt.pdb
REMARK  12 active torsions:
REMARK  status: ('A' for Active; 'I' for Inactive)
REMARK    1  A    between atoms: C_6  and  C_42
REMARK    2  A    between atoms: C_7  and  O_28
REMARK    3  A    between atoms: C_10  and  O_30
REMARK    4  A    between atoms: C_13  and  O_32
REMARK    5  A    between atoms: C_19  and  O_34
REMARK    6  A    between atoms: C_20  and  O_38
REMARK    7  A    between atoms: C_21  and  O_36
REMARK    8  A    between atoms: O_38  and  C_40
REMARK    9  A    between atoms: C_42  and  C_44
REMARK   10  A    between atoms: C_42  and  O_52
REMARK   11  A    between atoms: C_45  and  C_47
REMARK   12  A    between atoms: C_47  and  C_49
REMARK                            x       y       z     vdW  Elec       q    Type
REMARK                         _______ _______ _______ _____ _____    ______ ____
ROOT
ATOM      1  O   UNL     1     -25.540  63.566   2.513  0.00  0.00    +0.000 OA
ATOM      2  O   UNL     1     -32.063  62.026   1.000  0.00  0.00    +0.000 OA
ATOM      3  O   UNL     1     -29.191  63.806   3.569  0.00  0.00    +0.000 OA
ATOM      4  O   UNL     1     -31.001  63.998   0.447  0.00  0.00    +0.000 OA
ATOM      5  O   UNL     1     -29.157  63.851  -1.864  0.00  0.00    +0.000 OA
ATOM      6  C   UNL     1     -30.334  61.809   3.135  0.00  0.00    +0.000 C 
ATOM      7  C   UNL     1     -27.851  62.064   2.458  0.00  0.00    +0.000 C 
ATOM      8  C   UNL     1     -29.120  62.672   3.092  0.00  0.00    +0.000 C 
ATOM      9  C   UNL     1     -31.270  61.909   2.066  0.00  0.00    +0.000 C 
ATOM     10  C   UNL     1     -27.831  62.312   0.937  0.00  0.00    +0.000 C 
ATOM     11  C   UNL     1     -26.699  63.031   0.451  0.00  0.00    +0.000 C 
ATOM     12  C   UNL     1     -26.617  62.823   2.841  0.00  0.00    +0.000 C 
ATOM     13  C   UNL     1     -25.492  63.697   1.034  0.00  0.00    +0.000 C 
ATOM     14  C   UNL     1     -25.445  65.186   0.657  0.00  0.00    +0.000 C 
ATOM     15  C   UNL     1     -26.584  65.842   0.102  0.00  0.00    +0.000 C 
ATOM     16  C   UNL     1     -24.217  66.088   0.711  0.00  0.00    +0.000 C 
ATOM     17  C   UNL     1     -31.770  63.082   0.192  0.00  0.00    +0.000 C 
ATOM     18  C   UNL     1     -27.649  66.365  -0.423  0.00  0.00    +0.000 C 
ATOM     19  C   UNL     1     -32.450  62.939  -1.116  0.00  0.00    +0.000 C 
ATOM     20  C   UNL     1     -27.818  66.463  -1.855  0.00  0.00    +0.000 C 
ATOM     21  C   UNL     1     -32.005  63.678  -2.281  0.00  0.00    +0.000 C 
ATOM     22  C   UNL     1     -29.017  66.108  -2.611  0.00  0.00    +0.000 C 
ATOM     23  C   UNL     1     -31.259  64.927  -2.291  0.00  0.00    +0.000 C 
ATOM     24  C   UNL     1     -29.765  64.868  -2.216  0.00  0.00    +0.000 C 
ATOM     25  C   UNL     1     -28.777  66.678   0.517  0.00  0.00    +0.000 C 
ATOM     26  C   UNL     1     -29.214  66.665  -4.019  0.00  0.00    +0.000 C 
ATOM     27  C   UNL     1     -32.023  66.236  -2.124  0.00  0.00    +0.000 C 
ENDROOT
BRANCH   7  28
ATOM     28  O   UNL     1     -27.632  60.690   2.701  0.00  0.00    +0.000 OA
ATOM     29  H   UNL     1     -28.504  60.257   2.643  0.00  0.00    +0.000 HD
ENDBRANCH   7  28
BRANCH  10  30
ATOM     30  O   UNL     1     -28.818  61.860   0.100  0.00  0.00    +0.000 OA
ATOM     31  H   UNL     1     -29.137  62.574  -0.491  0.00  0.00    +0.000 HD
ENDBRANCH  10  30
BRANCH  13  32
ATOM     32  O   UNL     1     -24.340  63.010   0.554  0.00  0.00    +0.000 OA
ATOM     33  H   UNL     1     -24.411  62.105   0.898  0.00  0.00    +0.000 HD
ENDBRANCH  13  32
BRANCH  19  34
ATOM     34  O   UNL     1     -33.441  61.999  -1.328  0.00  0.00    +0.000 OA
ATOM     35  H   UNL     1     -33.906  61.737  -0.507  0.00  0.00    +0.000 HD
ENDBRANCH  19  34
BRANCH  21  36
ATOM     36  O   UNL     1     -32.658  63.350  -3.458  0.00  0.00    +0.000 OA
ATOM     37  C   UNL     1     -31.744  63.213  -4.518  0.00  0.00    +0.000 C 
ENDBRANCH  21  36
BRANCH  20  38
ATOM     38  O   UNL     1     -26.833  67.234  -2.518  0.00  0.00    +0.000 OA
BRANCH  38  40
ATOM     39  O   UNL     1     -27.785  69.323  -2.120  0.00  0.00    +0.000 OA
ATOM     40  C   UNL     1     -26.866  68.525  -2.097  0.00  0.00    +0.000 C 
ATOM     41  C   UNL     1     -25.574  69.059  -1.602  0.00  0.00    +0.000 C 
ENDBRANCH  38  40
ENDBRANCH  20  38
BRANCH   6  42
ATOM     42  C   UNL     1     -30.618  61.077   4.350  0.00  0.00    +0.000 C 
BRANCH  42  44
ATOM     43  O   UNL     1     -30.597  60.933   6.874  0.00  0.00    +0.000 OA
ATOM     44  C   UNL     1     -30.678  61.744   5.677  0.00  0.00    +0.000 C 
ATOM     45  C   UNL     1     -29.458  61.566   6.458  0.00  0.00    +0.000 C 
ATOM     46  C   UNL     1     -31.732  62.878   5.903  0.00  0.00    +0.000 C 
BRANCH  45  47
ATOM     47  C   UNL     1     -28.904  62.555   7.333  0.00  0.00    +0.000 C 
ATOM     48  C   UNL     1     -29.018  62.395   8.828  0.00  0.00    +0.000 C 
BRANCH  47  49
ATOM     49  C   UNL     1     -27.883  63.425   6.873  0.00  0.00    +0.000 C 
ATOM     50  C   UNL     1     -27.058  64.173   6.430  0.00  0.00    +0.000 C 
ATOM     51  C   UNL     1     -26.069  65.129   5.758  0.00  0.00    +0.000 C 
ENDBRANCH  47  49
ENDBRANCH  45  47
ENDBRANCH  42  44
BRANCH  42  52
ATOM     52  O   UNL     1     -30.861  59.720   4.183  0.00  0.00    +0.000 OA
ATOM     53  H   UNL     1     -30.159  59.168   4.584  0.00  0.00    +0.000 HD
ENDBRANCH  42  52
ENDBRANCH   6  42
TORSDOF 12
ENDMDL
MODEL 9
REMARK VINA RESULT:      -6.3     22.057     25.609
REMARK  Name = 101808842_CandidaspongiolideB.pdbqt.pdb
REMARK  12 active torsions:
REMARK  status: ('A' for Active; 'I' for Inactive)
REMARK    1  A    between atoms: C_6  and  C_42
REMARK    2  A    between atoms: C_7  and  O_28
REMARK    3  A    between atoms: C_10  and  O_30
REMARK    4  A    between atoms: C_13  and  O_32
REMARK    5  A    between atoms: C_19  and  O_34
REMARK    6  A    between atoms: C_20  and  O_38
REMARK    7  A    between atoms: C_21  and  O_36
REMARK    8  A    between atoms: O_38  and  C_40
REMARK    9  A    between atoms: C_42  and  C_44
REMARK   10  A    between atoms: C_42  and  O_52
REMARK   11  A    between atoms: C_45  and  C_47
REMARK   12  A    between atoms: C_47  and  C_49
REMARK                            x       y       z     vdW  Elec       q    Type
REMARK                         _______ _______ _______ _____ _____    ______ ____
ROOT
ATOM      1  O   UNL     1     -33.587  43.016  -6.976  0.00  0.00    +0.000 OA
ATOM      2  O   UNL     1     -37.554  47.296 -10.605  0.00  0.00    +0.000 OA
ATOM      3  O   UNL     1     -35.889  43.441  -9.980  0.00  0.00    +0.000 OA
ATOM      4  O   UNL     1     -38.291  45.919  -8.907  0.00  0.00    +0.000 OA
ATOM      5  O   UNL     1     -37.703  46.852  -6.160  0.00  0.00    +0.000 OA
ATOM      6  C   UNL     1     -35.519  45.490 -11.050  0.00  0.00    +0.000 C 
ATOM      7  C   UNL     1     -34.211  44.886  -8.902  0.00  0.00    +0.000 C 
ATOM      8  C   UNL     1     -35.264  44.502  -9.965  0.00  0.00    +0.000 C 
ATOM      9  C   UNL     1     -36.580  46.424 -10.876  0.00  0.00    +0.000 C 
ATOM     10  C   UNL     1     -34.865  45.676  -7.751  0.00  0.00    +0.000 C 
ATOM     11  C   UNL     1     -34.719  45.097  -6.455  0.00  0.00    +0.000 C 
ATOM     12  C   UNL     1     -33.733  43.693  -8.134  0.00  0.00    +0.000 C 
ATOM     13  C   UNL     1     -34.132  43.850  -5.873  0.00  0.00    +0.000 C 
ATOM     14  C   UNL     1     -35.191  43.046  -5.104  0.00  0.00    +0.000 C 
ATOM     15  C   UNL     1     -36.581  43.340  -5.239  0.00  0.00    +0.000 C 
ATOM     16  C   UNL     1     -34.919  41.964  -4.064  0.00  0.00    +0.000 C 
ATOM     17  C   UNL     1     -38.307  46.978  -9.516  0.00  0.00    +0.000 C 
ATOM     18  C   UNL     1     -37.823  43.681  -5.390  0.00  0.00    +0.000 C 
ATOM     19  C   UNL     1     -39.116  48.144  -9.088  0.00  0.00    +0.000 C 
ATOM     20  C   UNL     1     -38.480  44.581  -4.470  0.00  0.00    +0.000 C 
ATOM     21  C   UNL     1     -39.678  48.221  -7.754  0.00  0.00    +0.000 C 
ATOM     22  C   UNL     1     -39.321  45.721  -4.828  0.00  0.00    +0.000 C 
ATOM     23  C   UNL     1     -39.982  47.107  -6.868  0.00  0.00    +0.000 C 
ATOM     24  C   UNL     1     -38.896  46.584  -5.980  0.00  0.00    +0.000 C 
ATOM     25  C   UNL     1     -38.486  43.256  -6.670  0.00  0.00    +0.000 C 
ATOM     26  C   UNL     1     -40.286  46.301  -3.795  0.00  0.00    +0.000 C 
ATOM     27  C   UNL     1     -41.298  46.362  -7.057  0.00  0.00    +0.000 C 
ENDROOT
BRANCH   7  28
ATOM     28  O   UNL     1     -33.088  45.605  -9.371  0.00  0.00    +0.000 OA
ATOM     29  H   UNL     1     -33.209  45.708 -10.333  0.00  0.00    +0.000 HD
ENDBRANCH   7  28
BRANCH  10  30
ATOM     30  O   UNL     1     -35.526  46.861  -7.947  0.00  0.00    +0.000 OA
ATOM     31  H   UNL     1     -36.296  46.941  -7.346  0.00  0.00    +0.000 HD
ENDBRANCH  10  30
BRANCH  13  32
ATOM     32  O   UNL     1     -33.057  44.232  -5.019  0.00  0.00    +0.000 OA
ATOM     33  H   UNL     1     -32.246  43.972  -5.484  0.00  0.00    +0.000 HD
ENDBRANCH  13  32
BRANCH  19  34
ATOM     34  O   UNL     1     -39.253  49.270  -9.877  0.00  0.00    +0.000 OA
ATOM     35  H   UNL     1     -38.433  49.506 -10.358  0.00  0.00    +0.000 HD
ENDBRANCH  19  34
BRANCH  21  36
ATOM     36  O   UNL     1     -40.304  49.422  -7.459  0.00  0.00    +0.000 OA
ATOM     37  C   UNL     1     -39.577  50.142  -6.495  0.00  0.00    +0.000 C 
ENDBRANCH  21  36
BRANCH  20  38
ATOM     38  O   UNL     1     -38.526  44.131  -3.129  0.00  0.00    +0.000 OA
BRANCH  38  40
ATOM     39  O   UNL     1     -40.394  42.755  -3.351  0.00  0.00    +0.000 OA
ATOM     40  C   UNL     1     -39.241  42.980  -3.032  0.00  0.00    +0.000 C 
ATOM     41  C   UNL     1     -38.534  41.853  -2.376  0.00  0.00    +0.000 C 
ENDBRANCH  38  40
ENDBRANCH  20  38
BRANCH   6  42
ATOM     42  C   UNL     1     -34.834  45.321 -12.313  0.00  0.00    +0.000 C 
BRANCH  42  44
ATOM     43  O   UNL     1     -35.163  47.481 -13.585  0.00  0.00    +0.000 OA
ATOM     44  C   UNL     1     -35.261  46.037 -13.544  0.00  0.00    +0.000 C 
ATOM     45  C   UNL     1     -34.170  46.760 -14.189  0.00  0.00    +0.000 C 
ATOM     46  C   UNL     1     -36.588  45.598 -14.248  0.00  0.00    +0.000 C 
BRANCH  45  47
ATOM     47  C   UNL     1     -34.022  46.909 -15.605  0.00  0.00    +0.000 C 
ATOM     48  C   UNL     1     -34.435  48.192 -16.280  0.00  0.00    +0.000 C 
BRANCH  47  49
ATOM     49  C   UNL     1     -33.107  46.094 -16.319  0.00  0.00    +0.000 C 
ATOM     50  C   UNL     1     -32.292  45.459 -16.925  0.00  0.00    +0.000 C 
ATOM     51  C   UNL     1     -31.189  44.753 -17.720  0.00  0.00    +0.000 C 
ENDBRANCH  47  49
ENDBRANCH  45  47
ENDBRANCH  42  44
BRANCH  42  52
ATOM     52  O   UNL     1     -33.736  44.471 -12.285  0.00  0.00    +0.000 OA
ATOM     53  H   UNL     1     -33.198  44.592 -11.477  0.00  0.00    +0.000 HD
ENDBRANCH  42  52
ENDBRANCH   6  42
TORSDOF 12
ENDMDL
