MODEL 1
REMARK VINA RESULT:      -6.0      0.000      0.000
REMARK  Name = 102471178_CandidaspongiolideCore.pdbqt.pdb
REMARK  13 active torsions:
REMARK  status: ('A' for Active; 'I' for Inactive)
REMARK    1  A    between atoms: C_6  and  C_39
REMARK    2  A    between atoms: C_8  and  O_27
REMARK    3  A    between atoms: C_8  and  C_51
REMARK    4  A    between atoms: C_10  and  O_29
REMARK    5  A    between atoms: C_15  and  O_31
REMARK    6  A    between atoms: C_16  and  O_33
REMARK    7  A    between atoms: C_21  and  O_35
REMARK    8  A    between atoms: O_35  and  C_37
REMARK    9  A    between atoms: C_39  and  C_41
REMARK   10  A    between atoms: C_39  and  O_49
REMARK   11  A    between atoms: C_42  and  C_44
REMARK   12  A    between atoms: C_44  and  C_46
REMARK   13  A    between atoms: C_51  and  O_52
REMARK                            x       y       z     vdW  Elec       q    Type
REMARK                         _______ _______ _______ _____ _____    ______ ____
ROOT
ATOM      1  O   UNL     1     -27.542  62.841 -23.988  0.00  0.00    +0.000 OA
ATOM      2  O   UNL     1     -29.023  64.037 -25.272  0.00  0.00    +0.000 OA
ATOM      3  O   UNL     1     -32.938  66.919 -26.175  0.00  0.00    +0.000 OA
ATOM      4  O   UNL     1     -25.569  63.535 -24.840  0.00  0.00    +0.000 OA
ATOM      5  O   UNL     1     -26.954  64.294 -27.985  0.00  0.00    +0.000 OA
ATOM      6  C   UNL     1     -29.536  63.482 -22.996  0.00  0.00    +0.000 C 
ATOM      7  C   UNL     1     -30.957  63.511 -23.070  0.00  0.00    +0.000 C 
ATOM      8  C   UNL     1     -32.419  63.428 -23.024  0.00  0.00    +0.000 C 
ATOM      9  C   UNL     1     -28.692  63.507 -24.220  0.00  0.00    +0.000 C 
ATOM     10  C   UNL     1     -33.075  64.769 -23.271  0.00  0.00    +0.000 C 
ATOM     11  C   UNL     1     -32.650  65.704 -24.253  0.00  0.00    +0.000 C 
ATOM     12  C   UNL     1     -32.159  66.591 -25.286  0.00  0.00    +0.000 C 
ATOM     13  C   UNL     1     -26.621  62.918 -24.967  0.00  0.00    +0.000 C 
ATOM     14  C   UNL     1     -30.735  67.045 -25.280  0.00  0.00    +0.000 C 
ATOM     15  C   UNL     1     -26.785  61.965 -26.092  0.00  0.00    +0.000 C 
ATOM     16  C   UNL     1     -28.028  61.731 -26.797  0.00  0.00    +0.000 C 
ATOM     17  C   UNL     1     -28.500  62.478 -27.956  0.00  0.00    +0.000 C 
ATOM     18  C   UNL     1     -30.080  67.304 -26.509  0.00  0.00    +0.000 C 
ATOM     19  C   UNL     1     -29.226  64.916 -28.276  0.00  0.00    +0.000 C 
ATOM     20  C   UNL     1     -29.860  66.966 -24.037  0.00  0.00    +0.000 C 
ATOM     21  C   UNL     1     -28.860  66.326 -28.342  0.00  0.00    +0.000 C 
ATOM     22  C   UNL     1     -28.123  63.918 -28.089  0.00  0.00    +0.000 C 
ATOM     23  C   UNL     1     -29.513  67.440 -27.668  0.00  0.00    +0.000 C 
ATOM     24  C   UNL     1     -29.092  61.767 -29.169  0.00  0.00    +0.000 C 
ATOM     25  C   UNL     1     -30.691  64.539 -28.101  0.00  0.00    +0.000 C 
ATOM     26  C   UNL     1     -29.528  68.829 -28.251  0.00  0.00    +0.000 C 
ENDROOT
BRANCH   8  27
ATOM     27  O   UNL     1     -32.741  63.000 -21.699  0.00  0.00    +0.000 OA
ATOM     28  H   UNL     1     -32.192  63.568 -21.121  0.00  0.00    +0.000 HD
ENDBRANCH   8  27
BRANCH  10  29
ATOM     29  O   UNL     1     -34.197  65.068 -22.513  0.00  0.00    +0.000 OA
ATOM     30  H   UNL     1     -34.184  64.625 -21.644  0.00  0.00    +0.000 HD
ENDBRANCH  10  29
BRANCH  15  31
ATOM     31  O   UNL     1     -25.658  61.638 -26.829  0.00  0.00    +0.000 OA
ATOM     32  H   UNL     1     -25.890  61.518 -27.775  0.00  0.00    +0.000 HD
ENDBRANCH  15  31
BRANCH  16  33
ATOM     33  O   UNL     1     -28.538  60.450 -26.683  0.00  0.00    +0.000 OA
ATOM     34  C   UNL     1     -29.576  60.446 -25.733  0.00  0.00    +0.000 C 
ENDBRANCH  16  33
BRANCH  21  35
ATOM     35  O   UNL     1     -27.864  66.628 -29.305  0.00  0.00    +0.000 OA
BRANCH  35  37
ATOM     36  O   UNL     1     -29.260  66.848 -31.169  0.00  0.00    +0.000 OA
ATOM     37  C   UNL     1     -28.281  66.419 -30.584  0.00  0.00    +0.000 C 
ATOM     38  C   UNL     1     -27.378  65.565 -31.397  0.00  0.00    +0.000 C 
ENDBRANCH  35  37
ENDBRANCH  21  35
BRANCH   6  39
ATOM     39  C   UNL     1     -28.937  63.517 -21.682  0.00  0.00    +0.000 C 
BRANCH  39  41
ATOM     40  O   UNL     1     -30.612  64.809 -20.258  0.00  0.00    +0.000 OA
ATOM     41  C   UNL     1     -29.260  64.624 -20.740  0.00  0.00    +0.000 C 
ATOM     42  C   UNL     1     -29.741  64.130 -19.452  0.00  0.00    +0.000 C 
ATOM     43  C   UNL     1     -28.584  66.026 -20.947  0.00  0.00    +0.000 C 
BRANCH  42  44
ATOM     44  C   UNL     1     -29.420  64.718 -18.187  0.00  0.00    +0.000 C 
ATOM     45  C   UNL     1     -30.509  64.984 -17.174  0.00  0.00    +0.000 C 
BRANCH  44  46
ATOM     46  C   UNL     1     -28.102  64.639 -17.670  0.00  0.00    +0.000 C 
ATOM     47  C   UNL     1     -27.001  64.602 -17.197  0.00  0.00    +0.000 C 
ATOM     48  C   UNL     1     -25.618  64.589 -16.533  0.00  0.00    +0.000 C 
ENDBRANCH  44  46
ENDBRANCH  42  44
ENDBRANCH  39  41
BRANCH  39  49
ATOM     49  O   UNL     1     -28.016  62.525 -21.386  0.00  0.00    +0.000 OA
ATOM     50  H   UNL     1     -28.341  61.616 -21.532  0.00  0.00    +0.000 HD
ENDBRANCH  39  49
ENDBRANCH   6  39
BRANCH   8  51
ATOM     51  C   UNL     1     -32.944  62.421 -23.960  0.00  0.00    +0.000 C 
BRANCH  51  52
ATOM     52  O   UNL     1     -33.454  61.534 -24.816  0.00  0.00    +0.000 OA
ATOM     53  H   UNL     1     -33.820  61.982 -25.606  0.00  0.00    +0.000 HD
ENDBRANCH  51  52
ENDBRANCH   8  51
TORSDOF 13
ENDMDL
MODEL 2
REMARK VINA RESULT:      -5.7     15.885     21.572
REMARK  Name = 102471178_CandidaspongiolideCore.pdbqt.pdb
REMARK  13 active torsions:
REMARK  status: ('A' for Active; 'I' for Inactive)
REMARK    1  A    between atoms: C_6  and  C_39
REMARK    2  A    between atoms: C_8  and  O_27
REMARK    3  A    between atoms: C_8  and  C_51
REMARK    4  A    between atoms: C_10  and  O_29
REMARK    5  A    between atoms: C_15  and  O_31
REMARK    6  A    between atoms: C_16  and  O_33
REMARK    7  A    between atoms: C_21  and  O_35
REMARK    8  A    between atoms: O_35  and  C_37
REMARK    9  A    between atoms: C_39  and  C_41
REMARK   10  A    between atoms: C_39  and  O_49
REMARK   11  A    between atoms: C_42  and  C_44
REMARK   12  A    between atoms: C_44  and  C_46
REMARK   13  A    between atoms: C_51  and  O_52
REMARK                            x       y       z     vdW  Elec       q    Type
REMARK                         _______ _______ _______ _____ _____    ______ ____
ROOT
ATOM      1  O   UNL     1     -36.534  60.516  -7.474  0.00  0.00    +0.000 OA
ATOM      2  O   UNL     1     -37.970  61.622  -6.062  0.00  0.00    +0.000 OA
ATOM      3  O   UNL     1     -39.351  65.049  -2.777  0.00  0.00    +0.000 OA
ATOM      4  O   UNL     1     -37.801  60.345  -9.335  0.00  0.00    +0.000 OA
ATOM      5  O   UNL     1     -40.827  60.454  -7.540  0.00  0.00    +0.000 OA
ATOM      6  C   UNL     1     -35.600  61.954  -5.914  0.00  0.00    +0.000 C 
ATOM      7  C   UNL     1     -35.510  62.350  -4.550  0.00  0.00    +0.000 C 
ATOM      8  C   UNL     1     -35.266  62.691  -3.146  0.00  0.00    +0.000 C 
ATOM      9  C   UNL     1     -36.845  61.369  -6.476  0.00  0.00    +0.000 C 
ATOM     10  C   UNL     1     -35.885  64.018  -2.765  0.00  0.00    +0.000 C 
ATOM     11  C   UNL     1     -37.174  64.452  -3.176  0.00  0.00    +0.000 C 
ATOM     12  C   UNL     1     -38.502  64.808  -3.629  0.00  0.00    +0.000 C 
ATOM     13  C   UNL     1     -37.580  60.033  -8.170  0.00  0.00    +0.000 C 
ATOM     14  C   UNL     1     -38.823  64.831  -5.088  0.00  0.00    +0.000 C 
ATOM     15  C   UNL     1     -38.274  58.865  -7.574  0.00  0.00    +0.000 C 
ATOM     16  C   UNL     1     -38.702  58.779  -6.193  0.00  0.00    +0.000 C 
ATOM     17  C   UNL     1     -39.984  59.234  -5.672  0.00  0.00    +0.000 C 
ATOM     18  C   UNL     1     -40.133  64.510  -5.521  0.00  0.00    +0.000 C 
ATOM     19  C   UNL     1     -41.045  61.557  -5.449  0.00  0.00    +0.000 C 
ATOM     20  C   UNL     1     -37.744  64.899  -6.159  0.00  0.00    +0.000 C 
ATOM     21  C   UNL     1     -41.641  62.721  -6.096  0.00  0.00    +0.000 C 
ATOM     22  C   UNL     1     -40.654  60.402  -6.320  0.00  0.00    +0.000 C 
ATOM     23  C   UNL     1     -41.326  64.122  -5.855  0.00  0.00    +0.000 C 
ATOM     24  C   UNL     1     -40.794  58.377  -4.703  0.00  0.00    +0.000 C 
ATOM     25  C   UNL     1     -40.578  61.671  -4.005  0.00  0.00    +0.000 C 
ATOM     26  C   UNL     1     -42.350  65.213  -6.027  0.00  0.00    +0.000 C 
ENDROOT
BRANCH   8  27
ATOM     27  O   UNL     1     -33.846  62.796  -3.015  0.00  0.00    +0.000 OA
ATOM     28  H   UNL     1     -33.717  63.459  -2.307  0.00  0.00    +0.000 HD
ENDBRANCH   8  27
BRANCH  10  29
ATOM     29  O   UNL     1     -35.152  64.832  -1.915  0.00  0.00    +0.000 OA
ATOM     30  H   UNL     1     -35.167  65.766  -2.194  0.00  0.00    +0.000 HD
ENDBRANCH  10  29
BRANCH  15  31
ATOM     31  O   UNL     1     -38.979  58.030  -8.428  0.00  0.00    +0.000 OA
ATOM     32  H   UNL     1     -38.446  57.238  -8.649  0.00  0.00    +0.000 HD
ENDBRANCH  15  31
BRANCH  16  33
ATOM     33  O   UNL     1     -38.089  57.787  -5.448  0.00  0.00    +0.000 OA
ATOM     34  C   UNL     1     -37.008  58.341  -4.737  0.00  0.00    +0.000 C 
ENDBRANCH  16  33
BRANCH  21  35
ATOM     35  O   UNL     1     -42.760  62.426  -6.916  0.00  0.00    +0.000 OA
BRANCH  35  37
ATOM     36  O   UNL     1     -44.403  62.435  -5.251  0.00  0.00    +0.000 OA
ATOM     37  C   UNL     1     -43.826  61.957  -6.212  0.00  0.00    +0.000 C 
ATOM     38  C   UNL     1     -44.390  60.680  -6.723  0.00  0.00    +0.000 C 
ENDBRANCH  35  37
ENDBRANCH  21  35
BRANCH   6  39
ATOM     39  C   UNL     1     -34.460  62.224  -6.761  0.00  0.00    +0.000 C 
BRANCH  39  41
ATOM     40  O   UNL     1     -33.646  63.400  -8.872  0.00  0.00    +0.000 OA
ATOM     41  C   UNL     1     -34.473  63.392  -7.686  0.00  0.00    +0.000 C 
ATOM     42  C   UNL     1     -34.956  63.036  -9.017  0.00  0.00    +0.000 C 
ATOM     43  C   UNL     1     -34.538  64.841  -7.085  0.00  0.00    +0.000 C 
BRANCH  42  44
ATOM     44  C   UNL     1     -35.786  63.873  -9.829  0.00  0.00    +0.000 C 
ATOM     45  C   UNL     1     -35.258  64.434 -11.129  0.00  0.00    +0.000 C 
BRANCH  44  46
ATOM     46  C   UNL     1     -37.197  63.825  -9.705  0.00  0.00    +0.000 C 
ATOM     47  C   UNL     1     -38.386  63.764  -9.556  0.00  0.00    +0.000 C 
ATOM     48  C   UNL     1     -39.895  63.669  -9.296  0.00  0.00    +0.000 C 
ENDBRANCH  44  46
ENDBRANCH  42  44
ENDBRANCH  39  41
BRANCH  39  49
ATOM     49  O   UNL     1     -33.415  61.316  -6.714  0.00  0.00    +0.000 OA
ATOM     50  H   UNL     1     -33.011  61.120  -7.581  0.00  0.00    +0.000 HD
ENDBRANCH  39  49
ENDBRANCH   6  39
BRANCH   8  51
ATOM     51  C   UNL     1     -35.723  61.631  -2.233  0.00  0.00    +0.000 C 
BRANCH  51  52
ATOM     52  O   UNL     1     -36.100  60.648  -1.414  0.00  0.00    +0.000 OA
ATOM     53  H   UNL     1     -36.315  60.996  -0.526  0.00  0.00    +0.000 HD
ENDBRANCH  51  52
ENDBRANCH   8  51
TORSDOF 13
ENDMDL
MODEL 3
REMARK VINA RESULT:      -5.6     23.077     27.074
REMARK  Name = 102471178_CandidaspongiolideCore.pdbqt.pdb
REMARK  13 active torsions:
REMARK  status: ('A' for Active; 'I' for Inactive)
REMARK    1  A    between atoms: C_6  and  C_39
REMARK    2  A    between atoms: C_8  and  O_27
REMARK    3  A    between atoms: C_8  and  C_51
REMARK    4  A    between atoms: C_10  and  O_29
REMARK    5  A    between atoms: C_15  and  O_31
REMARK    6  A    between atoms: C_16  and  O_33
REMARK    7  A    between atoms: C_21  and  O_35
REMARK    8  A    between atoms: O_35  and  C_37
REMARK    9  A    between atoms: C_39  and  C_41
REMARK   10  A    between atoms: C_39  and  O_49
REMARK   11  A    between atoms: C_42  and  C_44
REMARK   12  A    between atoms: C_44  and  C_46
REMARK   13  A    between atoms: C_51  and  O_52
REMARK                            x       y       z     vdW  Elec       q    Type
REMARK                         _______ _______ _______ _____ _____    ______ ____
ROOT
ATOM      1  O   UNL     1     -37.505  42.308 -11.581  0.00  0.00    +0.000 OA
ATOM      2  O   UNL     1     -37.312  43.742  -9.797  0.00  0.00    +0.000 OA
ATOM      3  O   UNL     1     -34.992  46.735  -6.619  0.00  0.00    +0.000 OA
ATOM      4  O   UNL     1     -39.301  43.173 -12.641  0.00  0.00    +0.000 OA
ATOM      5  O   UNL     1     -40.632  44.568  -9.697  0.00  0.00    +0.000 OA
ATOM      6  C   UNL     1     -35.373  42.721 -10.770  0.00  0.00    +0.000 C 
ATOM      7  C   UNL     1     -34.506  42.760  -9.643  0.00  0.00    +0.000 C 
ATOM      8  C   UNL     1     -33.541  42.664  -8.544  0.00  0.00    +0.000 C 
ATOM      9  C   UNL     1     -36.827  43.004 -10.645  0.00  0.00    +0.000 C 
ATOM     10  C   UNL     1     -33.084  44.024  -8.064  0.00  0.00    +0.000 C 
ATOM     11  C   UNL     1     -33.940  45.145  -7.892  0.00  0.00    +0.000 C 
ATOM     12  C   UNL     1     -34.884  46.231  -7.732  0.00  0.00    +0.000 C 
ATOM     13  C   UNL     1     -38.817  42.592 -11.677  0.00  0.00    +0.000 C 
ATOM     14  C   UNL     1     -35.726  46.679  -8.883  0.00  0.00    +0.000 C 
ATOM     15  C   UNL     1     -39.705  41.895 -10.714  0.00  0.00    +0.000 C 
ATOM     16  C   UNL     1     -39.466  41.809  -9.288  0.00  0.00    +0.000 C 
ATOM     17  C   UNL     1     -39.906  42.781  -8.295  0.00  0.00    +0.000 C 
ATOM     18  C   UNL     1     -37.024  47.192  -8.642  0.00  0.00    +0.000 C 
ATOM     19  C   UNL     1     -39.281  45.229  -7.860  0.00  0.00    +0.000 C 
ATOM     20  C   UNL     1     -35.376  46.345 -10.326  0.00  0.00    +0.000 C 
ATOM     21  C   UNL     1     -39.338  46.623  -8.285  0.00  0.00    +0.000 C 
ATOM     22  C   UNL     1     -40.015  44.218  -8.688  0.00  0.00    +0.000 C 
ATOM     23  C   UNL     1     -38.233  47.569  -8.360  0.00  0.00    +0.000 C 
ATOM     24  C   UNL     1     -40.544  42.337  -6.981  0.00  0.00    +0.000 C 
ATOM     25  C   UNL     1     -38.266  44.819  -6.802  0.00  0.00    +0.000 C 
ATOM     26  C   UNL     1     -38.433  49.049  -8.164  0.00  0.00    +0.000 C 
ENDROOT
BRANCH   8  27
ATOM     27  O   UNL     1     -32.414  41.967  -9.079  0.00  0.00    +0.000 OA
ATOM     28  H   UNL     1     -32.645  41.021  -8.980  0.00  0.00    +0.000 HD
ENDBRANCH   8  27
BRANCH  10  29
ATOM     29  O   UNL     1     -31.746  44.154  -7.726  0.00  0.00    +0.000 OA
ATOM     30  H   UNL     1     -31.603  44.837  -7.044  0.00  0.00    +0.000 HD
ENDBRANCH  10  29
BRANCH  15  31
ATOM     31  O   UNL     1     -41.036  41.733 -11.065  0.00  0.00    +0.000 OA
ATOM     32  H   UNL     1     -41.192  40.829 -11.414  0.00  0.00    +0.000 HD
ENDBRANCH  15  31
BRANCH  16  33
ATOM     33  O   UNL     1     -39.260  40.531  -8.801  0.00  0.00    +0.000 OA
ATOM     34  C   UNL     1     -37.886  40.340  -8.566  0.00  0.00    +0.000 C 
ENDBRANCH  16  33
BRANCH  21  35
ATOM     35  O   UNL     1     -40.651  47.123  -8.477  0.00  0.00    +0.000 OA
BRANCH  35  37
ATOM     36  O   UNL     1     -41.105  47.738  -6.266  0.00  0.00    +0.000 OA
ATOM     37  C   UNL     1     -41.368  47.190  -7.322  0.00  0.00    +0.000 C 
ATOM     38  C   UNL     1     -42.693  46.519  -7.377  0.00  0.00    +0.000 C 
ENDBRANCH  35  37
ENDBRANCH  21  35
BRANCH   6  39
ATOM     39  C   UNL     1     -34.773  42.482 -12.063  0.00  0.00    +0.000 C 
BRANCH  39  41
ATOM     40  O   UNL     1     -34.392  43.489 -14.374  0.00  0.00    +0.000 OA
ATOM     41  C   UNL     1     -34.390  43.627 -12.934  0.00  0.00    +0.000 C 
ATOM     42  C   UNL     1     -35.489  44.060 -13.793  0.00  0.00    +0.000 C 
ATOM     43  C   UNL     1     -33.196  44.551 -12.500  0.00  0.00    +0.000 C 
BRANCH  42  44
ATOM     44  C   UNL     1     -35.773  45.424 -14.120  0.00  0.00    +0.000 C 
ATOM     45  C   UNL     1     -35.347  45.989 -15.455  0.00  0.00    +0.000 C 
BRANCH  44  46
ATOM     46  C   UNL     1     -36.815  46.122 -13.458  0.00  0.00    +0.000 C 
ATOM     47  C   UNL     1     -37.705  46.672 -12.872  0.00  0.00    +0.000 C 
ATOM     48  C   UNL     1     -38.845  47.319 -12.076  0.00  0.00    +0.000 C 
ENDBRANCH  44  46
ENDBRANCH  42  44
ENDBRANCH  39  41
BRANCH  39  49
ATOM     49  O   UNL     1     -34.645  41.161 -12.460  0.00  0.00    +0.000 OA
ATOM     50  H   UNL     1     -33.752  40.917 -12.769  0.00  0.00    +0.000 HD
ENDBRANCH  39  49
ENDBRANCH   6  39
BRANCH   8  51
ATOM     51  C   UNL     1     -34.064  41.872  -7.418  0.00  0.00    +0.000 C 
BRANCH  51  52
ATOM     52  O   UNL     1     -34.536  41.120  -6.424  0.00  0.00    +0.000 OA
ATOM     53  H   UNL     1     -34.344  40.173  -6.580  0.00  0.00    +0.000 HD
ENDBRANCH  51  52
ENDBRANCH   8  51
TORSDOF 13
ENDMDL
MODEL 4
REMARK VINA RESULT:      -5.5     16.798     20.872
REMARK  Name = 102471178_CandidaspongiolideCore.pdbqt.pdb
REMARK  13 active torsions:
REMARK  status: ('A' for Active; 'I' for Inactive)
REMARK    1  A    between atoms: C_6  and  C_39
REMARK    2  A    between atoms: C_8  and  O_27
REMARK    3  A    between atoms: C_8  and  C_51
REMARK    4  A    between atoms: C_10  and  O_29
REMARK    5  A    between atoms: C_15  and  O_31
REMARK    6  A    between atoms: C_16  and  O_33
REMARK    7  A    between atoms: C_21  and  O_35
REMARK    8  A    between atoms: O_35  and  C_37
REMARK    9  A    between atoms: C_39  and  C_41
REMARK   10  A    between atoms: C_39  and  O_49
REMARK   11  A    between atoms: C_42  and  C_44
REMARK   12  A    between atoms: C_44  and  C_46
REMARK   13  A    between atoms: C_51  and  O_52
REMARK                            x       y       z     vdW  Elec       q    Type
REMARK                         _______ _______ _______ _____ _____    ______ ____
ROOT
ATOM      1  O   UNL     1     -32.917  62.588  -4.548  0.00  0.00    +0.000 OA
ATOM      2  O   UNL     1     -34.513  64.229  -4.739  0.00  0.00    +0.000 OA
ATOM      3  O   UNL     1     -37.216  68.109  -3.299  0.00  0.00    +0.000 OA
ATOM      4  O   UNL     1     -31.846  62.792  -6.525  0.00  0.00    +0.000 OA
ATOM      5  O   UNL     1     -34.666  64.124  -8.156  0.00  0.00    +0.000 OA
ATOM      6  C   UNL     1     -33.578  63.663  -2.604  0.00  0.00    +0.000 C 
ATOM      7  C   UNL     1     -34.653  64.076  -1.769  0.00  0.00    +0.000 C 
ATOM      8  C   UNL     1     -35.711  64.383  -0.802  0.00  0.00    +0.000 C 
ATOM      9  C   UNL     1     -33.735  63.552  -4.078  0.00  0.00    +0.000 C 
ATOM     10  C   UNL     1     -36.009  65.865  -0.733  0.00  0.00    +0.000 C 
ATOM     11  C   UNL     1     -36.089  66.722  -1.863  0.00  0.00    +0.000 C 
ATOM     12  C   UNL     1     -36.165  67.520  -3.069  0.00  0.00    +0.000 C 
ATOM     13  C   UNL     1     -32.848  62.489  -5.889  0.00  0.00    +0.000 C 
ATOM     14  C   UNL     1     -35.009  67.576  -4.015  0.00  0.00    +0.000 C 
ATOM     15  C   UNL     1     -33.924  61.700  -6.538  0.00  0.00    +0.000 C 
ATOM     16  C   UNL     1     -35.338  61.860  -6.269  0.00  0.00    +0.000 C 
ATOM     17  C   UNL     1     -36.231  62.789  -6.949  0.00  0.00    +0.000 C 
ATOM     18  C   UNL     1     -35.247  67.741  -5.401  0.00  0.00    +0.000 C 
ATOM     19  C   UNL     1     -36.351  65.349  -7.019  0.00  0.00    +0.000 C 
ATOM     20  C   UNL     1     -33.600  67.174  -3.603  0.00  0.00    +0.000 C 
ATOM     21  C   UNL     1     -35.771  66.611  -7.464  0.00  0.00    +0.000 C 
ATOM     22  C   UNL     1     -35.679  64.083  -7.455  0.00  0.00    +0.000 C 
ATOM     23  C   UNL     1     -35.538  67.806  -6.664  0.00  0.00    +0.000 C 
ATOM     24  C   UNL     1     -37.614  62.354  -7.425  0.00  0.00    +0.000 C 
ATOM     25  C   UNL     1     -37.403  65.366  -5.918  0.00  0.00    +0.000 C 
ATOM     26  C   UNL     1     -35.570  69.188  -7.263  0.00  0.00    +0.000 C 
ENDROOT
BRANCH   8  27
ATOM     27  O   UNL     1     -35.210  63.959   0.468  0.00  0.00    +0.000 OA
ATOM     28  H   UNL     1     -34.362  64.438   0.565  0.00  0.00    +0.000 HD
ENDBRANCH   8  27
BRANCH  10  29
ATOM     29  O   UNL     1     -36.270  66.395   0.520  0.00  0.00    +0.000 OA
ATOM     30  H   UNL     1     -35.825  65.898   1.231  0.00  0.00    +0.000 HD
ENDBRANCH  10  29
BRANCH  15  31
ATOM     31  O   UNL     1     -33.654  61.140  -7.777  0.00  0.00    +0.000 OA
ATOM     32  H   UNL     1     -32.686  61.109  -7.936  0.00  0.00    +0.000 HD
ENDBRANCH  15  31
BRANCH  16  33
ATOM     33  O   UNL     1     -35.960  60.757  -5.712  0.00  0.00    +0.000 OA
ATOM     34  C   UNL     1     -36.086  60.947  -4.324  0.00  0.00    +0.000 C 
ENDBRANCH  16  33
BRANCH  21  35
ATOM     35  O   UNL     1     -35.581  66.707  -8.866  0.00  0.00    +0.000 OA
BRANCH  35  37
ATOM     36  O   UNL     1     -37.740  67.405  -9.436  0.00  0.00    +0.000 OA
ATOM     37  C   UNL     1     -36.752  66.704  -9.561  0.00  0.00    +0.000 C 
ATOM     38  C   UNL     1     -36.811  65.712 -10.666  0.00  0.00    +0.000 C 
ENDBRANCH  35  37
ENDBRANCH  21  35
BRANCH   6  39
ATOM     39  C   UNL     1     -32.296  63.439  -1.976  0.00  0.00    +0.000 C 
BRANCH  39  41
ATOM     40  O   UNL     1     -29.838  64.111  -2.085  0.00  0.00    +0.000 OA
ATOM     41  C   UNL     1     -31.236  64.483  -2.044  0.00  0.00    +0.000 C 
ATOM     42  C   UNL     1     -30.452  64.395  -3.273  0.00  0.00    +0.000 C 
ATOM     43  C   UNL     1     -31.401  65.796  -1.198  0.00  0.00    +0.000 C 
BRANCH  42  44
ATOM     44  C   UNL     1     -29.970  65.523  -4.010  0.00  0.00    +0.000 C 
ATOM     45  C   UNL     1     -28.550  66.004  -3.821  0.00  0.00    +0.000 C 
BRANCH  44  46
ATOM     46  C   UNL     1     -30.600  65.917  -5.218  0.00  0.00    +0.000 C 
ATOM     47  C   UNL     1     -31.175  66.233  -6.222  0.00  0.00    +0.000 C 
ATOM     48  C   UNL     1     -31.972  66.625  -7.472  0.00  0.00    +0.000 C 
ENDBRANCH  44  46
ENDBRANCH  42  44
ENDBRANCH  39  41
BRANCH  39  49
ATOM     49  O   UNL     1     -32.094  62.202  -1.386  0.00  0.00    +0.000 OA
ATOM     50  H   UNL     1     -32.226  61.442  -1.984  0.00  0.00    +0.000 HD
ENDBRANCH  39  49
ENDBRANCH   6  39
BRANCH   8  51
ATOM     51  C   UNL     1     -36.943  63.625  -1.073  0.00  0.00    +0.000 C 
BRANCH  51  52
ATOM     52  O   UNL     1     -38.044  62.905  -1.293  0.00  0.00    +0.000 OA
ATOM     53  H   UNL     1     -38.452  62.622  -0.449  0.00  0.00    +0.000 HD
ENDBRANCH  51  52
ENDBRANCH   8  51
TORSDOF 13
ENDMDL
MODEL 5
REMARK VINA RESULT:      -5.5     17.863     21.612
REMARK  Name = 102471178_CandidaspongiolideCore.pdbqt.pdb
REMARK  13 active torsions:
REMARK  status: ('A' for Active; 'I' for Inactive)
REMARK    1  A    between atoms: C_6  and  C_39
REMARK    2  A    between atoms: C_8  and  O_27
REMARK    3  A    between atoms: C_8  and  C_51
REMARK    4  A    between atoms: C_10  and  O_29
REMARK    5  A    between atoms: C_15  and  O_31
REMARK    6  A    between atoms: C_16  and  O_33
REMARK    7  A    between atoms: C_21  and  O_35
REMARK    8  A    between atoms: O_35  and  C_37
REMARK    9  A    between atoms: C_39  and  C_41
REMARK   10  A    between atoms: C_39  and  O_49
REMARK   11  A    between atoms: C_42  and  C_44
REMARK   12  A    between atoms: C_44  and  C_46
REMARK   13  A    between atoms: C_51  and  O_52
REMARK                            x       y       z     vdW  Elec       q    Type
REMARK                         _______ _______ _______ _____ _____    ______ ____
ROOT
ATOM      1  O   UNL     1     -35.509  47.035 -15.849  0.00  0.00    +0.000 OA
ATOM      2  O   UNL     1     -34.671  45.420 -17.250  0.00  0.00    +0.000 OA
ATOM      3  O   UNL     1     -34.183  42.892 -21.471  0.00  0.00    +0.000 OA
ATOM      4  O   UNL     1     -33.609  47.858 -14.949  0.00  0.00    +0.000 OA
ATOM      5  O   UNL     1     -31.835  44.855 -15.420  0.00  0.00    +0.000 OA
ATOM      6  C   UNL     1     -36.679  46.609 -17.804  0.00  0.00    +0.000 C 
ATOM      7  C   UNL     1     -37.290  45.641 -18.648  0.00  0.00    +0.000 C 
ATOM      8  C   UNL     1     -38.066  44.706 -19.468  0.00  0.00    +0.000 C 
ATOM      9  C   UNL     1     -35.499  46.276 -16.963  0.00  0.00    +0.000 C 
ATOM     10  C   UNL     1     -37.393  44.411 -20.791  0.00  0.00    +0.000 C 
ATOM     11  C   UNL     1     -35.999  44.191 -20.951  0.00  0.00    +0.000 C 
ATOM     12  C   UNL     1     -34.571  43.966 -21.023  0.00  0.00    +0.000 C 
ATOM     13  C   UNL     1     -34.412  46.942 -15.074  0.00  0.00    +0.000 C 
ATOM     14  C   UNL     1     -33.615  44.999 -20.519  0.00  0.00    +0.000 C 
ATOM     15  C   UNL     1     -34.381  45.799 -14.128  0.00  0.00    +0.000 C 
ATOM     16  C   UNL     1     -34.678  44.427 -14.485  0.00  0.00    +0.000 C 
ATOM     17  C   UNL     1     -33.716  43.454 -14.986  0.00  0.00    +0.000 C 
ATOM     18  C   UNL     1     -32.376  44.593 -19.964  0.00  0.00    +0.000 C 
ATOM     19  C   UNL     1     -32.350  43.313 -17.150  0.00  0.00    +0.000 C 
ATOM     20  C   UNL     1     -34.022  46.449 -20.303  0.00  0.00    +0.000 C 
ATOM     21  C   UNL     1     -31.260  43.829 -17.971  0.00  0.00    +0.000 C 
ATOM     22  C   UNL     1     -32.560  43.934 -15.803  0.00  0.00    +0.000 C 
ATOM     23  C   UNL     1     -31.299  44.151 -19.390  0.00  0.00    +0.000 C 
ATOM     24  C   UNL     1     -33.682  42.025 -14.450  0.00  0.00    +0.000 C 
ATOM     25  C   UNL     1     -33.389  42.403 -17.789  0.00  0.00    +0.000 C 
ATOM     26  C   UNL     1     -30.081  44.040 -20.270  0.00  0.00    +0.000 C 
ENDROOT
BRANCH   8  27
ATOM     27  O   UNL     1     -39.312  45.359 -19.726  0.00  0.00    +0.000 OA
ATOM     28  H   UNL     1     -39.216  45.710 -20.634  0.00  0.00    +0.000 HD
ENDBRANCH   8  27
BRANCH  10  29
ATOM     29  O   UNL     1     -38.214  44.302 -21.902  0.00  0.00    +0.000 OA
ATOM     30  H   UNL     1     -38.439  43.375 -22.104  0.00  0.00    +0.000 HD
ENDBRANCH  10  29
BRANCH  15  31
ATOM     31  O   UNL     1     -33.587  45.920 -12.997  0.00  0.00    +0.000 OA
ATOM     32  H   UNL     1     -32.808  45.327 -13.060  0.00  0.00    +0.000 HD
ENDBRANCH  15  31
BRANCH  16  33
ATOM     33  O   UNL     1     -35.786  43.883 -13.861  0.00  0.00    +0.000 OA
ATOM     34  C   UNL     1     -36.865  43.866 -14.763  0.00  0.00    +0.000 C 
ENDBRANCH  16  33
BRANCH  21  35
ATOM     35  O   UNL     1     -29.998  43.847 -17.323  0.00  0.00    +0.000 OA
BRANCH  35  37
ATOM     36  O   UNL     1     -29.506  41.619 -17.840  0.00  0.00    +0.000 OA
ATOM     37  C   UNL     1     -29.488  42.601 -17.120  0.00  0.00    +0.000 C 
ATOM     38  C   UNL     1     -28.767  42.432 -15.831  0.00  0.00    +0.000 C 
ENDBRANCH  35  37
ENDBRANCH  21  35
BRANCH   6  39
ATOM     39  C   UNL     1     -37.191  47.959 -17.859  0.00  0.00    +0.000 C 
BRANCH  39  41
ATOM     40  O   UNL     1     -36.656  48.871 -20.179  0.00  0.00    +0.000 OA
ATOM     41  C   UNL     1     -36.546  48.971 -18.740  0.00  0.00    +0.000 C 
ATOM     42  C   UNL     1     -37.520  49.712 -19.536  0.00  0.00    +0.000 C 
ATOM     43  C   UNL     1     -35.122  49.515 -18.363  0.00  0.00    +0.000 C 
BRANCH  42  44
ATOM     44  C   UNL     1     -37.427  51.108 -19.837  0.00  0.00    +0.000 C 
ATOM     45  C   UNL     1     -37.182  51.565 -21.257  0.00  0.00    +0.000 C 
BRANCH  44  46
ATOM     46  C   UNL     1     -37.999  52.072 -18.969  0.00  0.00    +0.000 C 
ATOM     47  C   UNL     1     -38.438  52.902 -18.222  0.00  0.00    +0.000 C 
ATOM     48  C   UNL     1     -38.932  53.990 -17.260  0.00  0.00    +0.000 C 
ENDBRANCH  44  46
ENDBRANCH  42  44
ENDBRANCH  39  41
BRANCH  39  49
ATOM     49  O   UNL     1     -38.245  48.264 -17.013  0.00  0.00    +0.000 OA
ATOM     50  H   UNL     1     -38.318  47.683 -16.232  0.00  0.00    +0.000 HD
ENDBRANCH  39  49
ENDBRANCH   6  39
BRANCH   8  51
ATOM     51  C   UNL     1     -38.358  43.454 -18.751  0.00  0.00    +0.000 C 
BRANCH  51  52
ATOM     52  O   UNL     1     -38.601  42.297 -18.133  0.00  0.00    +0.000 OA
ATOM     53  H   UNL     1     -37.810  41.722 -18.143  0.00  0.00    +0.000 HD
ENDBRANCH  51  52
ENDBRANCH   8  51
TORSDOF 13
ENDMDL
MODEL 6
REMARK VINA RESULT:      -5.4      3.529      9.126
REMARK  Name = 102471178_CandidaspongiolideCore.pdbqt.pdb
REMARK  13 active torsions:
REMARK  status: ('A' for Active; 'I' for Inactive)
REMARK    1  A    between atoms: C_6  and  C_39
REMARK    2  A    between atoms: C_8  and  O_27
REMARK    3  A    between atoms: C_8  and  C_51
REMARK    4  A    between atoms: C_10  and  O_29
REMARK    5  A    between atoms: C_15  and  O_31
REMARK    6  A    between atoms: C_16  and  O_33
REMARK    7  A    between atoms: C_21  and  O_35
REMARK    8  A    between atoms: O_35  and  C_37
REMARK    9  A    between atoms: C_39  and  C_41
REMARK   10  A    between atoms: C_39  and  O_49
REMARK   11  A    between atoms: C_42  and  C_44
REMARK   12  A    between atoms: C_44  and  C_46
REMARK   13  A    between atoms: C_51  and  O_52
REMARK                            x       y       z     vdW  Elec       q    Type
REMARK                         _______ _______ _______ _____ _____    ______ ____
ROOT
ATOM      1  O   UNL     1     -27.183  62.808 -30.606  0.00  0.00    +0.000 OA
ATOM      2  O   UNL     1     -28.020  62.921 -28.470  0.00  0.00    +0.000 OA
ATOM      3  O   UNL     1     -30.162  61.230 -24.348  0.00  0.00    +0.000 OA
ATOM      4  O   UNL     1     -25.194  63.844 -30.348  0.00  0.00    +0.000 OA
ATOM      5  O   UNL     1     -26.305  65.754 -27.608  0.00  0.00    +0.000 OA
ATOM      6  C   UNL     1     -28.548  61.071 -29.902  0.00  0.00    +0.000 C 
ATOM      7  C   UNL     1     -29.786  60.679 -29.321  0.00  0.00    +0.000 C 
ATOM      8  C   UNL     1     -31.104  60.222 -28.873  0.00  0.00    +0.000 C 
ATOM      9  C   UNL     1     -27.895  62.360 -29.551  0.00  0.00    +0.000 C 
ATOM     10  C   UNL     1     -31.065  59.650 -27.472  0.00  0.00    +0.000 C 
ATOM     11  C   UNL     1     -30.329  60.213 -26.395  0.00  0.00    +0.000 C 
ATOM     12  C   UNL     1     -29.563  60.860 -25.351  0.00  0.00    +0.000 C 
ATOM     13  C   UNL     1     -26.418  63.890 -30.371  0.00  0.00    +0.000 C 
ATOM     14  C   UNL     1     -28.098  61.103 -25.526  0.00  0.00    +0.000 C 
ATOM     15  C   UNL     1     -27.106  65.203 -30.454  0.00  0.00    +0.000 C 
ATOM     16  C   UNL     1     -28.364  65.514 -29.808  0.00  0.00    +0.000 C 
ATOM     17  C   UNL     1     -28.518  66.029 -28.454  0.00  0.00    +0.000 C 
ATOM     18  C   UNL     1     -27.501  62.236 -24.924  0.00  0.00    +0.000 C 
ATOM     19  C   UNL     1     -28.027  65.026 -26.146  0.00  0.00    +0.000 C 
ATOM     20  C   UNL     1     -27.267  60.355 -26.559  0.00  0.00    +0.000 C 
ATOM     21  C   UNL     1     -27.043  64.590 -25.161  0.00  0.00    +0.000 C 
ATOM     22  C   UNL     1     -27.517  65.640 -27.414  0.00  0.00    +0.000 C 
ATOM     23  C   UNL     1     -27.034  63.337 -24.419  0.00  0.00    +0.000 C 
ATOM     24  C   UNL     1     -29.473  67.179 -28.147  0.00  0.00    +0.000 C 
ATOM     25  C   UNL     1     -29.476  64.585 -25.990  0.00  0.00    +0.000 C 
ATOM     26  C   UNL     1     -26.437  63.229 -23.040  0.00  0.00    +0.000 C 
ENDROOT
BRANCH   8  27
ATOM     27  O   UNL     1     -31.481  59.182 -29.779  0.00  0.00    +0.000 OA
ATOM     28  H   UNL     1     -30.851  59.269 -30.522  0.00  0.00    +0.000 HD
ENDBRANCH   8  27
BRANCH  10  29
ATOM     29  O   UNL     1     -31.845  58.531 -27.229  0.00  0.00    +0.000 OA
ATOM     30  H   UNL     1     -32.799  58.734 -27.254  0.00  0.00    +0.000 HD
ENDBRANCH  10  29
BRANCH  15  31
ATOM     31  O   UNL     1     -26.332  66.319 -30.732  0.00  0.00    +0.000 OA
ATOM     32  H   UNL     1     -25.458  66.050 -31.087  0.00  0.00    +0.000 HD
ENDBRANCH  15  31
BRANCH  16  33
ATOM     33  O   UNL     1     -29.409  65.810 -30.666  0.00  0.00    +0.000 OA
ATOM     34  C   UNL     1     -30.271  64.701 -30.747  0.00  0.00    +0.000 C 
ENDBRANCH  16  33
BRANCH  21  35
ATOM     35  O   UNL     1     -26.105  65.586 -24.790  0.00  0.00    +0.000 OA
BRANCH  35  37
ATOM     36  O   UNL     1     -27.375  66.636 -23.129  0.00  0.00    +0.000 OA
ATOM     37  C   UNL     1     -26.674  66.630 -24.125  0.00  0.00    +0.000 C 
ATOM     38  C   UNL     1     -26.356  67.967 -24.688  0.00  0.00    +0.000 C 
ENDBRANCH  35  37
ENDBRANCH  21  35
BRANCH   6  39
ATOM     39  C   UNL     1     -27.899  60.128 -30.784  0.00  0.00    +0.000 C 
BRANCH  39  41
ATOM     40  O   UNL     1     -29.835  60.146 -32.443  0.00  0.00    +0.000 OA
ATOM     41  C   UNL     1     -28.658  59.503 -31.903  0.00  0.00    +0.000 C 
ATOM     42  C   UNL     1     -28.654  60.333 -33.104  0.00  0.00    +0.000 C 
ATOM     43  C   UNL     1     -28.864  57.946 -31.910  0.00  0.00    +0.000 C 
BRANCH  42  44
ATOM     44  C   UNL     1     -28.560  59.826 -34.439  0.00  0.00    +0.000 C 
ATOM     45  C   UNL     1     -29.790  59.756 -35.314  0.00  0.00    +0.000 C 
BRANCH  44  46
ATOM     46  C   UNL     1     -27.316  59.819 -35.121  0.00  0.00    +0.000 C 
ATOM     47  C   UNL     1     -26.251  59.853 -35.671  0.00  0.00    +0.000 C 
ATOM     48  C   UNL     1     -24.868  59.945 -36.327  0.00  0.00    +0.000 C 
ENDBRANCH  44  46
ENDBRANCH  42  44
ENDBRANCH  39  41
BRANCH  39  49
ATOM     49  O   UNL     1     -26.586  59.798 -30.492  0.00  0.00    +0.000 OA
ATOM     50  H   UNL     1     -26.279  58.964 -30.896  0.00  0.00    +0.000 HD
ENDBRANCH  39  49
ENDBRANCH   6  39
BRANCH   8  51
ATOM     51  C   UNL     1     -32.118  61.285 -28.964  0.00  0.00    +0.000 C 
BRANCH  51  52
ATOM     52  O   UNL     1     -33.059  62.228 -29.015  0.00  0.00    +0.000 OA
ATOM     53  H   UNL     1     -32.660  63.121 -29.008  0.00  0.00    +0.000 HD
ENDBRANCH  51  52
ENDBRANCH   8  51
TORSDOF 13
ENDMDL
MODEL 7
REMARK VINA RESULT:      -5.3     16.810     19.942
REMARK  Name = 102471178_CandidaspongiolideCore.pdbqt.pdb
REMARK  13 active torsions:
REMARK  status: ('A' for Active; 'I' for Inactive)
REMARK    1  A    between atoms: C_6  and  C_39
REMARK    2  A    between atoms: C_8  and  O_27
REMARK    3  A    between atoms: C_8  and  C_51
REMARK    4  A    between atoms: C_10  and  O_29
REMARK    5  A    between atoms: C_15  and  O_31
REMARK    6  A    between atoms: C_16  and  O_33
REMARK    7  A    between atoms: C_21  and  O_35
REMARK    8  A    between atoms: O_35  and  C_37
REMARK    9  A    between atoms: C_39  and  C_41
REMARK   10  A    between atoms: C_39  and  O_49
REMARK   11  A    between atoms: C_42  and  C_44
REMARK   12  A    between atoms: C_44  and  C_46
REMARK   13  A    between atoms: C_51  and  O_52
REMARK                            x       y       z     vdW  Elec       q    Type
REMARK                         _______ _______ _______ _____ _____    ______ ____
ROOT
ATOM      1  O   UNL     1     -35.172  48.032 -17.021  0.00  0.00    +0.000 OA
ATOM      2  O   UNL     1     -37.238  49.032 -16.934  0.00  0.00    +0.000 OA
ATOM      3  O   UNL     1     -41.616  50.221 -14.969  0.00  0.00    +0.000 OA
ATOM      4  O   UNL     1     -33.886  49.752 -17.719  0.00  0.00    +0.000 OA
ATOM      5  O   UNL     1     -36.560  51.369 -19.339  0.00  0.00    +0.000 OA
ATOM      6  C   UNL     1     -36.655  47.275 -15.408  0.00  0.00    +0.000 C 
ATOM      7  C   UNL     1     -37.958  46.789 -15.112  0.00  0.00    +0.000 C 
ATOM      8  C   UNL     1     -39.230  46.140 -14.783  0.00  0.00    +0.000 C 
ATOM      9  C   UNL     1     -36.412  48.224 -16.527  0.00  0.00    +0.000 C 
ATOM     10  C   UNL     1     -40.155  47.055 -14.011  0.00  0.00    +0.000 C 
ATOM     11  C   UNL     1     -40.348  48.433 -14.299  0.00  0.00    +0.000 C 
ATOM     12  C   UNL     1     -40.494  49.824 -14.671  0.00  0.00    +0.000 C 
ATOM     13  C   UNL     1     -34.768  48.931 -17.939  0.00  0.00    +0.000 C 
ATOM     14  C   UNL     1     -39.301  50.722 -14.729  0.00  0.00    +0.000 C 
ATOM     15  C   UNL     1     -35.213  48.681 -19.333  0.00  0.00    +0.000 C 
ATOM     16  C   UNL     1     -36.574  48.370 -19.719  0.00  0.00    +0.000 C 
ATOM     17  C   UNL     1     -37.607  49.345 -20.044  0.00  0.00    +0.000 C 
ATOM     18  C   UNL     1     -39.270  51.784 -15.666  0.00  0.00    +0.000 C 
ATOM     19  C   UNL     1     -38.819  51.125 -18.652  0.00  0.00    +0.000 C 
ATOM     20  C   UNL     1     -37.991  50.382 -14.033  0.00  0.00    +0.000 C 
ATOM     21  C   UNL     1     -38.768  52.398 -17.941  0.00  0.00    +0.000 C 
ATOM     22  C   UNL     1     -37.580  50.679 -19.369  0.00  0.00    +0.000 C 
ATOM     23  C   UNL     1     -39.269  52.681 -16.604  0.00  0.00    +0.000 C 
ATOM     24  C   UNL     1     -38.512  49.165 -21.258  0.00  0.00    +0.000 C 
ATOM     25  C   UNL     1     -39.988  50.182 -18.400  0.00  0.00    +0.000 C 
ATOM     26  C   UNL     1     -39.769  54.047 -16.210  0.00  0.00    +0.000 C 
ENDROOT
BRANCH   8  27
ATOM     27  O   UNL     1     -38.893  45.027 -13.952  0.00  0.00    +0.000 OA
ATOM     28  H   UNL     1     -38.079  45.310 -13.488  0.00  0.00    +0.000 HD
ENDBRANCH   8  27
BRANCH  10  29
ATOM     29  O   UNL     1     -40.896  46.482 -12.989  0.00  0.00    +0.000 OA
ATOM     30  H   UNL     1     -41.124  47.127 -12.293  0.00  0.00    +0.000 HD
ENDBRANCH  10  29
BRANCH  15  31
ATOM     31  O   UNL     1     -34.454  49.224 -20.358  0.00  0.00    +0.000 OA
ATOM     32  H   UNL     1     -33.869  49.932 -20.013  0.00  0.00    +0.000 HD
ENDBRANCH  15  31
BRANCH  16  33
ATOM     33  O   UNL     1     -36.755  47.120 -20.281  0.00  0.00    +0.000 OA
ATOM     34  C   UNL     1     -37.316  46.256 -19.323  0.00  0.00    +0.000 C 
ENDBRANCH  16  33
BRANCH  21  35
ATOM     35  O   UNL     1     -38.331  53.492 -18.730  0.00  0.00    +0.000 OA
BRANCH  35  37
ATOM     36  O   UNL     1     -40.392  54.059 -19.681  0.00  0.00    +0.000 OA
ATOM     37  C   UNL     1     -39.201  53.808 -19.729  0.00  0.00    +0.000 C 
ATOM     38  C   UNL     1     -38.587  53.891 -21.079  0.00  0.00    +0.000 C 
ENDBRANCH  35  37
ENDBRANCH  21  35
BRANCH   6  39
ATOM     39  C   UNL     1     -35.581  46.882 -14.525  0.00  0.00    +0.000 C 
BRANCH  39  41
ATOM     40  O   UNL     1     -36.091  44.401 -14.822  0.00  0.00    +0.000 OA
ATOM     41  C   UNL     1     -35.460  45.467 -14.075  0.00  0.00    +0.000 C 
ATOM     42  C   UNL     1     -34.765  44.635 -15.053  0.00  0.00    +0.000 C 
ATOM     43  C   UNL     1     -35.536  45.144 -12.540  0.00  0.00    +0.000 C 
BRANCH  42  44
ATOM     44  C   UNL     1     -33.845  43.590 -14.719  0.00  0.00    +0.000 C 
ATOM     45  C   UNL     1     -34.355  42.211 -14.369  0.00  0.00    +0.000 C 
BRANCH  44  46
ATOM     46  C   UNL     1     -32.493  43.659 -15.141  0.00  0.00    +0.000 C 
ATOM     47  C   UNL     1     -31.364  43.712 -15.543  0.00  0.00    +0.000 C 
ATOM     48  C   UNL     1     -29.947  43.785 -16.126  0.00  0.00    +0.000 C 
ENDBRANCH  44  46
ENDBRANCH  42  44
ENDBRANCH  39  41
BRANCH  39  49
ATOM     49  O   UNL     1     -34.737  47.885 -14.078  0.00  0.00    +0.000 OA
ATOM     50  H   UNL     1     -33.898  47.566 -13.694  0.00  0.00    +0.000 HD
ENDBRANCH  39  49
ENDBRANCH   6  39
BRANCH   8  51
ATOM     51  C   UNL     1     -39.909  45.616 -15.980  0.00  0.00    +0.000 C 
BRANCH  51  52
ATOM     52  O   UNL     1     -40.517  45.101 -17.048  0.00  0.00    +0.000 OA
ATOM     53  H   UNL     1     -41.471  45.316 -17.046  0.00  0.00    +0.000 HD
ENDBRANCH  51  52
ENDBRANCH   8  51
TORSDOF 13
ENDMDL
MODEL 8
REMARK VINA RESULT:      -5.3     14.530     19.534
REMARK  Name = 102471178_CandidaspongiolideCore.pdbqt.pdb
REMARK  13 active torsions:
REMARK  status: ('A' for Active; 'I' for Inactive)
REMARK    1  A    between atoms: C_6  and  C_39
REMARK    2  A    between atoms: C_8  and  O_27
REMARK    3  A    between atoms: C_8  and  C_51
REMARK    4  A    between atoms: C_10  and  O_29
REMARK    5  A    between atoms: C_15  and  O_31
REMARK    6  A    between atoms: C_16  and  O_33
REMARK    7  A    between atoms: C_21  and  O_35
REMARK    8  A    between atoms: O_35  and  C_37
REMARK    9  A    between atoms: C_39  and  C_41
REMARK   10  A    between atoms: C_39  and  O_49
REMARK   11  A    between atoms: C_42  and  C_44
REMARK   12  A    between atoms: C_44  and  C_46
REMARK   13  A    between atoms: C_51  and  O_52
REMARK                            x       y       z     vdW  Elec       q    Type
REMARK                         _______ _______ _______ _____ _____    ______ ____
ROOT
ATOM      1  O   UNL     1     -34.605  64.282  -7.087  0.00  0.00    +0.000 OA
ATOM      2  O   UNL     1     -36.806  63.688  -7.373  0.00  0.00    +0.000 OA
ATOM      3  O   UNL     1     -41.554  64.340  -8.585  0.00  0.00    +0.000 OA
ATOM      4  O   UNL     1     -33.554  62.536  -8.060  0.00  0.00    +0.000 OA
ATOM      5  O   UNL     1     -36.216  60.318  -7.443  0.00  0.00    +0.000 OA
ATOM      6  C   UNL     1     -36.144  65.993  -7.366  0.00  0.00    +0.000 C 
ATOM      7  C   UNL     1     -37.372  66.581  -6.952  0.00  0.00    +0.000 C 
ATOM      8  C   UNL     1     -38.545  67.306  -6.457  0.00  0.00    +0.000 C 
ATOM      9  C   UNL     1     -35.917  64.526  -7.288  0.00  0.00    +0.000 C 
ATOM     10  C   UNL     1     -39.714  67.224  -7.415  0.00  0.00    +0.000 C 
ATOM     11  C   UNL     1     -40.101  66.048  -8.112  0.00  0.00    +0.000 C 
ATOM     12  C   UNL     1     -40.433  64.802  -8.770  0.00  0.00    +0.000 C 
ATOM     13  C   UNL     1     -34.241  62.988  -7.151  0.00  0.00    +0.000 C 
ATOM     14  C   UNL     1     -39.418  64.093  -9.606  0.00  0.00    +0.000 C 
ATOM     15  C   UNL     1     -34.436  62.196  -5.911  0.00  0.00    +0.000 C 
ATOM     16  C   UNL     1     -35.655  62.180  -5.129  0.00  0.00    +0.000 C 
ATOM     17  C   UNL     1     -36.786  61.286  -5.339  0.00  0.00    +0.000 C 
ATOM     18  C   UNL     1     -39.442  62.679  -9.685  0.00  0.00    +0.000 C 
ATOM     19  C   UNL     1     -38.471  61.034  -7.255  0.00  0.00    +0.000 C 
ATOM     20  C   UNL     1     -38.178  64.790 -10.149  0.00  0.00    +0.000 C 
ATOM     21  C   UNL     1     -38.742  60.629  -8.630  0.00  0.00    +0.000 C 
ATOM     22  C   UNL     1     -37.087  60.814  -6.725  0.00  0.00    +0.000 C 
ATOM     23  C   UNL     1     -39.466  61.382  -9.645  0.00  0.00    +0.000 C 
ATOM     24  C   UNL     1     -37.469  60.583  -4.169  0.00  0.00    +0.000 C 
ATOM     25  C   UNL     1     -39.482  61.911  -6.529  0.00  0.00    +0.000 C 
ATOM     26  C   UNL     1     -40.246  60.702 -10.740  0.00  0.00    +0.000 C 
ENDROOT
BRANCH   8  27
ATOM     27  O   UNL     1     -38.138  68.673  -6.351  0.00  0.00    +0.000 OA
ATOM     28  H   UNL     1     -38.216  68.874  -5.397  0.00  0.00    +0.000 HD
ENDBRANCH   8  27
BRANCH  10  29
ATOM     29  O   UNL     1     -40.478  68.369  -7.572  0.00  0.00    +0.000 OA
ATOM     30  H   UNL     1     -39.941  69.137  -7.843  0.00  0.00    +0.000 HD
ENDBRANCH  10  29
BRANCH  15  31
ATOM     31  O   UNL     1     -33.648  61.069  -5.735  0.00  0.00    +0.000 OA
ATOM     32  H   UNL     1     -32.780  61.315  -5.350  0.00  0.00    +0.000 HD
ENDBRANCH  15  31
BRANCH  16  33
ATOM     33  O   UNL     1     -35.537  62.677  -3.843  0.00  0.00    +0.000 OA
ATOM     34  C   UNL     1     -36.079  63.974  -3.795  0.00  0.00    +0.000 C 
ENDBRANCH  16  33
BRANCH  21  35
ATOM     35  O   UNL     1     -38.397  59.286  -8.924  0.00  0.00    +0.000 OA
BRANCH  35  37
ATOM     36  O   UNL     1     -39.262  58.146  -7.073  0.00  0.00    +0.000 OA
ATOM     37  C   UNL     1     -39.172  58.381  -8.265  0.00  0.00    +0.000 C 
ATOM     38  C   UNL     1     -40.073  57.587  -9.139  0.00  0.00    +0.000 C 
ENDBRANCH  35  37
ENDBRANCH  21  35
BRANCH   6  39
ATOM     39  C   UNL     1     -35.152  66.866  -7.951  0.00  0.00    +0.000 C 
BRANCH  39  41
ATOM     40  O   UNL     1     -33.740  67.346 -10.019  0.00  0.00    +0.000 OA
ATOM     41  C   UNL     1     -34.998  66.941  -9.431  0.00  0.00    +0.000 C 
ATOM     42  C   UNL     1     -33.992  66.006  -9.928  0.00  0.00    +0.000 C 
ATOM     43  C   UNL     1     -36.184  67.499 -10.296  0.00  0.00    +0.000 C 
BRANCH  42  44
ATOM     44  C   UNL     1     -34.103  65.272 -11.151  0.00  0.00    +0.000 C 
ATOM     45  C   UNL     1     -33.143  65.539 -12.288  0.00  0.00    +0.000 C 
BRANCH  44  46
ATOM     46  C   UNL     1     -34.758  64.015 -11.180  0.00  0.00    +0.000 C 
ATOM     47  C   UNL     1     -35.315  62.953 -11.155  0.00  0.00    +0.000 C 
ATOM     48  C   UNL     1     -36.041  61.605 -11.054  0.00  0.00    +0.000 C 
ENDBRANCH  44  46
ENDBRANCH  42  44
ENDBRANCH  39  41
BRANCH  39  49
ATOM     49  O   UNL     1     -34.331  67.557  -7.075  0.00  0.00    +0.000 OA
ATOM     50  H   UNL     1     -34.689  67.648  -6.172  0.00  0.00    +0.000 HD
ENDBRANCH  39  49
ENDBRANCH   6  39
BRANCH   8  51
ATOM     51  C   UNL     1     -38.949  66.854  -5.116  0.00  0.00    +0.000 C 
BRANCH  51  52
ATOM     52  O   UNL     1     -39.284  66.412  -3.903  0.00  0.00    +0.000 OA
ATOM     53  H   UNL     1     -39.812  67.080  -3.421  0.00  0.00    +0.000 HD
ENDBRANCH  51  52
ENDBRANCH   8  51
TORSDOF 13
ENDMDL
MODEL 9
REMARK VINA RESULT:      -5.3     14.799     18.414
REMARK  Name = 102471178_CandidaspongiolideCore.pdbqt.pdb
REMARK  13 active torsions:
REMARK  status: ('A' for Active; 'I' for Inactive)
REMARK    1  A    between atoms: C_6  and  C_39
REMARK    2  A    between atoms: C_8  and  O_27
REMARK    3  A    between atoms: C_8  and  C_51
REMARK    4  A    between atoms: C_10  and  O_29
REMARK    5  A    between atoms: C_15  and  O_31
REMARK    6  A    between atoms: C_16  and  O_33
REMARK    7  A    between atoms: C_21  and  O_35
REMARK    8  A    between atoms: O_35  and  C_37
REMARK    9  A    between atoms: C_39  and  C_41
REMARK   10  A    between atoms: C_39  and  O_49
REMARK   11  A    between atoms: C_42  and  C_44
REMARK   12  A    between atoms: C_44  and  C_46
REMARK   13  A    between atoms: C_51  and  O_52
REMARK                            x       y       z     vdW  Elec       q    Type
REMARK                         _______ _______ _______ _____ _____    ______ ____
ROOT
ATOM      1  O   UNL     1     -32.595  64.365  -7.470  0.00  0.00    +0.000 OA
ATOM      2  O   UNL     1     -34.767  64.123  -8.177  0.00  0.00    +0.000 OA
ATOM      3  O   UNL     1     -38.646  64.718 -11.183  0.00  0.00    +0.000 OA
ATOM      4  O   UNL     1     -32.083  62.240  -6.904  0.00  0.00    +0.000 OA
ATOM      5  O   UNL     1     -35.431  61.391  -6.227  0.00  0.00    +0.000 OA
ATOM      6  C   UNL     1     -33.332  65.778  -9.153  0.00  0.00    +0.000 C 
ATOM      7  C   UNL     1     -34.319  66.702  -9.596  0.00  0.00    +0.000 C 
ATOM      8  C   UNL     1     -35.221  67.772 -10.031  0.00  0.00    +0.000 C 
ATOM      9  C   UNL     1     -33.668  64.661  -8.232  0.00  0.00    +0.000 C 
ATOM     10  C   UNL     1     -36.141  67.325 -11.147  0.00  0.00    +0.000 C 
ATOM     11  C   UNL     1     -36.789  66.062 -11.197  0.00  0.00    +0.000 C 
ATOM     12  C   UNL     1     -37.421  64.760 -11.161  0.00  0.00    +0.000 C 
ATOM     13  C   UNL     1     -32.716  63.269  -6.699  0.00  0.00    +0.000 C 
ATOM     14  C   UNL     1     -36.593  63.520 -11.054  0.00  0.00    +0.000 C 
ATOM     15  C   UNL     1     -33.412  63.460  -5.402  0.00  0.00    +0.000 C 
ATOM     16  C   UNL     1     -34.677  64.147  -5.240  0.00  0.00    +0.000 C 
ATOM     17  C   UNL     1     -35.994  63.532  -5.339  0.00  0.00    +0.000 C 
ATOM     18  C   UNL     1     -37.111  62.391 -10.373  0.00  0.00    +0.000 C 
ATOM     19  C   UNL     1     -37.269  62.456  -7.286  0.00  0.00    +0.000 C 
ATOM     20  C   UNL     1     -35.108  63.500 -11.386  0.00  0.00    +0.000 C 
ATOM     21  C   UNL     1     -37.407  61.345  -8.222  0.00  0.00    +0.000 C 
ATOM     22  C   UNL     1     -36.181  62.368  -6.259  0.00  0.00    +0.000 C 
ATOM     23  C   UNL     1     -37.608  61.426  -9.662  0.00  0.00    +0.000 C 
ATOM     24  C   UNL     1     -37.089  63.835  -4.321  0.00  0.00    +0.000 C 
ATOM     25  C   UNL     1     -38.011  63.755  -7.565  0.00  0.00    +0.000 C 
ATOM     26  C   UNL     1     -38.363  60.367 -10.424  0.00  0.00    +0.000 C 
ENDROOT
BRANCH   8  27
ATOM     27  O   UNL     1     -34.376  68.813 -10.526  0.00  0.00    +0.000 OA
ATOM     28  H   UNL     1     -33.751  68.354 -11.123  0.00  0.00    +0.000 HD
ENDBRANCH   8  27
BRANCH  10  29
ATOM     29  O   UNL     1     -36.397  68.242 -12.154  0.00  0.00    +0.000 OA
ATOM     30  H   UNL     1     -36.542  67.812 -13.017  0.00  0.00    +0.000 HD
ENDBRANCH  10  29
BRANCH  15  31
ATOM     31  O   UNL     1     -33.131  62.565  -4.381  0.00  0.00    +0.000 OA
ATOM     32  H   UNL     1     -33.929  62.407  -3.834  0.00  0.00    +0.000 HD
ENDBRANCH  15  31
BRANCH  16  33
ATOM     33  O   UNL     1     -34.628  65.299  -4.477  0.00  0.00    +0.000 OA
ATOM     34  C   UNL     1     -34.636  66.420  -5.327  0.00  0.00    +0.000 C 
ENDBRANCH  16  33
BRANCH  21  35
ATOM     35  O   UNL     1     -37.521  60.072  -7.608  0.00  0.00    +0.000 OA
BRANCH  35  37
ATOM     36  O   UNL     1     -39.824  60.111  -7.199  0.00  0.00    +0.000 OA
ATOM     37  C   UNL     1     -38.662  59.935  -6.878  0.00  0.00    +0.000 C 
ATOM     38  C   UNL     1     -38.451  59.462  -5.485  0.00  0.00    +0.000 C 
ENDBRANCH  35  37
ENDBRANCH  21  35
BRANCH   6  39
ATOM     39  C   UNL     1     -32.002  65.912  -9.702  0.00  0.00    +0.000 C 
BRANCH  39  41
ATOM     40  O   UNL     1     -31.487  68.082  -8.465  0.00  0.00    +0.000 OA
ATOM     41  C   UNL     1     -31.274  67.207  -9.597  0.00  0.00    +0.000 C 
ATOM     42  C   UNL     1     -30.399  67.256  -8.429  0.00  0.00    +0.000 C 
ATOM     43  C   UNL     1     -31.063  68.071 -10.891  0.00  0.00    +0.000 C 
BRANCH  42  44
ATOM     44  C   UNL     1     -29.106  67.871  -8.410  0.00  0.00    +0.000 C 
ATOM     45  C   UNL     1     -28.966  69.332  -8.052  0.00  0.00    +0.000 C 
BRANCH  44  46
ATOM     46  C   UNL     1     -27.936  67.084  -8.263  0.00  0.00    +0.000 C 
ATOM     47  C   UNL     1     -26.953  66.420  -8.090  0.00  0.00    +0.000 C 
ATOM     48  C   UNL     1     -25.713  65.564  -7.799  0.00  0.00    +0.000 C 
ENDBRANCH  44  46
ENDBRANCH  42  44
ENDBRANCH  39  41
BRANCH  39  49
ATOM     49  O   UNL     1     -31.487  64.814 -10.372  0.00  0.00    +0.000 OA
ATOM     50  H   UNL     1     -31.093  65.021 -11.242  0.00  0.00    +0.000 HD
ENDBRANCH  39  49
ENDBRANCH   6  39
BRANCH   8  51
ATOM     51  C   UNL     1     -36.003  68.323  -8.912  0.00  0.00    +0.000 C 
BRANCH  51  52
ATOM     52  O   UNL     1     -36.730  68.783  -7.893  0.00  0.00    +0.000 OA
ATOM     53  H   UNL     1     -36.215  69.416  -7.354  0.00  0.00    +0.000 HD
ENDBRANCH  51  52
ENDBRANCH   8  51
TORSDOF 13
ENDMDL
