MODEL 1
REMARK VINA RESULT:      -4.4      0.000      0.000
REMARK  Name = 10281_Thymoquinone.pdbqt.pdb
REMARK  1 active torsions:
REMARK  status: ('A' for Active; 'I' for Inactive)
REMARK    1  A    between atoms: C_3  and  C_10
REMARK                            x       y       z     vdW  Elec       q    Type
REMARK                         _______ _______ _______ _____ _____    ______ ____
ROOT
ATOM      1  O   UNL     1     -36.924  44.529  -7.274  0.00  0.00    +0.000 OA
ATOM      2  O   UNL     1     -32.138  46.985  -7.331  0.00  0.00    +0.000 OA
ATOM      3  C   UNL     1     -35.578  46.310  -8.207  0.00  0.00    +0.000 C 
ATOM      4  C   UNL     1     -35.866  45.125  -7.331  0.00  0.00    +0.000 C 
ATOM      5  C   UNL     1     -34.348  46.729  -8.044  0.00  0.00    +0.000 C 
ATOM      6  C   UNL     1     -33.488  45.153  -6.357  0.00  0.00    +0.000 C 
ATOM      7  C   UNL     1     -33.178  46.362  -7.243  0.00  0.00    +0.000 C 
ATOM      8  C   UNL     1     -34.715  44.739  -6.525  0.00  0.00    +0.000 C 
ATOM      9  C   UNL     1     -32.545  44.489  -5.406  0.00  0.00    +0.000 C 
ENDROOT
BRANCH   3  10
ATOM     10  C   UNL     1     -36.583  46.838  -9.069  0.00  0.00    +0.000 C 
ATOM     11  C   UNL     1     -37.402  48.035  -8.649  0.00  0.00    +0.000 C 
ATOM     12  C   UNL     1     -36.579  46.514 -10.542  0.00  0.00    +0.000 C 
ENDBRANCH   3  10
TORSDOF 1
ENDMDL
MODEL 2
REMARK VINA RESULT:      -4.2      1.596      2.374
REMARK  Name = 10281_Thymoquinone.pdbqt.pdb
REMARK  1 active torsions:
REMARK  status: ('A' for Active; 'I' for Inactive)
REMARK    1  A    between atoms: C_3  and  C_10
REMARK                            x       y       z     vdW  Elec       q    Type
REMARK                         _______ _______ _______ _____ _____    ______ ____
ROOT
ATOM      1  O   UNL     1     -33.566  45.366 -10.064  0.00  0.00    +0.000 OA
ATOM      2  O   UNL     1     -35.172  45.802  -4.948  0.00  0.00    +0.000 OA
ATOM      3  C   UNL     1     -35.300  46.104  -8.547  0.00  0.00    +0.000 C 
ATOM      4  C   UNL     1     -33.983  45.492  -8.930  0.00  0.00    +0.000 C 
ATOM      5  C   UNL     1     -35.464  46.096  -7.248  0.00  0.00    +0.000 C 
ATOM      6  C   UNL     1     -33.379  45.036  -6.473  0.00  0.00    +0.000 C 
ATOM      7  C   UNL     1     -34.719  45.657  -6.067  0.00  0.00    +0.000 C 
ATOM      8  C   UNL     1     -33.221  45.047  -7.769  0.00  0.00    +0.000 C 
ATOM      9  C   UNL     1     -32.346  44.478  -5.549  0.00  0.00    +0.000 C 
ENDROOT
BRANCH   3  10
ATOM     10  C   UNL     1     -36.189  46.597  -9.546  0.00  0.00    +0.000 C 
ATOM     11  C   UNL     1     -36.343  45.873 -10.862  0.00  0.00    +0.000 C 
ATOM     12  C   UNL     1     -37.287  47.567  -9.185  0.00  0.00    +0.000 C 
ENDBRANCH   3  10
TORSDOF 1
ENDMDL
MODEL 3
REMARK VINA RESULT:      -4.1      8.055      9.924
REMARK  Name = 10281_Thymoquinone.pdbqt.pdb
REMARK  1 active torsions:
REMARK  status: ('A' for Active; 'I' for Inactive)
REMARK    1  A    between atoms: C_3  and  C_10
REMARK                            x       y       z     vdW  Elec       q    Type
REMARK                         _______ _______ _______ _____ _____    ______ ____
ROOT
ATOM      1  O   UNL     1     -32.156  45.706 -18.426  0.00  0.00    +0.000 OA
ATOM      2  O   UNL     1     -34.877  48.217 -14.523  0.00  0.00    +0.000 OA
ATOM      3  C   UNL     1     -32.764  45.736 -16.085  0.00  0.00    +0.000 C 
ATOM      4  C   UNL     1     -32.750  46.228 -17.503  0.00  0.00    +0.000 C 
ATOM      5  C   UNL     1     -33.493  46.512 -15.323  0.00  0.00    +0.000 C 
ATOM      6  C   UNL     1     -34.275  48.215 -16.924  0.00  0.00    +0.000 C 
ATOM      7  C   UNL     1     -34.298  47.726 -15.473  0.00  0.00    +0.000 C 
ATOM      8  C   UNL     1     -33.546  47.437 -17.677  0.00  0.00    +0.000 C 
ATOM      9  C   UNL     1     -34.977  49.418 -17.463  0.00  0.00    +0.000 C 
ENDROOT
BRANCH   3  10
ATOM     10  C   UNL     1     -32.039  44.566 -15.715  0.00  0.00    +0.000 C 
ATOM     11  C   UNL     1     -32.675  43.201 -15.828  0.00  0.00    +0.000 C 
ATOM     12  C   UNL     1     -30.534  44.596 -15.611  0.00  0.00    +0.000 C 
ENDBRANCH   3  10
TORSDOF 1
ENDMDL
MODEL 4
REMARK VINA RESULT:      -4.1     25.974     27.030
REMARK  Name = 10281_Thymoquinone.pdbqt.pdb
REMARK  1 active torsions:
REMARK  status: ('A' for Active; 'I' for Inactive)
REMARK    1  A    between atoms: C_3  and  C_10
REMARK                            x       y       z     vdW  Elec       q    Type
REMARK                         _______ _______ _______ _____ _____    ______ ____
ROOT
ATOM      1  O   UNL     1     -16.833  55.064 -26.878  0.00  0.00    +0.000 OA
ATOM      2  O   UNL     1     -15.111  52.707 -22.359  0.00  0.00    +0.000 OA
ATOM      3  C   UNL     1     -16.045  53.029 -25.835  0.00  0.00    +0.000 C 
ATOM      4  C   UNL     1     -16.438  54.477 -25.890  0.00  0.00    +0.000 C 
ATOM      5  C   UNL     1     -15.661  52.689 -24.630  0.00  0.00    +0.000 C 
ATOM      6  C   UNL     1     -15.915  54.806 -23.395  0.00  0.00    +0.000 C 
ATOM      7  C   UNL     1     -15.510  53.332 -23.323  0.00  0.00    +0.000 C 
ATOM      8  C   UNL     1     -16.297  55.138 -24.599  0.00  0.00    +0.000 C 
ATOM      9  C   UNL     1     -15.899  55.784 -22.266  0.00  0.00    +0.000 C 
ENDROOT
BRANCH   3  10
ATOM     10  C   UNL     1     -16.112  52.213 -27.002  0.00  0.00    +0.000 C 
ATOM     11  C   UNL     1     -17.426  51.622 -27.452  0.00  0.00    +0.000 C 
ATOM     12  C   UNL     1     -15.011  52.258 -28.034  0.00  0.00    +0.000 C 
ENDBRANCH   3  10
TORSDOF 1
ENDMDL
MODEL 5
REMARK VINA RESULT:      -4.0      7.932      9.304
REMARK  Name = 10281_Thymoquinone.pdbqt.pdb
REMARK  1 active torsions:
REMARK  status: ('A' for Active; 'I' for Inactive)
REMARK    1  A    between atoms: C_3  and  C_10
REMARK                            x       y       z     vdW  Elec       q    Type
REMARK                         _______ _______ _______ _____ _____    ______ ____
ROOT
ATOM      1  O   UNL     1     -35.083  48.292 -14.568  0.00  0.00    +0.000 OA
ATOM      2  O   UNL     1     -32.138  45.668 -18.227  0.00  0.00    +0.000 OA
ATOM      3  C   UNL     1     -34.484  48.077 -16.902  0.00  0.00    +0.000 C 
ATOM      4  C   UNL     1     -34.444  47.738 -15.440  0.00  0.00    +0.000 C 
ATOM      5  C   UNL     1     -33.683  47.302 -17.589  0.00  0.00    +0.000 C 
ATOM      6  C   UNL     1     -32.730  45.862 -15.831  0.00  0.00    +0.000 C 
ATOM      7  C   UNL     1     -32.760  46.196 -17.325  0.00  0.00    +0.000 C 
ATOM      8  C   UNL     1     -33.531  46.638 -15.152  0.00  0.00    +0.000 C 
ATOM      9  C   UNL     1     -31.912  44.794 -15.180  0.00  0.00    +0.000 C 
ENDROOT
BRANCH   3  10
ATOM     10  C   UNL     1     -35.317  49.130 -17.380  0.00  0.00    +0.000 C 
ATOM     11  C   UNL     1     -34.748  50.225 -18.249  0.00  0.00    +0.000 C 
ATOM     12  C   UNL     1     -36.818  48.972 -17.401  0.00  0.00    +0.000 C 
ENDBRANCH   3  10
TORSDOF 1
ENDMDL
MODEL 6
REMARK VINA RESULT:      -4.0     20.056     21.468
REMARK  Name = 10281_Thymoquinone.pdbqt.pdb
REMARK  1 active torsions:
REMARK  status: ('A' for Active; 'I' for Inactive)
REMARK    1  A    between atoms: C_3  and  C_10
REMARK                            x       y       z     vdW  Elec       q    Type
REMARK                         _______ _______ _______ _____ _____    ______ ____
ROOT
ATOM      1  O   UNL     1     -12.938  47.229  -7.492  0.00  0.00    +0.000 OA
ATOM      2  O   UNL     1     -14.466  45.873  -2.515  0.00  0.00    +0.000 OA
ATOM      3  C   UNL     1     -14.055  47.924  -5.462  0.00  0.00    +0.000 C 
ATOM      4  C   UNL     1     -13.309  46.982  -6.362  0.00  0.00    +0.000 C 
ATOM      5  C   UNL     1     -14.315  47.367  -4.306  0.00  0.00    +0.000 C 
ATOM      6  C   UNL     1     -13.316  45.131  -4.577  0.00  0.00    +0.000 C 
ATOM      7  C   UNL     1     -14.078  46.080  -3.649  0.00  0.00    +0.000 C 
ATOM      8  C   UNL     1     -13.060  45.692  -5.728  0.00  0.00    +0.000 C 
ATOM      9  C   UNL     1     -12.892  43.734  -4.260  0.00  0.00    +0.000 C 
ENDROOT
BRANCH   3  10
ATOM     10  C   UNL     1     -14.395  49.236  -5.906  0.00  0.00    +0.000 C 
ATOM     11  C   UNL     1     -15.750  49.824  -5.596  0.00  0.00    +0.000 C 
ATOM     12  C   UNL     1     -13.317  50.213  -6.307  0.00  0.00    +0.000 C 
ENDBRANCH   3  10
TORSDOF 1
ENDMDL
MODEL 7
REMARK VINA RESULT:      -4.0     25.661     26.674
REMARK  Name = 10281_Thymoquinone.pdbqt.pdb
REMARK  1 active torsions:
REMARK  status: ('A' for Active; 'I' for Inactive)
REMARK    1  A    between atoms: C_3  and  C_10
REMARK                            x       y       z     vdW  Elec       q    Type
REMARK                         _______ _______ _______ _____ _____    ______ ____
ROOT
ATOM      1  O   UNL     1     -14.831  51.712 -22.801  0.00  0.00    +0.000 OA
ATOM      2  O   UNL     1     -16.739  56.366 -24.711  0.00  0.00    +0.000 OA
ATOM      3  C   UNL     1     -15.569  52.946 -24.746  0.00  0.00    +0.000 C 
ATOM      4  C   UNL     1     -15.262  52.737 -23.291  0.00  0.00    +0.000 C 
ATOM      5  C   UNL     1     -16.021  54.156 -24.963  0.00  0.00    +0.000 C 
ATOM      6  C   UNL     1     -15.988  55.131 -22.701  0.00  0.00    +0.000 C 
ATOM      7  C   UNL     1     -16.308  55.360 -24.181  0.00  0.00    +0.000 C 
ATOM      8  C   UNL     1     -15.539  53.924 -22.491  0.00  0.00    +0.000 C 
ATOM      9  C   UNL     1     -16.148  56.126 -21.597  0.00  0.00    +0.000 C 
ENDROOT
BRANCH   3  10
ATOM     10  C   UNL     1     -15.366  51.898 -25.690  0.00  0.00    +0.000 C 
ATOM     11  C   UNL     1     -16.527  51.334 -26.472  0.00  0.00    +0.000 C 
ATOM     12  C   UNL     1     -13.990  51.615 -26.239  0.00  0.00    +0.000 C 
ENDBRANCH   3  10
TORSDOF 1
ENDMDL
MODEL 8
REMARK VINA RESULT:      -4.0     20.813     22.327
REMARK  Name = 10281_Thymoquinone.pdbqt.pdb
REMARK  1 active torsions:
REMARK  status: ('A' for Active; 'I' for Inactive)
REMARK    1  A    between atoms: C_3  and  C_10
REMARK                            x       y       z     vdW  Elec       q    Type
REMARK                         _______ _______ _______ _____ _____    ______ ____
ROOT
ATOM      1  O   UNL     1     -15.580  48.094   4.868  0.00  0.00    +0.000 OA
ATOM      2  O   UNL     1     -18.186  52.754   4.210  0.00  0.00    +0.000 OA
ATOM      3  C   UNL     1     -16.476  49.704   3.300  0.00  0.00    +0.000 C 
ATOM      4  C   UNL     1     -16.163  49.139   4.655  0.00  0.00    +0.000 C 
ATOM      5  C   UNL     1     -17.114  50.843   3.399  0.00  0.00    +0.000 C 
ATOM      6  C   UNL     1     -17.279  51.128   5.841  0.00  0.00    +0.000 C 
ATOM      7  C   UNL     1     -17.606  51.717   4.466  0.00  0.00    +0.000 C 
ATOM      8  C   UNL     1     -16.643  49.993   5.735  0.00  0.00    +0.000 C 
ATOM      9  C   UNL     1     -17.618  51.732   7.165  0.00  0.00    +0.000 C 
ENDROOT
BRANCH   3  10
ATOM     10  C   UNL     1     -16.089  49.009   2.117  0.00  0.00    +0.000 C 
ATOM     11  C   UNL     1     -14.723  49.225   1.512  0.00  0.00    +0.000 C 
ATOM     12  C   UNL     1     -16.824  47.765   1.682  0.00  0.00    +0.000 C 
ENDBRANCH   3  10
TORSDOF 1
ENDMDL
MODEL 9
REMARK VINA RESULT:      -4.0     20.709     21.913
REMARK  Name = 10281_Thymoquinone.pdbqt.pdb
REMARK  1 active torsions:
REMARK  status: ('A' for Active; 'I' for Inactive)
REMARK    1  A    between atoms: C_3  and  C_10
REMARK                            x       y       z     vdW  Elec       q    Type
REMARK                         _______ _______ _______ _____ _____    ______ ____
ROOT
ATOM      1  O   UNL     1     -15.379  47.525   4.623  0.00  0.00    +0.000 OA
ATOM      2  O   UNL     1     -17.664  51.447   1.736  0.00  0.00    +0.000 OA
ATOM      3  C   UNL     1     -16.002  48.312   2.423  0.00  0.00    +0.000 C 
ATOM      4  C   UNL     1     -15.883  48.376   3.918  0.00  0.00    +0.000 C 
ATOM      5  C   UNL     1     -16.593  49.381   1.950  0.00  0.00    +0.000 C 
ATOM      6  C   UNL     1     -17.040  50.670   4.002  0.00  0.00    +0.000 C 
ATOM      7  C   UNL     1     -17.169  50.620   2.477  0.00  0.00    +0.000 C 
ATOM      8  C   UNL     1     -16.450  49.603   4.466  0.00  0.00    +0.000 C 
ATOM      9  C   UNL     1     -17.508  51.775   4.893  0.00  0.00    +0.000 C 
ENDROOT
BRANCH   3  10
ATOM     10  C   UNL     1     -15.507  47.186   1.702  0.00  0.00    +0.000 C 
ATOM     11  C   UNL     1     -16.426  46.046   1.334  0.00  0.00    +0.000 C 
ATOM     12  C   UNL     1     -14.211  47.276   0.934  0.00  0.00    +0.000 C 
ENDBRANCH   3  10
TORSDOF 1
ENDMDL
