MODEL 1
REMARK VINA RESULT:      -6.1      0.000      0.000
REMARK  Name = 10288191_Binimetinib.pdbqt.pdb
REMARK  6 active torsions:
REMARK  status: ('A' for Active; 'I' for Inactive)
REMARK    1  A    between atoms: C_6  and  N_21
REMARK    2  A    between atoms: C_7  and  C_14
REMARK    3  A    between atoms: N_13  and  O_16
REMARK    4  A    between atoms: O_16  and  C_17
REMARK    5  A    between atoms: C_18  and  O_19
REMARK    6  A    between atoms: N_21  and  C_25
REMARK                            x       y       z     vdW  Elec       q    Type
REMARK                         _______ _______ _______ _____ _____    ______ ____
ROOT
ATOM      1  F   UNL     1     -32.025  45.662 -17.193  0.00  0.00    +0.000 F 
ATOM      2  N   UNL     1     -35.220  48.307 -15.397  0.00  0.00    +0.000 N 
ATOM      3  N   UNL     1     -33.959  47.883 -17.158  0.00  0.00    +0.000 NA
ATOM      4  C   UNL     1     -34.495  47.207 -15.040  0.00  0.00    +0.000 A 
ATOM      5  C   UNL     1     -33.712  46.955 -16.163  0.00  0.00    +0.000 A 
ATOM      6  C   UNL     1     -32.730  45.028 -14.995  0.00  0.00    +0.000 A 
ATOM      7  C   UNL     1     -33.541  45.338 -13.871  0.00  0.00    +0.000 A 
ATOM      8  C   UNL     1     -34.429  46.429 -13.884  0.00  0.00    +0.000 A 
ATOM      9  C   UNL     1     -32.825  45.861 -16.134  0.00  0.00    +0.000 A 
ATOM     10  C   UNL     1     -34.880  48.686 -16.661  0.00  0.00    +0.000 A 
ATOM     11  C   UNL     1     -36.199  48.953 -14.587  0.00  0.00    +0.000 C 
ENDROOT
BRANCH   7  14
ATOM     12  O   UNL     1     -33.865  43.372 -12.606  0.00  0.00    +0.000 OA
ATOM     13  N   UNL     1     -32.931  45.169 -11.506  0.00  0.00    +0.000 N 
ATOM     14  C   UNL     1     -33.462  44.533 -12.610  0.00  0.00    +0.000 C 
ATOM     15  H   UNL     1     -32.943  46.176 -11.412  0.00  0.00    +0.000 HD
BRANCH  13  16
ATOM     16  O   UNL     1     -33.140  44.476 -10.293  0.00  0.00    +0.000 OA
BRANCH  16  17
ATOM     17  C   UNL     1     -33.800  45.312  -9.495  0.00  0.00    +0.000 C 
ATOM     18  C   UNL     1     -34.549  46.283  -8.576  0.00  0.00    +0.000 C 
BRANCH  18  19
ATOM     19  O   UNL     1     -35.192  47.131  -7.781  0.00  0.00    +0.000 OA
ATOM     20  H   UNL     1     -35.311  46.739  -6.899  0.00  0.00    +0.000 HD
ENDBRANCH  18  19
ENDBRANCH  16  17
ENDBRANCH  13  16
ENDBRANCH   7  14
BRANCH   6  21
ATOM     21  N   UNL     1     -31.876  43.895 -14.973  0.00  0.00    +0.000 N 
ATOM     22  H   UNL     1     -32.065  43.259 -14.183  0.00  0.00    +0.000 HD
BRANCH  21  25
ATOM     23 BR   UNL     1     -28.677  41.308 -19.474  0.00  0.00    +0.000 Br
ATOM     24  F   UNL     1     -29.181  44.367 -15.317  0.00  0.00    +0.000 F 
ATOM     25  C   UNL     1     -31.158  43.249 -16.001  0.00  0.00    +0.000 A 
ATOM     26  C   UNL     1     -29.792  43.529 -16.171  0.00  0.00    +0.000 A 
ATOM     27  C   UNL     1     -31.757  42.388 -16.923  0.00  0.00    +0.000 A 
ATOM     28  C   UNL     1     -29.043  42.958 -17.195  0.00  0.00    +0.000 A 
ATOM     29  C   UNL     1     -31.023  41.805 -17.956  0.00  0.00    +0.000 A 
ATOM     30  C   UNL     1     -29.670  42.095 -18.082  0.00  0.00    +0.000 A 
ENDBRANCH  21  25
ENDBRANCH   6  21
TORSDOF 6
ENDMDL
MODEL 2
REMARK VINA RESULT:      -6.0      4.614      7.677
REMARK  Name = 10288191_Binimetinib.pdbqt.pdb
REMARK  6 active torsions:
REMARK  status: ('A' for Active; 'I' for Inactive)
REMARK    1  A    between atoms: C_6  and  N_21
REMARK    2  A    between atoms: C_7  and  C_14
REMARK    3  A    between atoms: N_13  and  O_16
REMARK    4  A    between atoms: O_16  and  C_17
REMARK    5  A    between atoms: C_18  and  O_19
REMARK    6  A    between atoms: N_21  and  C_25
REMARK                            x       y       z     vdW  Elec       q    Type
REMARK                         _______ _______ _______ _____ _____    ______ ____
ROOT
ATOM      1  F   UNL     1     -34.766  50.682 -17.855  0.00  0.00    +0.000 F 
ATOM      2  N   UNL     1     -35.472  49.215 -22.072  0.00  0.00    +0.000 N 
ATOM      3  N   UNL     1     -35.546  50.930 -20.684  0.00  0.00    +0.000 NA
ATOM      4  C   UNL     1     -35.016  48.715 -20.887  0.00  0.00    +0.000 A 
ATOM      5  C   UNL     1     -35.066  49.810 -20.029  0.00  0.00    +0.000 A 
ATOM      6  C   UNL     1     -34.190  48.389 -18.226  0.00  0.00    +0.000 A 
ATOM      7  C   UNL     1     -34.172  47.300 -19.137  0.00  0.00    +0.000 A 
ATOM      8  C   UNL     1     -34.584  47.453 -20.474  0.00  0.00    +0.000 A 
ATOM      9  C   UNL     1     -34.653  49.641 -18.694  0.00  0.00    +0.000 A 
ATOM     10  C   UNL     1     -35.780  50.533 -21.921  0.00  0.00    +0.000 A 
ATOM     11  C   UNL     1     -35.592  48.483 -23.289  0.00  0.00    +0.000 C 
ENDROOT
BRANCH   7  14
ATOM     12  O   UNL     1     -34.492  45.251 -18.011  0.00  0.00    +0.000 OA
ATOM     13  N   UNL     1     -32.495  45.516 -19.129  0.00  0.00    +0.000 N 
ATOM     14  C   UNL     1     -33.741  45.931 -18.706  0.00  0.00    +0.000 C 
ATOM     15  H   UNL     1     -31.766  46.175 -19.374  0.00  0.00    +0.000 HD
BRANCH  13  16
ATOM     16  O   UNL     1     -32.026  44.359 -18.471  0.00  0.00    +0.000 OA
BRANCH  16  17
ATOM     17  C   UNL     1     -30.864  44.049 -19.043  0.00  0.00    +0.000 C 
ATOM     18  C   UNL     1     -29.521  43.704 -19.697  0.00  0.00    +0.000 C 
BRANCH  18  19
ATOM     19  O   UNL     1     -28.354  43.411 -20.259  0.00  0.00    +0.000 OA
ATOM     20  H   UNL     1     -28.486  43.134 -21.181  0.00  0.00    +0.000 HD
ENDBRANCH  18  19
ENDBRANCH  16  17
ENDBRANCH  13  16
ENDBRANCH   7  14
BRANCH   6  21
ATOM     21  N   UNL     1     -33.726  48.219 -16.896  0.00  0.00    +0.000 N 
ATOM     22  H   UNL     1     -32.865  48.750 -16.695  0.00  0.00    +0.000 HD
BRANCH  21  25
ATOM     23 BR   UNL     1     -36.626  46.429 -11.839  0.00  0.00    +0.000 Br
ATOM     24  F   UNL     1     -32.759  46.199 -15.286  0.00  0.00    +0.000 F 
ATOM     25  C   UNL     1     -34.402  47.857 -15.712  0.00  0.00    +0.000 A 
ATOM     26  C   UNL     1     -33.902  46.806 -14.925  0.00  0.00    +0.000 A 
ATOM     27  C   UNL     1     -35.603  48.445 -15.310  0.00  0.00    +0.000 A 
ATOM     28  C   UNL     1     -34.550  46.374 -13.772  0.00  0.00    +0.000 A 
ATOM     29  C   UNL     1     -36.267  48.027 -14.157  0.00  0.00    +0.000 A 
ATOM     30  C   UNL     1     -35.733  46.994 -13.397  0.00  0.00    +0.000 A 
ENDBRANCH  21  25
ENDBRANCH   6  21
TORSDOF 6
ENDMDL
MODEL 3
REMARK VINA RESULT:      -6.0      4.631      7.926
REMARK  Name = 10288191_Binimetinib.pdbqt.pdb
REMARK  6 active torsions:
REMARK  status: ('A' for Active; 'I' for Inactive)
REMARK    1  A    between atoms: C_6  and  N_21
REMARK    2  A    between atoms: C_7  and  C_14
REMARK    3  A    between atoms: N_13  and  O_16
REMARK    4  A    between atoms: O_16  and  C_17
REMARK    5  A    between atoms: C_18  and  O_19
REMARK    6  A    between atoms: N_21  and  C_25
REMARK                            x       y       z     vdW  Elec       q    Type
REMARK                         _______ _______ _______ _____ _____    ______ ____
ROOT
ATOM      1  F   UNL     1     -31.158  45.064 -14.441  0.00  0.00    +0.000 F 
ATOM      2  N   UNL     1     -30.694  43.772 -18.748  0.00  0.00    +0.000 N 
ATOM      3  N   UNL     1     -29.996  43.527 -16.669  0.00  0.00    +0.000 NA
ATOM      4  C   UNL     1     -31.482  44.618 -18.021  0.00  0.00    +0.000 A 
ATOM      5  C   UNL     1     -31.029  44.445 -16.717  0.00  0.00    +0.000 A 
ATOM      6  C   UNL     1     -32.699  46.083 -15.963  0.00  0.00    +0.000 A 
ATOM      7  C   UNL     1     -33.113  46.234 -17.313  0.00  0.00    +0.000 A 
ATOM      8  C   UNL     1     -32.509  45.503 -18.353  0.00  0.00    +0.000 A 
ATOM      9  C   UNL     1     -31.642  45.185 -15.687  0.00  0.00    +0.000 A 
ATOM     10  C   UNL     1     -29.821  43.138 -17.918  0.00  0.00    +0.000 A 
ATOM     11  C   UNL     1     -30.780  43.564 -20.156  0.00  0.00    +0.000 C 
ENDROOT
BRANCH   7  14
ATOM     12  O   UNL     1     -35.336  47.024 -17.280  0.00  0.00    +0.000 OA
ATOM     13  N   UNL     1     -33.819  48.253 -18.504  0.00  0.00    +0.000 N 
ATOM     14  C   UNL     1     -34.193  47.201 -17.692  0.00  0.00    +0.000 C 
ATOM     15  H   UNL     1     -33.011  48.198 -19.112  0.00  0.00    +0.000 HD
BRANCH  13  16
ATOM     16  O   UNL     1     -34.909  48.960 -19.057  0.00  0.00    +0.000 OA
BRANCH  16  17
ATOM     17  C   UNL     1     -34.644  49.096 -20.355  0.00  0.00    +0.000 C 
ATOM     18  C   UNL     1     -34.353  49.249 -21.852  0.00  0.00    +0.000 C 
BRANCH  18  19
ATOM     19  O   UNL     1     -34.108  49.379 -23.151  0.00  0.00    +0.000 OA
ATOM     20  H   UNL     1     -34.670  50.077 -23.530  0.00  0.00    +0.000 HD
ENDBRANCH  18  19
ENDBRANCH  16  17
ENDBRANCH  13  16
ENDBRANCH   7  14
BRANCH   6  21
ATOM     21  N   UNL     1     -33.355  46.797 -14.927  0.00  0.00    +0.000 N 
ATOM     22  H   UNL     1     -33.386  47.815 -15.093  0.00  0.00    +0.000 HD
BRANCH  21  25
ATOM     23 BR   UNL     1     -37.539  45.271 -10.762  0.00  0.00    +0.000 Br
ATOM     24  F   UNL     1     -35.575  48.358 -14.437  0.00  0.00    +0.000 F 
ATOM     25  C   UNL     1     -34.324  46.394 -13.985  0.00  0.00    +0.000 A 
ATOM     26  C   UNL     1     -35.431  47.222 -13.735  0.00  0.00    +0.000 A 
ATOM     27  C   UNL     1     -34.204  45.233 -13.218  0.00  0.00    +0.000 A 
ATOM     28  C   UNL     1     -36.394  46.900 -12.784  0.00  0.00    +0.000 A 
ATOM     29  C   UNL     1     -35.159  44.892 -12.261  0.00  0.00    +0.000 A 
ATOM     30  C   UNL     1     -36.248  45.730 -12.052  0.00  0.00    +0.000 A 
ENDBRANCH  21  25
ENDBRANCH   6  21
TORSDOF 6
ENDMDL
MODEL 4
REMARK VINA RESULT:      -5.9      5.123      6.717
REMARK  Name = 10288191_Binimetinib.pdbqt.pdb
REMARK  6 active torsions:
REMARK  status: ('A' for Active; 'I' for Inactive)
REMARK    1  A    between atoms: C_6  and  N_21
REMARK    2  A    between atoms: C_7  and  C_14
REMARK    3  A    between atoms: N_13  and  O_16
REMARK    4  A    between atoms: O_16  and  C_17
REMARK    5  A    between atoms: C_18  and  O_19
REMARK    6  A    between atoms: N_21  and  C_25
REMARK                            x       y       z     vdW  Elec       q    Type
REMARK                         _______ _______ _______ _____ _____    ______ ____
ROOT
ATOM      1  F   UNL     1     -33.538  45.541 -12.958  0.00  0.00    +0.000 F 
ATOM      2  N   UNL     1     -35.822  48.506 -15.493  0.00  0.00    +0.000 N 
ATOM      3  N   UNL     1     -33.960  47.347 -15.246  0.00  0.00    +0.000 NA
ATOM      4  C   UNL     1     -36.019  47.782 -14.352  0.00  0.00    +0.000 A 
ATOM      5  C   UNL     1     -34.838  47.058 -14.217  0.00  0.00    +0.000 A 
ATOM      6  C   UNL     1     -35.743  46.040 -12.171  0.00  0.00    +0.000 A 
ATOM      7  C   UNL     1     -36.921  46.813 -12.346  0.00  0.00    +0.000 A 
ATOM      8  C   UNL     1     -37.070  47.690 -13.437  0.00  0.00    +0.000 A 
ATOM      9  C   UNL     1     -34.703  46.187 -13.119  0.00  0.00    +0.000 A 
ATOM     10  C   UNL     1     -34.590  48.227 -16.001  0.00  0.00    +0.000 A 
ATOM     11  C   UNL     1     -36.764  49.401 -16.078  0.00  0.00    +0.000 C 
ENDROOT
BRANCH   7  14
ATOM     12  O   UNL     1     -38.820  45.797 -11.381  0.00  0.00    +0.000 OA
ATOM     13  N   UNL     1     -38.143  47.802 -10.469  0.00  0.00    +0.000 N 
ATOM     14  C   UNL     1     -38.047  46.752 -11.359  0.00  0.00    +0.000 C 
ATOM     15  H   UNL     1     -37.758  48.715 -10.675  0.00  0.00    +0.000 HD
BRANCH  13  16
ATOM     16  O   UNL     1     -39.365  47.839  -9.762  0.00  0.00    +0.000 OA
BRANCH  16  17
ATOM     17  C   UNL     1     -39.179  48.674  -8.741  0.00  0.00    +0.000 C 
ATOM     18  C   UNL     1     -38.953  49.635  -7.569  0.00  0.00    +0.000 C 
BRANCH  18  19
ATOM     19  O   UNL     1     -38.748  50.469  -6.555  0.00  0.00    +0.000 OA
ATOM     20  H   UNL     1     -39.040  51.365  -6.795  0.00  0.00    +0.000 HD
ENDBRANCH  18  19
ENDBRANCH  16  17
ENDBRANCH  13  16
ENDBRANCH   7  14
BRANCH   6  21
ATOM     21  N   UNL     1     -35.637  45.130 -11.088  0.00  0.00    +0.000 N 
ATOM     22  H   UNL     1     -35.751  44.145 -11.372  0.00  0.00    +0.000 HD
BRANCH  21  25
ATOM     23 BR   UNL     1     -32.822  45.365  -5.683  0.00  0.00    +0.000 Br
ATOM     24  F   UNL     1     -33.268  43.803 -10.607  0.00  0.00    +0.000 F 
ATOM     25  C   UNL     1     -34.992  45.239  -9.838  0.00  0.00    +0.000 A 
ATOM     26  C   UNL     1     -33.800  44.530  -9.612  0.00  0.00    +0.000 A 
ATOM     27  C   UNL     1     -35.520  45.965  -8.768  0.00  0.00    +0.000 A 
ATOM     28  C   UNL     1     -33.145  44.560  -8.385  0.00  0.00    +0.000 A 
ATOM     29  C   UNL     1     -34.877  46.009  -7.532  0.00  0.00    +0.000 A 
ATOM     30  C   UNL     1     -33.693  45.306  -7.351  0.00  0.00    +0.000 A 
ENDBRANCH  21  25
ENDBRANCH   6  21
TORSDOF 6
ENDMDL
MODEL 5
REMARK VINA RESULT:      -5.9      4.275      6.987
REMARK  Name = 10288191_Binimetinib.pdbqt.pdb
REMARK  6 active torsions:
REMARK  status: ('A' for Active; 'I' for Inactive)
REMARK    1  A    between atoms: C_6  and  N_21
REMARK    2  A    between atoms: C_7  and  C_14
REMARK    3  A    between atoms: N_13  and  O_16
REMARK    4  A    between atoms: O_16  and  C_17
REMARK    5  A    between atoms: C_18  and  O_19
REMARK    6  A    between atoms: N_21  and  C_25
REMARK                            x       y       z     vdW  Elec       q    Type
REMARK                         _______ _______ _______ _____ _____    ______ ____
ROOT
ATOM      1  F   UNL     1     -34.981  50.757 -17.876  0.00  0.00    +0.000 F 
ATOM      2  N   UNL     1     -35.267  49.196 -22.109  0.00  0.00    +0.000 N 
ATOM      3  N   UNL     1     -35.606  50.903 -20.751  0.00  0.00    +0.000 NA
ATOM      4  C   UNL     1     -34.835  48.755 -20.891  0.00  0.00    +0.000 A 
ATOM      5  C   UNL     1     -35.053  49.845 -20.053  0.00  0.00    +0.000 A 
ATOM      6  C   UNL     1     -34.146  48.535 -18.181  0.00  0.00    +0.000 A 
ATOM      7  C   UNL     1     -33.958  47.448 -19.075  0.00  0.00    +0.000 A 
ATOM      8  C   UNL     1     -34.300  47.548 -20.436  0.00  0.00    +0.000 A 
ATOM      9  C   UNL     1     -34.708  49.728 -18.693  0.00  0.00    +0.000 A 
ATOM     10  C   UNL     1     -35.720  50.476 -21.994  0.00  0.00    +0.000 A 
ATOM     11  C   UNL     1     -35.234  48.447 -23.321  0.00  0.00    +0.000 C 
ENDROOT
BRANCH   7  14
ATOM     12  O   UNL     1     -32.227  46.044 -18.299  0.00  0.00    +0.000 OA
ATOM     13  N   UNL     1     -34.309  45.086 -18.534  0.00  0.00    +0.000 N 
ATOM     14  C   UNL     1     -33.414  46.135 -18.601  0.00  0.00    +0.000 C 
ATOM     15  H   UNL     1     -35.148  45.062 -19.100  0.00  0.00    +0.000 HD
BRANCH  13  16
ATOM     16  O   UNL     1     -33.697  43.826 -18.360  0.00  0.00    +0.000 OA
BRANCH  16  17
ATOM     17  C   UNL     1     -33.818  43.528 -17.068  0.00  0.00    +0.000 C 
ATOM     18  C   UNL     1     -33.966  43.195 -15.579  0.00  0.00    +0.000 C 
BRANCH  18  19
ATOM     19  O   UNL     1     -34.102  42.911 -14.289  0.00  0.00    +0.000 OA
ATOM     20  H   UNL     1     -33.773  43.648 -13.747  0.00  0.00    +0.000 HD
ENDBRANCH  18  19
ENDBRANCH  16  17
ENDBRANCH  13  16
ENDBRANCH   7  14
BRANCH   6  21
ATOM     21  N   UNL     1     -33.751  48.424 -16.823  0.00  0.00    +0.000 N 
ATOM     22  H   UNL     1     -32.958  49.037 -16.579  0.00  0.00    +0.000 HD
BRANCH  21  25
ATOM     23 BR   UNL     1     -36.796  46.414 -11.937  0.00  0.00    +0.000 Br
ATOM     24  F   UNL     1     -32.835  46.328 -15.282  0.00  0.00    +0.000 F 
ATOM     25  C   UNL     1     -34.460  48.010 -15.676  0.00  0.00    +0.000 A 
ATOM     26  C   UNL     1     -33.985  46.922 -14.925  0.00  0.00    +0.000 A 
ATOM     27  C   UNL     1     -35.670  48.585 -15.280  0.00  0.00    +0.000 A 
ATOM     28  C   UNL     1     -34.666  46.440 -13.812  0.00  0.00    +0.000 A 
ATOM     29  C   UNL     1     -36.367  48.116 -14.167  0.00  0.00    +0.000 A 
ATOM     30  C   UNL     1     -35.858  47.047 -13.441  0.00  0.00    +0.000 A 
ENDBRANCH  21  25
ENDBRANCH   6  21
TORSDOF 6
ENDMDL
MODEL 6
REMARK VINA RESULT:      -5.6      3.032      5.449
REMARK  Name = 10288191_Binimetinib.pdbqt.pdb
REMARK  6 active torsions:
REMARK  status: ('A' for Active; 'I' for Inactive)
REMARK    1  A    between atoms: C_6  and  N_21
REMARK    2  A    between atoms: C_7  and  C_14
REMARK    3  A    between atoms: N_13  and  O_16
REMARK    4  A    between atoms: O_16  and  C_17
REMARK    5  A    between atoms: C_18  and  O_19
REMARK    6  A    between atoms: N_21  and  C_25
REMARK                            x       y       z     vdW  Elec       q    Type
REMARK                         _______ _______ _______ _____ _____    ______ ____
ROOT
ATOM      1  F   UNL     1     -32.522  44.730 -12.362  0.00  0.00    +0.000 F 
ATOM      2  N   UNL     1     -36.289  45.391  -9.953  0.00  0.00    +0.000 N 
ATOM      3  N   UNL     1     -34.268  44.507 -10.000  0.00  0.00    +0.000 NA
ATOM      4  C   UNL     1     -35.798  45.728 -11.181  0.00  0.00    +0.000 A 
ATOM      5  C   UNL     1     -34.525  45.166 -11.188  0.00  0.00    +0.000 A 
ATOM      6  C   UNL     1     -34.191  46.053 -13.456  0.00  0.00    +0.000 A 
ATOM      7  C   UNL     1     -35.503  46.593 -13.403  0.00  0.00    +0.000 A 
ATOM      8  C   UNL     1     -36.317  46.436 -12.266  0.00  0.00    +0.000 A 
ATOM      9  C   UNL     1     -33.723  45.330 -12.334  0.00  0.00    +0.000 A 
ATOM     10  C   UNL     1     -35.358  44.665  -9.274  0.00  0.00    +0.000 A 
ATOM     11  C   UNL     1     -37.570  45.755  -9.444  0.00  0.00    +0.000 C 
ENDROOT
BRANCH   7  14
ATOM     12  O   UNL     1     -36.685  46.705 -15.442  0.00  0.00    +0.000 OA
ATOM     13  N   UNL     1     -35.912  48.699 -14.584  0.00  0.00    +0.000 N 
ATOM     14  C   UNL     1     -36.089  47.330 -14.569  0.00  0.00    +0.000 C 
ATOM     15  H   UNL     1     -35.149  49.145 -14.091  0.00  0.00    +0.000 HD
BRANCH  13  16
ATOM     16  O   UNL     1     -36.226  49.300 -15.822  0.00  0.00    +0.000 OA
BRANCH  16  17
ATOM     17  C   UNL     1     -35.236  48.980 -16.654  0.00  0.00    +0.000 C 
ATOM     18  C   UNL     1     -34.104  48.618 -17.621  0.00  0.00    +0.000 C 
BRANCH  18  19
ATOM     19  O   UNL     1     -33.126  48.309 -18.465  0.00  0.00    +0.000 OA
ATOM     20  H   UNL     1     -32.281  48.240 -17.988  0.00  0.00    +0.000 HD
ENDBRANCH  18  19
ENDBRANCH  16  17
ENDBRANCH  13  16
ENDBRANCH   7  14
BRANCH   6  21
ATOM     21  N   UNL     1     -33.373  46.265 -14.596  0.00  0.00    +0.000 N 
ATOM     22  H   UNL     1     -32.721  47.057 -14.487  0.00  0.00    +0.000 HD
BRANCH  21  25
ATOM     23 BR   UNL     1     -31.403  42.620 -19.070  0.00  0.00    +0.000 Br
ATOM     24  F   UNL     1     -30.790  45.302 -14.675  0.00  0.00    +0.000 F 
ATOM     25  C   UNL     1     -32.962  45.391 -15.624  0.00  0.00    +0.000 A 
ATOM     26  C   UNL     1     -31.633  44.938 -15.655  0.00  0.00    +0.000 A 
ATOM     27  C   UNL     1     -33.797  45.004 -16.675  0.00  0.00    +0.000 A 
ATOM     28  C   UNL     1     -31.157  44.113 -16.670  0.00  0.00    +0.000 A 
ATOM     29  C   UNL     1     -33.340  44.177 -17.700  0.00  0.00    +0.000 A 
ATOM     30  C   UNL     1     -32.022  43.738 -17.688  0.00  0.00    +0.000 A 
ENDBRANCH  21  25
ENDBRANCH   6  21
TORSDOF 6
ENDMDL
MODEL 7
REMARK VINA RESULT:      -5.5      4.200      6.956
REMARK  Name = 10288191_Binimetinib.pdbqt.pdb
REMARK  6 active torsions:
REMARK  status: ('A' for Active; 'I' for Inactive)
REMARK    1  A    between atoms: C_6  and  N_21
REMARK    2  A    between atoms: C_7  and  C_14
REMARK    3  A    between atoms: N_13  and  O_16
REMARK    4  A    between atoms: O_16  and  C_17
REMARK    5  A    between atoms: C_18  and  O_19
REMARK    6  A    between atoms: N_21  and  C_25
REMARK                            x       y       z     vdW  Elec       q    Type
REMARK                         _______ _______ _______ _____ _____    ______ ____
ROOT
ATOM      1  F   UNL     1     -35.508  48.537 -14.637  0.00  0.00    +0.000 F 
ATOM      2  N   UNL     1     -34.693  44.760 -12.292  0.00  0.00    +0.000 N 
ATOM      3  N   UNL     1     -35.873  46.620 -12.431  0.00  0.00    +0.000 NA
ATOM      4  C   UNL     1     -34.262  45.352 -13.444  0.00  0.00    +0.000 A 
ATOM      5  C   UNL     1     -35.019  46.518 -13.514  0.00  0.00    +0.000 A 
ATOM      6  C   UNL     1     -33.883  47.080 -15.620  0.00  0.00    +0.000 A 
ATOM      7  C   UNL     1     -33.125  45.886 -15.492  0.00  0.00    +0.000 A 
ATOM      8  C   UNL     1     -33.308  45.012 -14.405  0.00  0.00    +0.000 A 
ATOM      9  C   UNL     1     -34.823  47.383 -14.607  0.00  0.00    +0.000 A 
ATOM     10  C   UNL     1     -35.650  45.536 -11.712  0.00  0.00    +0.000 A 
ATOM     11  C   UNL     1     -34.232  43.512 -11.779  0.00  0.00    +0.000 C 
ENDROOT
BRANCH   7  14
ATOM     12  O   UNL     1     -32.246  45.798 -17.681  0.00  0.00    +0.000 OA
ATOM     13  N   UNL     1     -30.957  44.873 -16.010  0.00  0.00    +0.000 N 
ATOM     14  C   UNL     1     -32.076  45.519 -16.497  0.00  0.00    +0.000 C 
ATOM     15  H   UNL     1     -30.979  44.342 -15.148  0.00  0.00    +0.000 HD
BRANCH  13  16
ATOM     16  O   UNL     1     -30.146  44.304 -17.016  0.00  0.00    +0.000 OA
BRANCH  16  17
ATOM     17  C   UNL     1     -29.687  43.157 -16.520  0.00  0.00    +0.000 C 
ATOM     18  C   UNL     1     -29.164  41.840 -15.937  0.00  0.00    +0.000 C 
BRANCH  18  19
ATOM     19  O   UNL     1     -28.713  40.700 -15.424  0.00  0.00    +0.000 OA
ATOM     20  H   UNL     1     -29.040  39.946 -15.943  0.00  0.00    +0.000 HD
ENDBRANCH  18  19
ENDBRANCH  16  17
ENDBRANCH  13  16
ENDBRANCH   7  14
BRANCH   6  21
ATOM     21  N   UNL     1     -33.712  47.921 -16.750  0.00  0.00    +0.000 N 
ATOM     22  H   UNL     1     -32.764  47.872 -17.153  0.00  0.00    +0.000 HD
BRANCH  21  25
ATOM     23 BR   UNL     1     -37.649  50.042 -20.895  0.00  0.00    +0.000 Br
ATOM     24  F   UNL     1     -35.242  46.243 -18.315  0.00  0.00    +0.000 F 
ATOM     25  C   UNL     1     -34.642  48.446 -17.671  0.00  0.00    +0.000 A 
ATOM     26  C   UNL     1     -35.389  47.569 -18.475  0.00  0.00    +0.000 A 
ATOM     27  C   UNL     1     -34.812  49.816 -17.886  0.00  0.00    +0.000 A 
ATOM     28  C   UNL     1     -36.286  48.028 -19.433  0.00  0.00    +0.000 A 
ATOM     29  C   UNL     1     -35.707  50.296 -18.841  0.00  0.00    +0.000 A 
ATOM     30  C   UNL     1     -36.439  49.396 -19.607  0.00  0.00    +0.000 A 
ENDBRANCH  21  25
ENDBRANCH   6  21
TORSDOF 6
ENDMDL
MODEL 8
REMARK VINA RESULT:      -5.4     19.615     21.309
REMARK  Name = 10288191_Binimetinib.pdbqt.pdb
REMARK  6 active torsions:
REMARK  status: ('A' for Active; 'I' for Inactive)
REMARK    1  A    between atoms: C_6  and  N_21
REMARK    2  A    between atoms: C_7  and  C_14
REMARK    3  A    between atoms: N_13  and  O_16
REMARK    4  A    between atoms: O_16  and  C_17
REMARK    5  A    between atoms: C_18  and  O_19
REMARK    6  A    between atoms: N_21  and  C_25
REMARK                            x       y       z     vdW  Elec       q    Type
REMARK                         _______ _______ _______ _____ _____    ______ ____
ROOT
ATOM      1  F   UNL     1     -26.014  61.707 -26.462  0.00  0.00    +0.000 F 
ATOM      2  N   UNL     1     -27.779  63.470 -22.693  0.00  0.00    +0.000 N 
ATOM      3  N   UNL     1     -26.018  63.349 -24.017  0.00  0.00    +0.000 NA
ATOM      4  C   UNL     1     -28.174  62.651 -23.711  0.00  0.00    +0.000 A 
ATOM      5  C   UNL     1     -27.053  62.591 -24.535  0.00  0.00    +0.000 A 
ATOM      6  C   UNL     1     -28.295  61.108 -26.051  0.00  0.00    +0.000 A 
ATOM      7  C   UNL     1     -29.405  61.190 -25.169  0.00  0.00    +0.000 A 
ATOM      8  C   UNL     1     -29.354  61.961 -23.993  0.00  0.00    +0.000 A 
ATOM      9  C   UNL     1     -27.118  61.814 -25.707  0.00  0.00    +0.000 A 
ATOM     10  C   UNL     1     -26.494  63.869 -22.902  0.00  0.00    +0.000 A 
ATOM     11  C   UNL     1     -28.589  63.867 -21.589  0.00  0.00    +0.000 C 
ENDROOT
BRANCH   7  14
ATOM     12  O   UNL     1     -30.654  59.205 -25.433  0.00  0.00    +0.000 OA
ATOM     13  N   UNL     1     -31.799  61.189 -25.682  0.00  0.00    +0.000 N 
ATOM     14  C   UNL     1     -30.670  60.433 -25.438  0.00  0.00    +0.000 C 
ATOM     15  H   UNL     1     -31.743  62.136 -26.034  0.00  0.00    +0.000 HD
BRANCH  13  16
ATOM     16  O   UNL     1     -32.880  60.445 -26.204  0.00  0.00    +0.000 OA
BRANCH  16  17
ATOM     17  C   UNL     1     -33.691  61.325 -26.786  0.00  0.00    +0.000 C 
ATOM     18  C   UNL     1     -34.619  62.336 -27.470  0.00  0.00    +0.000 C 
BRANCH  18  19
ATOM     19  O   UNL     1     -35.421  63.209 -28.069  0.00  0.00    +0.000 OA
ATOM     20  H   UNL     1     -36.154  63.452 -27.478  0.00  0.00    +0.000 HD
ENDBRANCH  18  19
ENDBRANCH  16  17
ENDBRANCH  13  16
ENDBRANCH   7  14
BRANCH   6  21
ATOM     21  N   UNL     1     -28.387  60.361 -27.253  0.00  0.00    +0.000 N 
ATOM     22  H   UNL     1     -29.044  59.568 -27.189  0.00  0.00    +0.000 HD
BRANCH  21  25
ATOM     23 BR   UNL     1     -27.485  61.815 -33.106  0.00  0.00    +0.000 Br
ATOM     24  F   UNL     1     -30.243  61.784 -28.715  0.00  0.00    +0.000 F 
ATOM     25  C   UNL     1     -28.128  60.715 -28.594  0.00  0.00    +0.000 A 
ATOM     26  C   UNL     1     -29.103  61.416 -29.323  0.00  0.00    +0.000 A 
ATOM     27  C   UNL     1     -26.968  60.335 -29.272  0.00  0.00    +0.000 A 
ATOM     28  C   UNL     1     -28.925  61.752 -30.661  0.00  0.00    +0.000 A 
ATOM     29  C   UNL     1     -26.770  60.663 -30.613  0.00  0.00    +0.000 A 
ATOM     30  C   UNL     1     -27.751  61.370 -31.297  0.00  0.00    +0.000 A 
ENDBRANCH  21  25
ENDBRANCH   6  21
TORSDOF 6
ENDMDL
MODEL 9
REMARK VINA RESULT:      -5.4      5.391      9.634
REMARK  Name = 10288191_Binimetinib.pdbqt.pdb
REMARK  6 active torsions:
REMARK  status: ('A' for Active; 'I' for Inactive)
REMARK    1  A    between atoms: C_6  and  N_21
REMARK    2  A    between atoms: C_7  and  C_14
REMARK    3  A    between atoms: N_13  and  O_16
REMARK    4  A    between atoms: O_16  and  C_17
REMARK    5  A    between atoms: C_18  and  O_19
REMARK    6  A    between atoms: N_21  and  C_25
REMARK                            x       y       z     vdW  Elec       q    Type
REMARK                         _______ _______ _______ _____ _____    ______ ____
ROOT
ATOM      1  F   UNL     1     -34.128  46.405  -6.499  0.00  0.00    +0.000 F 
ATOM      2  N   UNL     1     -33.958  42.066  -5.244  0.00  0.00    +0.000 N 
ATOM      3  N   UNL     1     -33.747  44.172  -4.617  0.00  0.00    +0.000 NA
ATOM      4  C   UNL     1     -34.235  42.787  -6.369  0.00  0.00    +0.000 A 
ATOM      5  C   UNL     1     -34.100  44.108  -5.952  0.00  0.00    +0.000 A 
ATOM      6  C   UNL     1     -34.682  44.842  -8.225  0.00  0.00    +0.000 A 
ATOM      7  C   UNL     1     -34.792  43.478  -8.603  0.00  0.00    +0.000 A 
ATOM      8  C   UNL     1     -34.569  42.439  -7.680  0.00  0.00    +0.000 A 
ATOM      9  C   UNL     1     -34.323  45.136  -6.888  0.00  0.00    +0.000 A 
ATOM     10  C   UNL     1     -33.672  42.916  -4.218  0.00  0.00    +0.000 A 
ATOM     11  C   UNL     1     -33.984  40.645  -5.143  0.00  0.00    +0.000 C 
ENDROOT
BRANCH   7  14
ATOM     12  O   UNL     1     -36.294  43.008 -10.360  0.00  0.00    +0.000 OA
ATOM     13  N   UNL     1     -34.049  42.824 -10.842  0.00  0.00    +0.000 N 
ATOM     14  C   UNL     1     -35.119  43.084 -10.011  0.00  0.00    +0.000 C 
ATOM     15  H   UNL     1     -33.147  42.541 -10.480  0.00  0.00    +0.000 HD
BRANCH  13  16
ATOM     16  O   UNL     1     -34.408  42.191 -12.052  0.00  0.00    +0.000 OA
BRANCH  16  17
ATOM     17  C   UNL     1     -34.089  43.041 -13.026  0.00  0.00    +0.000 C 
ATOM     18  C   UNL     1     -33.710  44.013 -14.149  0.00  0.00    +0.000 C 
BRANCH  18  19
ATOM     19  O   UNL     1     -33.374  44.851 -15.123  0.00  0.00    +0.000 OA
ATOM     20  H   UNL     1     -33.053  45.689 -14.749  0.00  0.00    +0.000 HD
ENDBRANCH  18  19
ENDBRANCH  16  17
ENDBRANCH  13  16
ENDBRANCH   7  14
BRANCH   6  21
ATOM     21  N   UNL     1     -34.956  45.871  -9.163  0.00  0.00    +0.000 N 
ATOM     22  H   UNL     1     -34.289  45.890  -9.951  0.00  0.00    +0.000 HD
BRANCH  21  25
ATOM     23 BR   UNL     1     -40.009  48.917 -10.703  0.00  0.00    +0.000 Br
ATOM     24  F   UNL     1     -36.020  45.759 -11.705  0.00  0.00    +0.000 F 
ATOM     25  C   UNL     1     -36.148  46.556  -9.474  0.00  0.00    +0.000 A 
ATOM     26  C   UNL     1     -36.653  46.504 -10.784  0.00  0.00    +0.000 A 
ATOM     27  C   UNL     1     -36.828  47.359  -8.556  0.00  0.00    +0.000 A 
ATOM     28  C   UNL     1     -37.799  47.197 -11.162  0.00  0.00    +0.000 A 
ATOM     29  C   UNL     1     -37.978  48.061  -8.915  0.00  0.00    +0.000 A 
ATOM     30  C   UNL     1     -38.455  47.973 -10.217  0.00  0.00    +0.000 A 
ENDBRANCH  21  25
ENDBRANCH   6  21
TORSDOF 6
ENDMDL
