MODEL 1
REMARK VINA RESULT:      -6.8      0.000      0.000
REMARK  Name = 10639_Physcion.pdbqt.pdb
REMARK  3 active torsions:
REMARK  status: ('A' for Active; 'I' for Inactive)
REMARK    1  A    between atoms: C_10  and  O_18
REMARK    2  A    between atoms: C_12  and  O_20
REMARK    3  A    between atoms: C_15  and  O_22
REMARK                            x       y       z     vdW  Elec       q    Type
REMARK                         _______ _______ _______ _____ _____    ______ ____
ROOT
ATOM      1  O   UNL     1     -33.348  44.877 -10.480  0.00  0.00    +0.000 OA
ATOM      2  O   UNL     1     -36.978  46.660  -7.012  0.00  0.00    +0.000 OA
ATOM      3  C   UNL     1     -36.345  46.377  -9.244  0.00  0.00    +0.000 A 
ATOM      4  C   UNL     1     -35.390  45.909 -10.143  0.00  0.00    +0.000 A 
ATOM      5  C   UNL     1     -33.932  45.135  -8.181  0.00  0.00    +0.000 A 
ATOM      6  C   UNL     1     -34.906  45.614  -7.303  0.00  0.00    +0.000 A 
ATOM      7  C   UNL     1     -34.153  45.272  -9.644  0.00  0.00    +0.000 C 
ATOM      8  C   UNL     1     -36.137  46.247  -7.798  0.00  0.00    +0.000 C 
ATOM      9  C   UNL     1     -37.519  46.981  -9.699  0.00  0.00    +0.000 A 
ATOM     10  C   UNL     1     -35.629  46.054 -11.517  0.00  0.00    +0.000 A 
ATOM     11  C   UNL     1     -37.742  47.118 -11.065  0.00  0.00    +0.000 A 
ATOM     12  C   UNL     1     -32.785  44.543  -7.638  0.00  0.00    +0.000 A 
ATOM     13  C   UNL     1     -34.743  45.507  -5.917  0.00  0.00    +0.000 A 
ATOM     14  C   UNL     1     -36.801  46.656 -11.979  0.00  0.00    +0.000 A 
ATOM     15  C   UNL     1     -33.600  44.918  -5.385  0.00  0.00    +0.000 A 
ATOM     16  C   UNL     1     -32.624  44.437  -6.254  0.00  0.00    +0.000 A 
ATOM     17  C   UNL     1     -39.003  47.766 -11.550  0.00  0.00    +0.000 C 
ENDROOT
BRANCH  10  18
ATOM     18  O   UNL     1     -34.752  45.625 -12.477  0.00  0.00    +0.000 OA
ATOM     19  H   UNL     1     -34.111  44.998 -12.066  0.00  0.00    +0.000 HD
ENDBRANCH  10  18
BRANCH  12  20
ATOM     20  O   UNL     1     -31.790  44.052  -8.433  0.00  0.00    +0.000 OA
ATOM     21  H   UNL     1     -31.548  44.711  -9.108  0.00  0.00    +0.000 HD
ENDBRANCH  12  20
BRANCH  15  22
ATOM     22  O   UNL     1     -33.536  44.862  -4.015  0.00  0.00    +0.000 OA
ATOM     23  C   UNL     1     -32.712  43.851  -3.501  0.00  0.00    +0.000 C 
ENDBRANCH  15  22
TORSDOF 3
ENDMDL
MODEL 2
REMARK VINA RESULT:      -6.2     26.279     28.070
REMARK  Name = 10639_Physcion.pdbqt.pdb
REMARK  3 active torsions:
REMARK  status: ('A' for Active; 'I' for Inactive)
REMARK    1  A    between atoms: C_10  and  O_18
REMARK    2  A    between atoms: C_12  and  O_20
REMARK    3  A    between atoms: C_15  and  O_22
REMARK                            x       y       z     vdW  Elec       q    Type
REMARK                         _______ _______ _______ _____ _____    ______ ____
ROOT
ATOM      1  O   UNL     1     -17.975  57.328 -27.597  0.00  0.00    +0.000 OA
ATOM      2  O   UNL     1     -17.421  52.030 -27.650  0.00  0.00    +0.000 OA
ATOM      3  C   UNL     1     -17.044  54.048 -26.533  0.00  0.00    +0.000 A 
ATOM      4  C   UNL     1     -17.193  55.433 -26.528  0.00  0.00    +0.000 A 
ATOM      5  C   UNL     1     -18.392  55.304 -28.791  0.00  0.00    +0.000 A 
ATOM      6  C   UNL     1     -18.229  53.919 -28.770  0.00  0.00    +0.000 A 
ATOM      7  C   UNL     1     -17.871  56.108 -27.655  0.00  0.00    +0.000 C 
ATOM      8  C   UNL     1     -17.555  53.245 -27.650  0.00  0.00    +0.000 C 
ATOM      9  C   UNL     1     -16.406  53.394 -25.477  0.00  0.00    +0.000 A 
ATOM     10  C   UNL     1     -16.690  56.161 -25.441  0.00  0.00    +0.000 A 
ATOM     11  C   UNL     1     -15.913  54.131 -24.406  0.00  0.00    +0.000 A 
ATOM     12  C   UNL     1     -19.044  55.877 -29.890  0.00  0.00    +0.000 A 
ATOM     13  C   UNL     1     -18.702  53.120 -29.816  0.00  0.00    +0.000 A 
ATOM     14  C   UNL     1     -16.051  55.514 -24.382  0.00  0.00    +0.000 A 
ATOM     15  C   UNL     1     -19.349  53.696 -30.905  0.00  0.00    +0.000 A 
ATOM     16  C   UNL     1     -19.517  55.079 -30.935  0.00  0.00    +0.000 A 
ATOM     17  C   UNL     1     -15.228  53.426 -23.273  0.00  0.00    +0.000 C 
ENDROOT
BRANCH  10  18
ATOM     18  O   UNL     1     -16.788  57.523 -25.345  0.00  0.00    +0.000 OA
ATOM     19  H   UNL     1     -15.907  57.889 -25.096  0.00  0.00    +0.000 HD
ENDBRANCH  10  18
BRANCH  12  20
ATOM     20  O   UNL     1     -19.241  57.225 -29.981  0.00  0.00    +0.000 OA
ATOM     21  H   UNL     1     -20.175  57.412 -30.184  0.00  0.00    +0.000 HD
ENDBRANCH  12  20
BRANCH  15  22
ATOM     22  O   UNL     1     -19.776  52.828 -31.879  0.00  0.00    +0.000 OA
ATOM     23  C   UNL     1     -21.018  53.139 -32.450  0.00  0.00    +0.000 C 
ENDBRANCH  15  22
TORSDOF 3
ENDMDL
MODEL 3
REMARK VINA RESULT:      -6.1     22.883     25.418
REMARK  Name = 10639_Physcion.pdbqt.pdb
REMARK  3 active torsions:
REMARK  status: ('A' for Active; 'I' for Inactive)
REMARK    1  A    between atoms: C_10  and  O_18
REMARK    2  A    between atoms: C_12  and  O_20
REMARK    3  A    between atoms: C_15  and  O_22
REMARK                            x       y       z     vdW  Elec       q    Type
REMARK                         _______ _______ _______ _____ _____    ______ ____
ROOT
ATOM      1  O   UNL     1     -26.520  60.854 -28.215  0.00  0.00    +0.000 OA
ATOM      2  O   UNL     1     -31.711  59.707 -28.573  0.00  0.00    +0.000 OA
ATOM      3  C   UNL     1     -29.629  59.812 -29.631  0.00  0.00    +0.000 A 
ATOM      4  C   UNL     1     -28.274  60.114 -29.528  0.00  0.00    +0.000 A 
ATOM      5  C   UNL     1     -28.614  60.773 -27.074  0.00  0.00    +0.000 A 
ATOM      6  C   UNL     1     -29.968  60.462 -27.205  0.00  0.00    +0.000 A 
ATOM      7  C   UNL     1     -27.720  60.605 -28.248  0.00  0.00    +0.000 C 
ATOM      8  C   UNL     1     -30.521  59.974 -28.478  0.00  0.00    +0.000 C 
ATOM      9  C   UNL     1     -30.169  59.348 -30.833  0.00  0.00    +0.000 A 
ATOM     10  C   UNL     1     -27.458  59.945 -30.656  0.00  0.00    +0.000 A 
ATOM     11  C   UNL     1     -29.346  59.185 -31.942  0.00  0.00    +0.000 A 
ATOM     12  C   UNL     1     -28.158  61.232 -25.831  0.00  0.00    +0.000 A 
ATOM     13  C   UNL     1     -30.849  60.604 -26.127  0.00  0.00    +0.000 A 
ATOM     14  C   UNL     1     -27.990  59.481 -31.860  0.00  0.00    +0.000 A 
ATOM     15  C   UNL     1     -30.389  61.061 -24.896  0.00  0.00    +0.000 A 
ATOM     16  C   UNL     1     -29.038  61.373 -24.756  0.00  0.00    +0.000 A 
ATOM     17  C   UNL     1     -29.928  58.686 -33.231  0.00  0.00    +0.000 C 
ENDROOT
BRANCH  10  18
ATOM     18  O   UNL     1     -26.116  60.215 -30.653  0.00  0.00    +0.000 OA
ATOM     19  H   UNL     1     -25.909  60.808 -31.413  0.00  0.00    +0.000 HD
ENDBRANCH  10  18
BRANCH  12  20
ATOM     20  O   UNL     1     -26.848  61.555 -25.627  0.00  0.00    +0.000 OA
ATOM     21  H   UNL     1     -26.740  62.524 -25.626  0.00  0.00    +0.000 HD
ENDBRANCH  12  20
BRANCH  15  22
ATOM     22  O   UNL     1     -31.331  61.165 -23.904  0.00  0.00    +0.000 OA
ATOM     23  C   UNL     1     -31.691  62.476 -23.562  0.00  0.00    +0.000 C 
ENDBRANCH  15  22
TORSDOF 3
ENDMDL
MODEL 4
REMARK VINA RESULT:      -6.1     25.709     27.380
REMARK  Name = 10639_Physcion.pdbqt.pdb
REMARK  3 active torsions:
REMARK  status: ('A' for Active; 'I' for Inactive)
REMARK    1  A    between atoms: C_10  and  O_18
REMARK    2  A    between atoms: C_12  and  O_20
REMARK    3  A    between atoms: C_15  and  O_22
REMARK                            x       y       z     vdW  Elec       q    Type
REMARK                         _______ _______ _______ _____ _____    ______ ____
ROOT
ATOM      1  O   UNL     1     -17.987  57.343 -27.820  0.00  0.00    +0.000 OA
ATOM      2  O   UNL     1     -17.499  52.040 -27.666  0.00  0.00    +0.000 OA
ATOM      3  C   UNL     1     -18.268  53.925 -28.816  0.00  0.00    +0.000 A 
ATOM      4  C   UNL     1     -18.391  55.311 -28.848  0.00  0.00    +0.000 A 
ATOM      5  C   UNL     1     -17.178  55.463 -26.594  0.00  0.00    +0.000 A 
ATOM      6  C   UNL     1     -17.069  54.072 -26.588  0.00  0.00    +0.000 A 
ATOM      7  C   UNL     1     -17.851  56.128 -27.739  0.00  0.00    +0.000 C 
ATOM      8  C   UNL     1     -17.605  53.259 -27.689  0.00  0.00    +0.000 C 
ATOM      9  C   UNL     1     -18.772  53.138 -29.854  0.00  0.00    +0.000 A 
ATOM     10  C   UNL     1     -19.032  55.906 -29.944  0.00  0.00    +0.000 A 
ATOM     11  C   UNL     1     -19.406  53.743 -30.934  0.00  0.00    +0.000 A 
ATOM     12  C   UNL     1     -16.644  56.174 -25.511  0.00  0.00    +0.000 A 
ATOM     13  C   UNL     1     -16.443  53.402 -25.531  0.00  0.00    +0.000 A 
ATOM     14  C   UNL     1     -19.539  55.127 -30.984  0.00  0.00    +0.000 A 
ATOM     15  C   UNL     1     -15.915  54.114 -24.459  0.00  0.00    +0.000 A 
ATOM     16  C   UNL     1     -16.019  55.503 -24.457  0.00  0.00    +0.000 A 
ATOM     17  C   UNL     1     -19.946  52.897 -32.047  0.00  0.00    +0.000 C 
ENDROOT
BRANCH  10  18
ATOM     18  O   UNL     1     -19.202  57.259 -30.065  0.00  0.00    +0.000 OA
ATOM     19  H   UNL     1     -19.956  57.433 -30.676  0.00  0.00    +0.000 HD
ENDBRANCH  10  18
BRANCH  12  20
ATOM     20  O   UNL     1     -16.713  57.535 -25.447  0.00  0.00    +0.000 OA
ATOM     21  H   UNL     1     -15.980  57.930 -25.953  0.00  0.00    +0.000 HD
ENDBRANCH  12  20
BRANCH  15  22
ATOM     22  O   UNL     1     -15.322  53.364 -23.474  0.00  0.00    +0.000 OA
ATOM     23  C   UNL     1     -15.284  53.969 -22.210  0.00  0.00    +0.000 C 
ENDBRANCH  15  22
TORSDOF 3
ENDMDL
MODEL 5
REMARK VINA RESULT:      -5.9      7.502     10.194
REMARK  Name = 10639_Physcion.pdbqt.pdb
REMARK  3 active torsions:
REMARK  status: ('A' for Active; 'I' for Inactive)
REMARK    1  A    between atoms: C_10  and  O_18
REMARK    2  A    between atoms: C_12  and  O_20
REMARK    3  A    between atoms: C_15  and  O_22
REMARK                            x       y       z     vdW  Elec       q    Type
REMARK                         _______ _______ _______ _____ _____    ______ ____
ROOT
ATOM      1  O   UNL     1     -34.451  49.022 -16.313  0.00  0.00    +0.000 OA
ATOM      2  O   UNL     1     -33.416  45.388 -20.068  0.00  0.00    +0.000 OA
ATOM      3  C   UNL     1     -34.140  47.549 -19.552  0.00  0.00    +0.000 A 
ATOM      4  C   UNL     1     -34.408  48.493 -18.564  0.00  0.00    +0.000 A 
ATOM      5  C   UNL     1     -33.704  46.802 -16.769  0.00  0.00    +0.000 A 
ATOM      6  C   UNL     1     -33.443  45.877 -17.780  0.00  0.00    +0.000 A 
ATOM      7  C   UNL     1     -34.200  48.153 -17.140  0.00  0.00    +0.000 C 
ATOM      8  C   UNL     1     -33.650  46.213 -19.196  0.00  0.00    +0.000 C 
ATOM      9  C   UNL     1     -34.331  47.854 -20.902  0.00  0.00    +0.000 A 
ATOM     10  C   UNL     1     -34.875  49.758 -18.948  0.00  0.00    +0.000 A 
ATOM     11  C   UNL     1     -34.795  49.113 -21.267  0.00  0.00    +0.000 A 
ATOM     12  C   UNL     1     -33.484  46.412 -15.441  0.00  0.00    +0.000 A 
ATOM     13  C   UNL     1     -32.975  44.593 -17.480  0.00  0.00    +0.000 A 
ATOM     14  C   UNL     1     -35.068  50.069 -20.295  0.00  0.00    +0.000 A 
ATOM     15  C   UNL     1     -32.759  44.212 -16.159  0.00  0.00    +0.000 A 
ATOM     16  C   UNL     1     -33.017  45.131 -15.143  0.00  0.00    +0.000 A 
ATOM     17  C   UNL     1     -34.999  49.437 -22.716  0.00  0.00    +0.000 C 
ENDROOT
BRANCH  10  18
ATOM     18  O   UNL     1     -35.166  50.750 -18.052  0.00  0.00    +0.000 OA
ATOM     19  H   UNL     1     -34.355  50.958 -17.531  0.00  0.00    +0.000 HD
ENDBRANCH  10  18
BRANCH  12  20
ATOM     20  O   UNL     1     -33.716  47.263 -14.400  0.00  0.00    +0.000 OA
ATOM     21  H   UNL     1     -34.514  46.985 -13.914  0.00  0.00    +0.000 HD
ENDBRANCH  12  20
BRANCH  15  22
ATOM     22  O   UNL     1     -32.300  42.933 -15.970  0.00  0.00    +0.000 OA
ATOM     23  C   UNL     1     -30.905  42.795 -15.988  0.00  0.00    +0.000 C 
ENDBRANCH  15  22
TORSDOF 3
ENDMDL
MODEL 6
REMARK VINA RESULT:      -5.9      7.584     11.918
REMARK  Name = 10639_Physcion.pdbqt.pdb
REMARK  3 active torsions:
REMARK  status: ('A' for Active; 'I' for Inactive)
REMARK    1  A    between atoms: C_10  and  O_18
REMARK    2  A    between atoms: C_12  and  O_20
REMARK    3  A    between atoms: C_15  and  O_22
REMARK                            x       y       z     vdW  Elec       q    Type
REMARK                         _______ _______ _______ _____ _____    ______ ____
ROOT
ATOM      1  O   UNL     1     -34.376  48.878 -16.175  0.00  0.00    +0.000 OA
ATOM      2  O   UNL     1     -33.373  45.478 -20.152  0.00  0.00    +0.000 OA
ATOM      3  C   UNL     1     -33.352  45.895 -17.852  0.00  0.00    +0.000 A 
ATOM      4  C   UNL     1     -33.617  46.790 -16.819  0.00  0.00    +0.000 A 
ATOM      5  C   UNL     1     -34.423  48.519 -18.533  0.00  0.00    +0.000 A 
ATOM      6  C   UNL     1     -34.148  47.601 -19.548  0.00  0.00    +0.000 A 
ATOM      7  C   UNL     1     -34.161  48.131 -17.123  0.00  0.00    +0.000 C 
ATOM      8  C   UNL     1     -33.607  46.268 -19.248  0.00  0.00    +0.000 C 
ATOM      9  C   UNL     1     -32.838  44.625 -17.582  0.00  0.00    +0.000 A 
ATOM     10  C   UNL     1     -33.358  46.393 -15.499  0.00  0.00    +0.000 A 
ATOM     11  C   UNL     1     -32.587  44.246 -16.269  0.00  0.00    +0.000 A 
ATOM     12  C   UNL     1     -34.937  49.771 -18.894  0.00  0.00    +0.000 A 
ATOM     13  C   UNL     1     -34.378  47.921 -20.891  0.00  0.00    +0.000 A 
ATOM     14  C   UNL     1     -32.844  45.125 -15.223  0.00  0.00    +0.000 A 
ATOM     15  C   UNL     1     -34.889  49.166 -21.242  0.00  0.00    +0.000 A 
ATOM     16  C   UNL     1     -35.167  50.088 -20.234  0.00  0.00    +0.000 A 
ATOM     17  C   UNL     1     -32.035  42.881 -15.982  0.00  0.00    +0.000 C 
ENDROOT
BRANCH  10  18
ATOM     18  O   UNL     1     -33.585  47.201 -14.418  0.00  0.00    +0.000 OA
ATOM     19  H   UNL     1     -33.041  48.019 -14.511  0.00  0.00    +0.000 HD
ENDBRANCH  10  18
BRANCH  12  20
ATOM     20  O   UNL     1     -35.230  50.719 -17.957  0.00  0.00    +0.000 OA
ATOM     21  H   UNL     1     -34.447  50.896 -17.406  0.00  0.00    +0.000 HD
ENDBRANCH  12  20
BRANCH  15  22
ATOM     22  O   UNL     1     -35.079  49.381 -22.584  0.00  0.00    +0.000 OA
ATOM     23  C   UNL     1     -35.851  50.508 -22.901  0.00  0.00    +0.000 C 
ENDBRANCH  15  22
TORSDOF 3
ENDMDL
MODEL 7
REMARK VINA RESULT:      -5.9      1.481      6.437
REMARK  Name = 10639_Physcion.pdbqt.pdb
REMARK  3 active torsions:
REMARK  status: ('A' for Active; 'I' for Inactive)
REMARK    1  A    between atoms: C_10  and  O_18
REMARK    2  A    between atoms: C_12  and  O_20
REMARK    3  A    between atoms: C_15  and  O_22
REMARK                            x       y       z     vdW  Elec       q    Type
REMARK                         _______ _______ _______ _____ _____    ______ ____
ROOT
ATOM      1  O   UNL     1     -36.474  46.576  -7.698  0.00  0.00    +0.000 OA
ATOM      2  O   UNL     1     -32.245  43.695  -9.181  0.00  0.00    +0.000 OA
ATOM      3  C   UNL     1     -33.525  44.579  -7.436  0.00  0.00    +0.000 A 
ATOM      4  C   UNL     1     -34.633  45.333  -7.058  0.00  0.00    +0.000 A 
ATOM      5  C   UNL     1     -35.213  45.706  -9.527  0.00  0.00    +0.000 A 
ATOM      6  C   UNL     1     -34.097  44.946  -9.878  0.00  0.00    +0.000 A 
ATOM      7  C   UNL     1     -35.514  45.922  -8.089  0.00  0.00    +0.000 C 
ATOM      8  C   UNL     1     -33.219  44.359  -8.854  0.00  0.00    +0.000 C 
ATOM      9  C   UNL     1     -32.682  44.015  -6.476  0.00  0.00    +0.000 A 
ATOM     10  C   UNL     1     -34.887  45.518  -5.691  0.00  0.00    +0.000 A 
ATOM     11  C   UNL     1     -32.949  44.207  -5.125  0.00  0.00    +0.000 A 
ATOM     12  C   UNL     1     -36.004  46.234 -10.556  0.00  0.00    +0.000 A 
ATOM     13  C   UNL     1     -33.773  44.715 -11.219  0.00  0.00    +0.000 A 
ATOM     14  C   UNL     1     -34.050  44.958  -4.726  0.00  0.00    +0.000 A 
ATOM     15  C   UNL     1     -34.563  45.242 -12.236  0.00  0.00    +0.000 A 
ATOM     16  C   UNL     1     -35.680  46.002 -11.895  0.00  0.00    +0.000 A 
ATOM     17  C   UNL     1     -32.042  43.601  -4.096  0.00  0.00    +0.000 C 
ENDROOT
BRANCH  10  18
ATOM     18  O   UNL     1     -35.950  46.243  -5.222  0.00  0.00    +0.000 OA
ATOM     19  H   UNL     1     -35.949  46.207  -4.236  0.00  0.00    +0.000 HD
ENDBRANCH  10  18
BRANCH  12  20
ATOM     20  O   UNL     1     -37.111  46.987 -10.291  0.00  0.00    +0.000 OA
ATOM     21  H   UNL     1     -37.910  46.524 -10.599  0.00  0.00    +0.000 HD
ENDBRANCH  12  20
BRANCH  15  22
ATOM     22  O   UNL     1     -34.161  44.959 -13.517  0.00  0.00    +0.000 OA
ATOM     23  C   UNL     1     -33.054  44.105 -13.617  0.00  0.00    +0.000 C 
ENDBRANCH  15  22
TORSDOF 3
ENDMDL
MODEL 8
REMARK VINA RESULT:      -5.9      5.105      9.357
REMARK  Name = 10639_Physcion.pdbqt.pdb
REMARK  3 active torsions:
REMARK  status: ('A' for Active; 'I' for Inactive)
REMARK    1  A    between atoms: C_10  and  O_18
REMARK    2  A    between atoms: C_12  and  O_20
REMARK    3  A    between atoms: C_15  and  O_22
REMARK                            x       y       z     vdW  Elec       q    Type
REMARK                         _______ _______ _______ _____ _____    ______ ____
ROOT
ATOM      1  O   UNL     1     -33.162  46.854 -15.878  0.00  0.00    +0.000 OA
ATOM      2  O   UNL     1     -37.858  49.161 -14.875  0.00  0.00    +0.000 OA
ATOM      3  C   UNL     1     -36.188  47.684 -14.173  0.00  0.00    +0.000 A 
ATOM      4  C   UNL     1     -34.961  47.085 -14.443  0.00  0.00    +0.000 A 
ATOM      5  C   UNL     1     -34.829  48.374 -16.656  0.00  0.00    +0.000 A 
ATOM      6  C   UNL     1     -36.061  48.959 -16.359  0.00  0.00    +0.000 A 
ATOM      7  C   UNL     1     -34.239  47.409 -15.693  0.00  0.00    +0.000 C 
ATOM      8  C   UNL     1     -36.780  48.638 -15.117  0.00  0.00    +0.000 C 
ATOM      9  C   UNL     1     -36.883  47.389 -12.997  0.00  0.00    +0.000 A 
ATOM     10  C   UNL     1     -34.433  46.179 -13.513  0.00  0.00    +0.000 A 
ATOM     11  C   UNL     1     -36.346  46.488 -12.085  0.00  0.00    +0.000 A 
ATOM     12  C   UNL     1     -34.201  48.727 -17.858  0.00  0.00    +0.000 A 
ATOM     13  C   UNL     1     -36.655  49.873 -17.235  0.00  0.00    +0.000 A 
ATOM     14  C   UNL     1     -35.121  45.880 -12.337  0.00  0.00    +0.000 A 
ATOM     15  C   UNL     1     -36.026  50.219 -18.427  0.00  0.00    +0.000 A 
ATOM     16  C   UNL     1     -34.796  49.640 -18.731  0.00  0.00    +0.000 A 
ATOM     17  C   UNL     1     -37.095  46.174 -10.824  0.00  0.00    +0.000 C 
ENDROOT
BRANCH  10  18
ATOM     18  O   UNL     1     -33.234  45.541 -13.690  0.00  0.00    +0.000 OA
ATOM     19  H   UNL     1     -33.367  44.778 -14.300  0.00  0.00    +0.000 HD
ENDBRANCH  10  18
BRANCH  12  20
ATOM     20  O   UNL     1     -32.996  48.197 -18.216  0.00  0.00    +0.000 OA
ATOM     21  H   UNL     1     -33.070  47.755 -19.080  0.00  0.00    +0.000 HD
ENDBRANCH  12  20
BRANCH  15  22
ATOM     22  O   UNL     1     -36.691  51.123 -19.217  0.00  0.00    +0.000 OA
ATOM     23  C   UNL     1     -37.832  51.693 -18.635  0.00  0.00    +0.000 C 
ENDBRANCH  15  22
TORSDOF 3
ENDMDL
MODEL 9
REMARK VINA RESULT:      -5.8      1.498      3.261
REMARK  Name = 10639_Physcion.pdbqt.pdb
REMARK  3 active torsions:
REMARK  status: ('A' for Active; 'I' for Inactive)
REMARK    1  A    between atoms: C_10  and  O_18
REMARK    2  A    between atoms: C_12  and  O_20
REMARK    3  A    between atoms: C_15  and  O_22
REMARK                            x       y       z     vdW  Elec       q    Type
REMARK                         _______ _______ _______ _____ _____    ______ ____
ROOT
ATOM      1  O   UNL     1     -36.582  46.675  -7.760  0.00  0.00    +0.000 OA
ATOM      2  O   UNL     1     -32.327  43.866  -9.302  0.00  0.00    +0.000 OA
ATOM      3  C   UNL     1     -34.209  45.105  -9.919  0.00  0.00    +0.000 A 
ATOM      4  C   UNL     1     -35.320  45.838  -9.507  0.00  0.00    +0.000 A 
ATOM      5  C   UNL     1     -34.678  45.419  -7.060  0.00  0.00    +0.000 A 
ATOM      6  C   UNL     1     -33.573  44.690  -7.501  0.00  0.00    +0.000 A 
ATOM      7  C   UNL     1     -35.592  46.020  -8.065  0.00  0.00    +0.000 C 
ATOM      8  C   UNL     1     -33.300  44.508  -8.935  0.00  0.00    +0.000 C 
ATOM      9  C   UNL     1     -33.937  44.923 -11.277  0.00  0.00    +0.000 A 
ATOM     10  C   UNL     1     -36.162  46.391 -10.482  0.00  0.00    +0.000 A 
ATOM     11  C   UNL     1     -34.782  45.478 -12.231  0.00  0.00    +0.000 A 
ATOM     12  C   UNL     1     -34.875  45.552  -5.679  0.00  0.00    +0.000 A 
ATOM     13  C   UNL     1     -32.684  44.106  -6.593  0.00  0.00    +0.000 A 
ATOM     14  C   UNL     1     -35.896  46.213 -11.840  0.00  0.00    +0.000 A 
ATOM     15  C   UNL     1     -32.886  44.242  -5.223  0.00  0.00    +0.000 A 
ATOM     16  C   UNL     1     -33.987  44.968  -4.773  0.00  0.00    +0.000 A 
ATOM     17  C   UNL     1     -34.488  45.281 -13.688  0.00  0.00    +0.000 C 
ENDROOT
BRANCH  10  18
ATOM     18  O   UNL     1     -37.276  47.126 -10.176  0.00  0.00    +0.000 OA
ATOM     19  H   UNL     1     -37.868  46.584  -9.603  0.00  0.00    +0.000 HD
ENDBRANCH  10  18
BRANCH  12  20
ATOM     20  O   UNL     1     -35.932  46.250  -5.173  0.00  0.00    +0.000 OA
ATOM     21  H   UNL     1     -36.371  46.752  -5.883  0.00  0.00    +0.000 HD
ENDBRANCH  12  20
BRANCH  15  22
ATOM     22  O   UNL     1     -31.958  43.632  -4.416  0.00  0.00    +0.000 OA
ATOM     23  C   UNL     1     -32.408  43.320  -3.125  0.00  0.00    +0.000 C 
ENDBRANCH  15  22
TORSDOF 3
ENDMDL
