MODEL 1
REMARK VINA RESULT:      -6.7      0.000      0.000
REMARK  Name = 10940649_MilnamideD.pdbqt.pdb
REMARK  7 active torsions:
REMARK  status: ('A' for Active; 'I' for Inactive)
REMARK    1  A    between atoms: C_3  and  C_8
REMARK    2  A    between atoms: C_22  and  C_25
REMARK    3  A    between atoms: C_22  and  C_38
REMARK    4  A    between atoms: N_24  and  C_27
REMARK    5  A    between atoms: C_27  and  C_28
REMARK    6  A    between atoms: C_32  and  C_35
REMARK    7  A    between atoms: C_35  and  O_36
REMARK                            x       y       z     vdW  Elec       q    Type
REMARK                         _______ _______ _______ _____ _____    ______ ____
ROOT
ATOM      1  O   UNL     1     -34.781  45.645 -12.881  0.00  0.00    +0.000 OA
ATOM      2  N   UNL     1     -36.947  46.067 -12.345  0.00  0.00    +0.000 N 
ATOM      3  C   UNL     1     -35.726  45.458 -12.123  0.00  0.00    +0.000 C 
ATOM      4  H   UNL     1     -37.739  45.804 -11.748  0.00  0.00    +0.000 HD
ATOM      5  C   UNL     1     -37.222  46.982 -13.389  0.00  0.00    +0.000 C 
ENDROOT
BRANCH   3   9
ATOM      6  N   UNL     1     -36.511  43.393 -10.801  0.00  0.00    +0.000 NA
ATOM      7  N   UNL     1     -35.129  42.349  -7.282  0.00  0.00    +0.000 N 
ATOM      8  C   UNL     1     -34.793  45.139  -9.739  0.00  0.00    +0.000 C 
ATOM      9  C   UNL     1     -35.632  44.569 -10.920  0.00  0.00    +0.000 C 
ATOM     10  C   UNL     1     -34.678  44.170  -8.520  0.00  0.00    +0.000 A 
ATOM     11  C   UNL     1     -35.395  42.993  -8.440  0.00  0.00    +0.000 A 
ATOM     12  C   UNL     1     -35.494  46.401  -9.153  0.00  0.00    +0.000 C 
ATOM     13  C   UNL     1     -33.324  45.364 -10.202  0.00  0.00    +0.000 C 
ATOM     14  C   UNL     1     -33.929  44.235  -7.290  0.00  0.00    +0.000 A 
ATOM     15  C   UNL     1     -36.210  42.749  -9.550  0.00  0.00    +0.000 C 
ATOM     16  C   UNL     1     -34.230  43.080  -6.541  0.00  0.00    +0.000 A 
ATOM     17  C   UNL     1     -36.247  42.432 -11.860  0.00  0.00    +0.000 C 
ATOM     18  C   UNL     1     -33.028  45.172  -6.746  0.00  0.00    +0.000 A 
ATOM     19  C   UNL     1     -35.715  41.111  -6.897  0.00  0.00    +0.000 C 
ATOM     20  C   UNL     1     -33.660  42.837  -5.282  0.00  0.00    +0.000 A 
ATOM     21  C   UNL     1     -32.458  44.936  -5.495  0.00  0.00    +0.000 A 
ATOM     22  C   UNL     1     -32.769  43.787  -4.779  0.00  0.00    +0.000 A 
ENDBRANCH   3   9
BRANCH   5  25
ATOM     23  O   UNL     1     -35.460  48.446 -13.806  0.00  0.00    +0.000 OA
ATOM     24  N   UNL     1     -35.893  46.790 -15.436  0.00  0.00    +0.000 N 
ATOM     25  C   UNL     1     -36.120  47.503 -14.234  0.00  0.00    +0.000 C 
ATOM     26  C   UNL     1     -36.740  45.696 -15.922  0.00  0.00    +0.000 C 
BRANCH  24  27
ATOM     27  C   UNL     1     -34.783  47.093 -16.244  0.00  0.00    +0.000 C 
ATOM     28  C   UNL     1     -33.664  46.197 -16.339  0.00  0.00    +0.000 C 
ATOM     29  C   UNL     1     -32.647  45.391 -16.429  0.00  0.00    +0.000 C 
ATOM     30  C   UNL     1     -32.459  44.729 -17.778  0.00  0.00    +0.000 C 
BRANCH  27  31
ATOM     31  C   UNL     1     -34.727  48.311 -17.039  0.00  0.00    +0.000 C 
ATOM     32  C   UNL     1     -33.584  48.546 -18.007  0.00  0.00    +0.000 C 
ATOM     33  C   UNL     1     -36.015  49.034 -17.390  0.00  0.00    +0.000 C 
ENDBRANCH  27  31
BRANCH  29  35
ATOM     34  O   UNL     1     -30.565  44.939 -15.298  0.00  0.00    +0.000 OA
ATOM     35  C   UNL     1     -31.764  45.177 -15.251  0.00  0.00    +0.000 C 
BRANCH  35  36
ATOM     36  O   UNL     1     -32.390  45.261 -14.058  0.00  0.00    +0.000 OA
ATOM     37  H   UNL     1     -33.266  44.847 -14.197  0.00  0.00    +0.000 HD
ENDBRANCH  35  36
ENDBRANCH  29  35
ENDBRANCH  24  27
ENDBRANCH   5  25
BRANCH   5  38
ATOM     38  C   UNL     1     -38.553  47.697 -13.561  0.00  0.00    +0.000 C 
ATOM     39  C   UNL     1     -39.630  46.590 -13.799  0.00  0.00    +0.000 C 
ATOM     40  C   UNL     1     -38.884  48.418 -12.223  0.00  0.00    +0.000 C 
ATOM     41  C   UNL     1     -38.576  48.688 -14.750  0.00  0.00    +0.000 C 
ENDBRANCH   5  38
TORSDOF 7
ENDMDL
MODEL 2
REMARK VINA RESULT:      -6.6     20.647     23.340
REMARK  Name = 10940649_MilnamideD.pdbqt.pdb
REMARK  7 active torsions:
REMARK  status: ('A' for Active; 'I' for Inactive)
REMARK    1  A    between atoms: C_3  and  C_8
REMARK    2  A    between atoms: C_22  and  C_25
REMARK    3  A    between atoms: C_22  and  C_38
REMARK    4  A    between atoms: N_24  and  C_27
REMARK    5  A    between atoms: C_27  and  C_28
REMARK    6  A    between atoms: C_32  and  C_35
REMARK    7  A    between atoms: C_35  and  O_36
REMARK                            x       y       z     vdW  Elec       q    Type
REMARK                         _______ _______ _______ _____ _____    ______ ____
ROOT
ATOM      1  O   UNL     1     -29.221  62.266 -24.961  0.00  0.00    +0.000 OA
ATOM      2  N   UNL     1     -27.714  63.959 -25.077  0.00  0.00    +0.000 N 
ATOM      3  C   UNL     1     -28.751  63.282 -24.464  0.00  0.00    +0.000 C 
ATOM      4  H   UNL     1     -27.418  64.860 -24.683  0.00  0.00    +0.000 HD
ATOM      5  C   UNL     1     -27.062  63.548 -26.264  0.00  0.00    +0.000 C 
ENDROOT
BRANCH   3   9
ATOM      6  N   UNL     1     -28.642  63.461 -21.898  0.00  0.00    +0.000 NA
ATOM      7  N   UNL     1     -31.058  65.651 -19.718  0.00  0.00    +0.000 N 
ATOM      8  C   UNL     1     -30.605  64.632 -23.280  0.00  0.00    +0.000 C 
ATOM      9  C   UNL     1     -29.256  63.860 -23.176  0.00  0.00    +0.000 C 
ATOM     10  C   UNL     1     -31.079  65.258 -21.930  0.00  0.00    +0.000 A 
ATOM     11  C   UNL     1     -30.443  65.004 -20.732  0.00  0.00    +0.000 A 
ATOM     12  C   UNL     1     -31.749  63.646 -23.661  0.00  0.00    +0.000 C 
ATOM     13  C   UNL     1     -30.440  65.845 -24.240  0.00  0.00    +0.000 C 
ATOM     14  C   UNL     1     -32.180  66.124 -21.592  0.00  0.00    +0.000 A 
ATOM     15  C   UNL     1     -29.337  64.156 -20.846  0.00  0.00    +0.000 C 
ATOM     16  C   UNL     1     -32.136  66.354 -20.203  0.00  0.00    +0.000 A 
ATOM     17  C   UNL     1     -27.246  63.865 -21.838  0.00  0.00    +0.000 C 
ATOM     18  C   UNL     1     -33.210  66.729 -22.340  0.00  0.00    +0.000 A 
ATOM     19  C   UNL     1     -30.649  65.587 -18.357  0.00  0.00    +0.000 C 
ATOM     20  C   UNL     1     -33.078  67.164 -19.550  0.00  0.00    +0.000 A 
ATOM     21  C   UNL     1     -34.150  67.534 -21.696  0.00  0.00    +0.000 A 
ATOM     22  C   UNL     1     -34.081  67.748 -20.326  0.00  0.00    +0.000 A 
ENDBRANCH   3   9
BRANCH   5  25
ATOM     23  O   UNL     1     -26.737  61.246 -26.394  0.00  0.00    +0.000 OA
ATOM     24  N   UNL     1     -28.365  62.186 -27.827  0.00  0.00    +0.000 N 
ATOM     25  C   UNL     1     -27.345  62.213 -26.845  0.00  0.00    +0.000 C 
ATOM     26  C   UNL     1     -29.030  63.379 -28.362  0.00  0.00    +0.000 C 
BRANCH  24  27
ATOM     27  C   UNL     1     -28.827  60.961 -28.340  0.00  0.00    +0.000 C 
ATOM     28  C   UNL     1     -30.042  60.364 -27.860  0.00  0.00    +0.000 C 
ATOM     29  C   UNL     1     -31.141  59.816 -27.429  0.00  0.00    +0.000 C 
ATOM     30  C   UNL     1     -32.278  59.767 -28.429  0.00  0.00    +0.000 C 
BRANCH  27  31
ATOM     31  C   UNL     1     -28.113  60.257 -29.395  0.00  0.00    +0.000 C 
ATOM     32  C   UNL     1     -28.873  59.488 -30.458  0.00  0.00    +0.000 C 
ATOM     33  C   UNL     1     -26.742  60.747 -29.825  0.00  0.00    +0.000 C 
ENDBRANCH  27  31
BRANCH  29  35
ATOM     34  O   UNL     1     -31.453  58.132 -25.731  0.00  0.00    +0.000 OA
ATOM     35  C   UNL     1     -31.212  59.290 -26.039  0.00  0.00    +0.000 C 
BRANCH  35  36
ATOM     36  O   UNL     1     -30.987  60.212 -25.078  0.00  0.00    +0.000 OA
ATOM     37  H   UNL     1     -30.079  60.540 -25.243  0.00  0.00    +0.000 HD
ENDBRANCH  35  36
ENDBRANCH  29  35
ENDBRANCH  24  27
ENDBRANCH   5  25
BRANCH   5  38
ATOM     38  C   UNL     1     -25.871  64.272 -26.872  0.00  0.00    +0.000 C 
ATOM     39  C   UNL     1     -26.245  65.788 -26.922  0.00  0.00    +0.000 C 
ATOM     40  C   UNL     1     -24.664  64.099 -25.906  0.00  0.00    +0.000 C 
ATOM     41  C   UNL     1     -25.517  63.791 -28.301  0.00  0.00    +0.000 C 
ENDBRANCH   5  38
TORSDOF 7
ENDMDL
MODEL 3
REMARK VINA RESULT:      -6.4     20.075     23.401
REMARK  Name = 10940649_MilnamideD.pdbqt.pdb
REMARK  7 active torsions:
REMARK  status: ('A' for Active; 'I' for Inactive)
REMARK    1  A    between atoms: C_3  and  C_8
REMARK    2  A    between atoms: C_22  and  C_25
REMARK    3  A    between atoms: C_22  and  C_38
REMARK    4  A    between atoms: N_24  and  C_27
REMARK    5  A    between atoms: C_27  and  C_28
REMARK    6  A    between atoms: C_32  and  C_35
REMARK    7  A    between atoms: C_35  and  O_36
REMARK                            x       y       z     vdW  Elec       q    Type
REMARK                         _______ _______ _______ _____ _____    ______ ____
ROOT
ATOM      1  O   UNL     1     -30.375  64.636 -20.920  0.00  0.00    +0.000 OA
ATOM      2  N   UNL     1     -31.492  65.939 -22.406  0.00  0.00    +0.000 N 
ATOM      3  C   UNL     1     -30.849  64.772 -22.042  0.00  0.00    +0.000 C 
ATOM      4  H   UNL     1     -31.783  66.053 -23.383  0.00  0.00    +0.000 HD
ATOM      5  C   UNL     1     -31.722  67.043 -21.549  0.00  0.00    +0.000 C 
ENDROOT
BRANCH   3   9
ATOM      6  N   UNL     1     -31.831  62.688 -23.190  0.00  0.00    +0.000 NA
ATOM      7  N   UNL     1     -30.108  60.752 -26.134  0.00  0.00    +0.000 N 
ATOM      8  C   UNL     1     -29.391  63.581 -23.808  0.00  0.00    +0.000 C 
ATOM      9  C   UNL     1     -30.767  63.701 -23.087  0.00  0.00    +0.000 C 
ATOM     10  C   UNL     1     -29.355  62.487 -24.921  0.00  0.00    +0.000 A 
ATOM     11  C   UNL     1     -30.395  61.604 -25.125  0.00  0.00    +0.000 A 
ATOM     12  C   UNL     1     -28.302  63.123 -22.793  0.00  0.00    +0.000 C 
ATOM     13  C   UNL     1     -29.074  64.911 -24.551  0.00  0.00    +0.000 C 
ATOM     14  C   UNL     1     -28.354  62.116 -25.890  0.00  0.00    +0.000 A 
ATOM     15  C   UNL     1     -31.477  61.792 -24.260  0.00  0.00    +0.000 C 
ATOM     16  C   UNL     1     -28.858  61.031 -26.635  0.00  0.00    +0.000 A 
ATOM     17  C   UNL     1     -33.105  63.297 -23.536  0.00  0.00    +0.000 C 
ATOM     18  C   UNL     1     -27.067  62.601 -26.196  0.00  0.00    +0.000 A 
ATOM     19  C   UNL     1     -30.973  59.716 -26.584  0.00  0.00    +0.000 C 
ATOM     20  C   UNL     1     -28.121  60.428 -27.666  0.00  0.00    +0.000 A 
ATOM     21  C   UNL     1     -26.330  62.005 -27.220  0.00  0.00    +0.000 A 
ATOM     22  C   UNL     1     -26.852  60.940 -27.942  0.00  0.00    +0.000 A 
ENDBRANCH   3   9
BRANCH   5  25
ATOM     23  O   UNL     1     -32.283  66.412 -19.379  0.00  0.00    +0.000 OA
ATOM     24  N   UNL     1     -30.152  67.380 -19.702  0.00  0.00    +0.000 N 
ATOM     25  C   UNL     1     -31.435  66.933 -20.098  0.00  0.00    +0.000 C 
ATOM     26  C   UNL     1     -29.190  68.036 -20.596  0.00  0.00    +0.000 C 
BRANCH  24  27
ATOM     27  C   UNL     1     -29.706  67.187 -18.382  0.00  0.00    +0.000 C 
ATOM     28  C   UNL     1     -29.236  65.906 -17.934  0.00  0.00    +0.000 C 
ATOM     29  C   UNL     1     -28.810  64.748 -17.521  0.00  0.00    +0.000 C 
ATOM     30  C   UNL     1     -27.333  64.676 -17.197  0.00  0.00    +0.000 C 
BRANCH  27  31
ATOM     31  C   UNL     1     -29.678  68.278 -17.418  0.00  0.00    +0.000 C 
ATOM     32  C   UNL     1     -30.962  68.787 -16.793  0.00  0.00    +0.000 C 
ATOM     33  C   UNL     1     -28.432  68.503 -16.581  0.00  0.00    +0.000 C 
ENDBRANCH  27  31
BRANCH  29  35
ATOM     34  O   UNL     1     -29.535  62.559 -16.811  0.00  0.00    +0.000 OA
ATOM     35  C   UNL     1     -29.761  63.609 -17.395  0.00  0.00    +0.000 C 
BRANCH  35  36
ATOM     36  O   UNL     1     -30.954  63.805 -17.996  0.00  0.00    +0.000 OA
ATOM     37  H   UNL     1     -30.740  64.169 -18.880  0.00  0.00    +0.000 HD
ENDBRANCH  35  36
ENDBRANCH  29  35
ENDBRANCH  24  27
ENDBRANCH   5  25
BRANCH   5  38
ATOM     38  C   UNL     1     -32.503  68.283 -21.955  0.00  0.00    +0.000 C 
ATOM     39  C   UNL     1     -31.792  68.867 -23.217  0.00  0.00    +0.000 C 
ATOM     40  C   UNL     1     -33.933  67.833 -22.366  0.00  0.00    +0.000 C 
ATOM     41  C   UNL     1     -32.553  69.371 -20.854  0.00  0.00    +0.000 C 
ENDBRANCH   5  38
TORSDOF 7
ENDMDL
MODEL 4
REMARK VINA RESULT:      -6.2     17.186     20.776
REMARK  Name = 10940649_MilnamideD.pdbqt.pdb
REMARK  7 active torsions:
REMARK  status: ('A' for Active; 'I' for Inactive)
REMARK    1  A    between atoms: C_3  and  C_8
REMARK    2  A    between atoms: C_22  and  C_25
REMARK    3  A    between atoms: C_22  and  C_38
REMARK    4  A    between atoms: N_24  and  C_27
REMARK    5  A    between atoms: C_27  and  C_28
REMARK    6  A    between atoms: C_32  and  C_35
REMARK    7  A    between atoms: C_35  and  O_36
REMARK                            x       y       z     vdW  Elec       q    Type
REMARK                         _______ _______ _______ _____ _____    ______ ____
ROOT
ATOM      1  O   UNL     1     -35.122  64.104  -7.802  0.00  0.00    +0.000 OA
ATOM      2  N   UNL     1     -36.751  63.388  -9.213  0.00  0.00    +0.000 N 
ATOM      3  C   UNL     1     -35.738  64.255  -8.850  0.00  0.00    +0.000 C 
ATOM      4  H   UNL     1     -37.308  63.608 -10.046  0.00  0.00    +0.000 HD
ATOM      5  C   UNL     1     -37.141  62.241  -8.480  0.00  0.00    +0.000 C 
ENDROOT
BRANCH   3   9
ATOM      6  N   UNL     1     -36.372  66.513  -9.912  0.00  0.00    +0.000 NA
ATOM      7  N   UNL     1     -34.305  68.308 -12.721  0.00  0.00    +0.000 N 
ATOM      8  C   UNL     1     -34.306  65.092 -10.828  0.00  0.00    +0.000 C 
ATOM      9  C   UNL     1     -35.445  65.374  -9.804  0.00  0.00    +0.000 C 
ATOM     10  C   UNL     1     -33.996  66.293 -11.776  0.00  0.00    +0.000 A 
ATOM     11  C   UNL     1     -34.776  67.431 -11.807  0.00  0.00    +0.000 A 
ATOM     12  C   UNL     1     -34.736  63.949 -11.795  0.00  0.00    +0.000 C 
ATOM     13  C   UNL     1     -32.972  64.836 -10.068  0.00  0.00    +0.000 C 
ATOM     14  C   UNL     1     -32.978  66.510 -12.773  0.00  0.00    +0.000 A 
ATOM     15  C   UNL     1     -35.845  67.411 -10.906  0.00  0.00    +0.000 C 
ATOM     16  C   UNL     1     -33.197  67.781 -13.342  0.00  0.00    +0.000 A 
ATOM     17  C   UNL     1     -36.449  67.248  -8.659  0.00  0.00    +0.000 C 
ATOM     18  C   UNL     1     -31.896  65.741 -13.244  0.00  0.00    +0.000 A 
ATOM     19  C   UNL     1     -34.892  69.574 -12.999  0.00  0.00    +0.000 C 
ATOM     20  C   UNL     1     -32.372  68.298 -14.352  0.00  0.00    +0.000 A 
ATOM     21  C   UNL     1     -31.073  66.250 -14.249  0.00  0.00    +0.000 A 
ATOM     22  C   UNL     1     -31.308  67.508 -14.790  0.00  0.00    +0.000 A 
ENDBRANCH   3   9
BRANCH   5  25
ATOM     23  O   UNL     1     -35.351  61.077  -7.552  0.00  0.00    +0.000 OA
ATOM     24  N   UNL     1     -36.737  62.282  -6.066  0.00  0.00    +0.000 N 
ATOM     25  C   UNL     1     -36.330  61.782  -7.326  0.00  0.00    +0.000 C 
ATOM     26  C   UNL     1     -37.944  63.088  -5.845  0.00  0.00    +0.000 C 
BRANCH  24  27
ATOM     27  C   UNL     1     -35.960  62.042  -4.919  0.00  0.00    +0.000 C 
ATOM     28  C   UNL     1     -34.646  62.605  -4.779  0.00  0.00    +0.000 C 
ATOM     29  C   UNL     1     -33.455  63.112  -4.645  0.00  0.00    +0.000 C 
ATOM     30  C   UNL     1     -33.312  64.161  -3.563  0.00  0.00    +0.000 C 
BRANCH  27  31
ATOM     31  C   UNL     1     -36.458  61.235  -3.814  0.00  0.00    +0.000 C 
ATOM     32  C   UNL     1     -37.171  59.924  -4.080  0.00  0.00    +0.000 C 
ATOM     33  C   UNL     1     -35.781  61.326  -2.459  0.00  0.00    +0.000 C 
ENDBRANCH  27  31
BRANCH  29  35
ATOM     34  O   UNL     1     -32.380  62.618  -6.747  0.00  0.00    +0.000 OA
ATOM     35  C   UNL     1     -32.348  62.647  -5.526  0.00  0.00    +0.000 C 
BRANCH  35  36
ATOM     36  O   UNL     1     -31.245  62.232  -4.869  0.00  0.00    +0.000 OA
ATOM     37  H   UNL     1     -31.548  62.024  -3.961  0.00  0.00    +0.000 HD
ENDBRANCH  35  36
ENDBRANCH  29  35
ENDBRANCH  24  27
ENDBRANCH   5  25
BRANCH   5  38
ATOM     38  C   UNL     1     -38.207  61.261  -8.944  0.00  0.00    +0.000 C 
ATOM     39  C   UNL     1     -39.569  62.024  -8.896  0.00  0.00    +0.000 C 
ATOM     40  C   UNL     1     -37.905  60.894 -10.425  0.00  0.00    +0.000 C 
ATOM     41  C   UNL     1     -38.307  59.992  -8.062  0.00  0.00    +0.000 C 
ENDBRANCH   5  38
TORSDOF 7
ENDMDL
MODEL 5
REMARK VINA RESULT:      -6.0      4.196      9.730
REMARK  Name = 10940649_MilnamideD.pdbqt.pdb
REMARK  7 active torsions:
REMARK  status: ('A' for Active; 'I' for Inactive)
REMARK    1  A    between atoms: C_3  and  C_8
REMARK    2  A    between atoms: C_22  and  C_25
REMARK    3  A    between atoms: C_22  and  C_38
REMARK    4  A    between atoms: N_24  and  C_27
REMARK    5  A    between atoms: C_27  and  C_28
REMARK    6  A    between atoms: C_32  and  C_35
REMARK    7  A    between atoms: C_35  and  O_36
REMARK                            x       y       z     vdW  Elec       q    Type
REMARK                         _______ _______ _______ _____ _____    ______ ____
ROOT
ATOM      1  O   UNL     1     -33.788  46.424 -17.647  0.00  0.00    +0.000 OA
ATOM      2  N   UNL     1     -33.392  44.893 -16.017  0.00  0.00    +0.000 N 
ATOM      3  C   UNL     1     -33.181  45.427 -17.274  0.00  0.00    +0.000 C 
ATOM      4  H   UNL     1     -32.942  44.001 -15.783  0.00  0.00    +0.000 HD
ATOM      5  C   UNL     1     -34.249  45.443 -15.033  0.00  0.00    +0.000 C 
ENDROOT
BRANCH   3   9
ATOM      6  N   UNL     1     -30.741  44.962 -17.951  0.00  0.00    +0.000 NA
ATOM      7  N   UNL     1     -29.660  42.591 -20.883  0.00  0.00    +0.000 N 
ATOM      8  C   UNL     1     -32.777  43.990 -19.380  0.00  0.00    +0.000 C 
ATOM      9  C   UNL     1     -32.182  44.720 -18.139  0.00  0.00    +0.000 C 
ATOM     10  C   UNL     1     -31.715  43.228 -20.234  0.00  0.00    +0.000 A 
ATOM     11  C   UNL     1     -30.360  43.335 -19.998  0.00  0.00    +0.000 A 
ATOM     12  C   UNL     1     -33.377  45.034 -20.368  0.00  0.00    +0.000 C 
ATOM     13  C   UNL     1     -33.770  42.888 -18.911  0.00  0.00    +0.000 C 
ATOM     14  C   UNL     1     -31.828  42.351 -21.372  0.00  0.00    +0.000 A 
ATOM     15  C   UNL     1     -30.035  44.169 -18.923  0.00  0.00    +0.000 C 
ATOM     16  C   UNL     1     -30.526  41.968 -21.751  0.00  0.00    +0.000 A 
ATOM     17  C   UNL     1     -30.304  44.527 -16.634  0.00  0.00    +0.000 C 
ATOM     18  C   UNL     1     -32.917  41.853 -22.115  0.00  0.00    +0.000 A 
ATOM     19  C   UNL     1     -28.240  42.496 -20.910  0.00  0.00    +0.000 C 
ATOM     20  C   UNL     1     -30.286  41.109 -22.835  0.00  0.00    +0.000 A 
ATOM     21  C   UNL     1     -32.684  41.000 -23.194  0.00  0.00    +0.000 A 
ATOM     22  C   UNL     1     -31.390  40.634 -23.544  0.00  0.00    +0.000 A 
ENDBRANCH   3   9
BRANCH   5  25
ATOM     23  O   UNL     1     -34.160  47.769 -15.032  0.00  0.00    +0.000 OA
ATOM     24  N   UNL     1     -36.183  46.770 -15.734  0.00  0.00    +0.000 N 
ATOM     25  C   UNL     1     -34.857  46.780 -15.237  0.00  0.00    +0.000 C 
ATOM     26  C   UNL     1     -36.988  45.558 -15.921  0.00  0.00    +0.000 C 
BRANCH  24  27
ATOM     27  C   UNL     1     -36.812  47.970 -16.110  0.00  0.00    +0.000 C 
ATOM     28  C   UNL     1     -36.505  48.611 -17.359  0.00  0.00    +0.000 C 
ATOM     29  C   UNL     1     -36.232  49.198 -18.488  0.00  0.00    +0.000 C 
ATOM     30  C   UNL     1     -37.355  49.207 -19.504  0.00  0.00    +0.000 C 
BRANCH  27  31
ATOM     31  C   UNL     1     -37.816  48.604 -15.268  0.00  0.00    +0.000 C 
ATOM     32  C   UNL     1     -39.225  48.821 -15.782  0.00  0.00    +0.000 C 
ATOM     33  C   UNL     1     -37.701  48.495 -13.758  0.00  0.00    +0.000 C 
ENDBRANCH  27  31
BRANCH  29  35
ATOM     34  O   UNL     1     -34.615  50.634 -19.557  0.00  0.00    +0.000 OA
ATOM     35  C   UNL     1     -34.889  49.802 -18.704  0.00  0.00    +0.000 C 
BRANCH  35  36
ATOM     36  O   UNL     1     -33.932  49.357 -17.863  0.00  0.00    +0.000 OA
ATOM     37  H   UNL     1     -34.079  48.391 -17.793  0.00  0.00    +0.000 HD
ENDBRANCH  35  36
ENDBRANCH  29  35
ENDBRANCH  24  27
ENDBRANCH   5  25
BRANCH   5  38
ATOM     38  C   UNL     1     -34.401  44.878 -13.630  0.00  0.00    +0.000 C 
ATOM     39  C   UNL     1     -32.959  44.591 -13.103  0.00  0.00    +0.000 C 
ATOM     40  C   UNL     1     -35.035  45.983 -12.737  0.00  0.00    +0.000 C 
ATOM     41  C   UNL     1     -35.230  43.571 -13.575  0.00  0.00    +0.000 C 
ENDBRANCH   5  38
TORSDOF 7
ENDMDL
MODEL 6
REMARK VINA RESULT:      -5.9      3.414     10.757
REMARK  Name = 10940649_MilnamideD.pdbqt.pdb
REMARK  7 active torsions:
REMARK  status: ('A' for Active; 'I' for Inactive)
REMARK    1  A    between atoms: C_3  and  C_8
REMARK    2  A    between atoms: C_22  and  C_25
REMARK    3  A    between atoms: C_22  and  C_38
REMARK    4  A    between atoms: N_24  and  C_27
REMARK    5  A    between atoms: C_27  and  C_28
REMARK    6  A    between atoms: C_32  and  C_35
REMARK    7  A    between atoms: C_35  and  O_36
REMARK                            x       y       z     vdW  Elec       q    Type
REMARK                         _______ _______ _______ _____ _____    ______ ____
ROOT
ATOM      1  O   UNL     1     -36.214  47.574 -16.399  0.00  0.00    +0.000 OA
ATOM      2  N   UNL     1     -34.551  46.078 -16.784  0.00  0.00    +0.000 N 
ATOM      3  C   UNL     1     -35.487  47.004 -17.203  0.00  0.00    +0.000 C 
ATOM      4  H   UNL     1     -34.034  45.549 -17.496  0.00  0.00    +0.000 HD
ATOM      5  C   UNL     1     -34.290  45.738 -15.434  0.00  0.00    +0.000 C 
ENDROOT
BRANCH   3   9
ATOM      6  N   UNL     1     -35.055  46.252 -19.627  0.00  0.00    +0.000 NA
ATOM      7  N   UNL     1     -35.837  48.421 -22.800  0.00  0.00    +0.000 N 
ATOM      8  C   UNL     1     -35.902  48.725 -19.081  0.00  0.00    +0.000 C 
ATOM      9  C   UNL     1     -35.557  47.260 -18.678  0.00  0.00    +0.000 C 
ATOM     10  C   UNL     1     -36.010  48.947 -20.623  0.00  0.00    +0.000 A 
ATOM     11  C   UNL     1     -35.668  47.972 -21.537  0.00  0.00    +0.000 A 
ATOM     12  C   UNL     1     -34.750  49.678 -18.643  0.00  0.00    +0.000 C 
ATOM     13  C   UNL     1     -37.307  49.102 -18.529  0.00  0.00    +0.000 C 
ATOM     14  C   UNL     1     -36.406  50.082 -21.418  0.00  0.00    +0.000 A 
ATOM     15  C   UNL     1     -35.236  46.776 -20.956  0.00  0.00    +0.000 C 
ATOM     16  C   UNL     1     -36.290  49.719 -22.774  0.00  0.00    +0.000 A 
ATOM     17  C   UNL     1     -35.822  45.020 -19.538  0.00  0.00    +0.000 C 
ATOM     18  C   UNL     1     -36.847  51.384 -21.107  0.00  0.00    +0.000 A 
ATOM     19  C   UNL     1     -35.564  47.657 -23.970  0.00  0.00    +0.000 C 
ATOM     20  C   UNL     1     -36.603  50.608 -23.814  0.00  0.00    +0.000 A 
ATOM     21  C   UNL     1     -37.159  52.272 -22.137  0.00  0.00    +0.000 A 
ATOM     22  C   UNL     1     -37.040  51.887 -23.466  0.00  0.00    +0.000 A 
ENDBRANCH   3   9
BRANCH   5  25
ATOM     23  O   UNL     1     -34.368  47.573 -14.004  0.00  0.00    +0.000 OA
ATOM     24  N   UNL     1     -36.121  45.998 -13.830  0.00  0.00    +0.000 N 
ATOM     25  C   UNL     1     -34.906  46.521 -14.336  0.00  0.00    +0.000 C 
ATOM     26  C   UNL     1     -36.700  44.711 -14.234  0.00  0.00    +0.000 C 
BRANCH  24  27
ATOM     27  C   UNL     1     -36.877  46.728 -12.896  0.00  0.00    +0.000 C 
ATOM     28  C   UNL     1     -37.717  47.819 -13.306  0.00  0.00    +0.000 C 
ATOM     29  C   UNL     1     -38.479  48.808 -13.671  0.00  0.00    +0.000 C 
ATOM     30  C   UNL     1     -39.967  48.574 -13.515  0.00  0.00    +0.000 C 
BRANCH  27  31
ATOM     31  C   UNL     1     -36.862  46.398 -11.478  0.00  0.00    +0.000 C 
ATOM     32  C   UNL     1     -35.625  45.798 -10.840  0.00  0.00    +0.000 C 
ATOM     33  C   UNL     1     -37.760  47.165 -10.524  0.00  0.00    +0.000 C 
ENDBRANCH  27  31
BRANCH  29  35
ATOM     34  O   UNL     1     -38.437  51.139 -14.291  0.00  0.00    +0.000 OA
ATOM     35  C   UNL     1     -37.869  50.060 -14.195  0.00  0.00    +0.000 C 
BRANCH  35  36
ATOM     36  O   UNL     1     -36.583  49.937 -14.586  0.00  0.00    +0.000 OA
ATOM     37  H   UNL     1     -36.447  48.977 -14.727  0.00  0.00    +0.000 HD
ENDBRANCH  35  36
ENDBRANCH  29  35
ENDBRANCH  24  27
ENDBRANCH   5  25
BRANCH   5  38
ATOM     38  C   UNL     1     -33.199  44.773 -14.999  0.00  0.00    +0.000 C 
ATOM     39  C   UNL     1     -33.522  43.398 -15.666  0.00  0.00    +0.000 C 
ATOM     40  C   UNL     1     -31.849  45.289 -15.575  0.00  0.00    +0.000 C 
ATOM     41  C   UNL     1     -33.115  44.584 -13.464  0.00  0.00    +0.000 C 
ENDBRANCH   5  38
TORSDOF 7
ENDMDL
MODEL 7
REMARK VINA RESULT:      -5.8     22.110     23.686
REMARK  Name = 10940649_MilnamideD.pdbqt.pdb
REMARK  7 active torsions:
REMARK  status: ('A' for Active; 'I' for Inactive)
REMARK    1  A    between atoms: C_3  and  C_8
REMARK    2  A    between atoms: C_22  and  C_25
REMARK    3  A    between atoms: C_22  and  C_38
REMARK    4  A    between atoms: N_24  and  C_27
REMARK    5  A    between atoms: C_27  and  C_28
REMARK    6  A    between atoms: C_32  and  C_35
REMARK    7  A    between atoms: C_35  and  O_36
REMARK                            x       y       z     vdW  Elec       q    Type
REMARK                         _______ _______ _______ _____ _____    ______ ____
ROOT
ATOM      1  O   UNL     1     -17.883  59.542 -13.704  0.00  0.00    +0.000 OA
ATOM      2  N   UNL     1     -17.094  61.535 -12.954  0.00  0.00    +0.000 N 
ATOM      3  C   UNL     1     -17.238  60.163 -12.868  0.00  0.00    +0.000 C 
ATOM      4  H   UNL     1     -16.634  62.028 -12.181  0.00  0.00    +0.000 HD
ATOM      5  C   UNL     1     -17.602  62.342 -14.001  0.00  0.00    +0.000 C 
ENDROOT
BRANCH   3   9
ATOM      6  N   UNL     1     -15.600  58.407 -11.940  0.00  0.00    +0.000 NA
ATOM      7  N   UNL     1     -14.950  57.771  -8.124  0.00  0.00    +0.000 N 
ATOM      8  C   UNL     1     -17.174  59.821 -10.311  0.00  0.00    +0.000 C 
ATOM      9  C   UNL     1     -16.566  59.494 -11.707  0.00  0.00    +0.000 C 
ATOM     10  C   UNL     1     -16.424  59.144  -9.120  0.00  0.00    +0.000 A 
ATOM     11  C   UNL     1     -15.422  58.214  -9.310  0.00  0.00    +0.000 A 
ATOM     12  C   UNL     1     -18.621  59.250 -10.218  0.00  0.00    +0.000 C 
ATOM     13  C   UNL     1     -17.056  61.347 -10.033  0.00  0.00    +0.000 C 
ATOM     14  C   UNL     1     -16.567  59.252  -7.691  0.00  0.00    +0.000 A 
ATOM     15  C   UNL     1     -15.137  57.953 -10.654  0.00  0.00    +0.000 C 
ATOM     16  C   UNL     1     -15.628  58.384  -7.097  0.00  0.00    +0.000 A 
ATOM     17  C   UNL     1     -14.440  58.884 -12.676  0.00  0.00    +0.000 C 
ATOM     18  C   UNL     1     -17.411  60.004  -6.850  0.00  0.00    +0.000 A 
ATOM     19  C   UNL     1     -13.918  56.801  -7.979  0.00  0.00    +0.000 C 
ATOM     20  C   UNL     1     -15.509  58.253  -5.705  0.00  0.00    +0.000 A 
ATOM     21  C   UNL     1     -17.297  59.878  -5.465  0.00  0.00    +0.000 A 
ATOM     22  C   UNL     1     -16.360  59.018  -4.906  0.00  0.00    +0.000 A 
ENDBRANCH   3   9
BRANCH   5  25
ATOM     23  O   UNL     1     -19.409  61.649 -15.295  0.00  0.00    +0.000 OA
ATOM     24  N   UNL     1     -17.249  61.316 -16.196  0.00  0.00    +0.000 N 
ATOM     25  C   UNL     1     -18.185  61.713 -15.211  0.00  0.00    +0.000 C 
ATOM     26  C   UNL     1     -15.793  61.375 -16.026  0.00  0.00    +0.000 C 
BRANCH  24  27
ATOM     27  C   UNL     1     -17.687  60.848 -17.447  0.00  0.00    +0.000 C 
ATOM     28  C   UNL     1     -18.370  61.714 -18.368  0.00  0.00    +0.000 C 
ATOM     29  C   UNL     1     -18.990  62.492 -19.208  0.00  0.00    +0.000 C 
ATOM     30  C   UNL     1     -18.228  62.819 -20.475  0.00  0.00    +0.000 C 
BRANCH  27  31
ATOM     31  C   UNL     1     -17.449  59.478 -17.877  0.00  0.00    +0.000 C 
ATOM     32  C   UNL     1     -16.567  59.190 -19.075  0.00  0.00    +0.000 C 
ATOM     33  C   UNL     1     -17.527  58.352 -16.861  0.00  0.00    +0.000 C 
ENDBRANCH  27  31
BRANCH  29  35
ATOM     34  O   UNL     1     -21.048  63.679 -19.622  0.00  0.00    +0.000 OA
ATOM     35  C   UNL     1     -20.355  62.991 -18.886  0.00  0.00    +0.000 C 
BRANCH  35  36
ATOM     36  O   UNL     1     -20.813  62.628 -17.670  0.00  0.00    +0.000 OA
ATOM     37  H   UNL     1     -21.415  61.873 -17.837  0.00  0.00    +0.000 HD
ENDBRANCH  35  36
ENDBRANCH  29  35
ENDBRANCH  24  27
ENDBRANCH   5  25
BRANCH   5  38
ATOM     38  C   UNL     1     -17.361  63.839 -14.110  0.00  0.00    +0.000 C 
ATOM     39  C   UNL     1     -18.290  64.521 -13.056  0.00  0.00    +0.000 C 
ATOM     40  C   UNL     1     -15.884  64.115 -13.708  0.00  0.00    +0.000 C 
ATOM     41  C   UNL     1     -17.677  64.417 -15.512  0.00  0.00    +0.000 C 
ENDBRANCH   5  38
TORSDOF 7
ENDMDL
MODEL 8
REMARK VINA RESULT:      -5.8      4.687     10.174
REMARK  Name = 10940649_MilnamideD.pdbqt.pdb
REMARK  7 active torsions:
REMARK  status: ('A' for Active; 'I' for Inactive)
REMARK    1  A    between atoms: C_3  and  C_8
REMARK    2  A    between atoms: C_22  and  C_25
REMARK    3  A    between atoms: C_22  and  C_38
REMARK    4  A    between atoms: N_24  and  C_27
REMARK    5  A    between atoms: C_27  and  C_28
REMARK    6  A    between atoms: C_32  and  C_35
REMARK    7  A    between atoms: C_35  and  O_36
REMARK                            x       y       z     vdW  Elec       q    Type
REMARK                         _______ _______ _______ _____ _____    ______ ____
ROOT
ATOM      1  O   UNL     1     -32.783  46.394 -18.039  0.00  0.00    +0.000 OA
ATOM      2  N   UNL     1     -34.670  46.732 -16.821  0.00  0.00    +0.000 N 
ATOM      3  C   UNL     1     -33.891  46.910 -17.949  0.00  0.00    +0.000 C 
ATOM      4  H   UNL     1     -35.545  47.263 -16.742  0.00  0.00    +0.000 HD
ATOM      5  C   UNL     1     -34.323  45.923 -15.712  0.00  0.00    +0.000 C 
ENDROOT
BRANCH   3   9
ATOM      6  N   UNL     1     -34.015  47.602 -20.425  0.00  0.00    +0.000 NA
ATOM      7  N   UNL     1     -36.320  50.450 -21.826  0.00  0.00    +0.000 N 
ATOM      8  C   UNL     1     -35.339  48.961 -18.547  0.00  0.00    +0.000 C 
ATOM      9  C   UNL     1     -34.477  47.759 -19.036  0.00  0.00    +0.000 C 
ATOM     10  C   UNL     1     -35.970  49.798 -19.704  0.00  0.00    +0.000 A 
ATOM     11  C   UNL     1     -35.652  49.585 -21.030  0.00  0.00    +0.000 A 
ATOM     12  C   UNL     1     -34.439  49.982 -17.790  0.00  0.00    +0.000 C 
ATOM     13  C   UNL     1     -36.556  48.434 -17.733  0.00  0.00    +0.000 C 
ATOM     14  C   UNL     1     -36.901  50.898 -19.715  0.00  0.00    +0.000 A 
ATOM     15  C   UNL     1     -34.735  48.550 -21.234  0.00  0.00    +0.000 C 
ATOM     16  C   UNL     1     -37.102  51.279 -21.057  0.00  0.00    +0.000 A 
ATOM     17  C   UNL     1     -34.324  46.274 -20.933  0.00  0.00    +0.000 C 
ATOM     18  C   UNL     1     -37.587  51.605 -18.707  0.00  0.00    +0.000 A 
ATOM     19  C   UNL     1     -36.204  50.492 -23.244  0.00  0.00    +0.000 C 
ATOM     20  C   UNL     1     -37.961  52.330 -21.414  0.00  0.00    +0.000 A 
ATOM     21  C   UNL     1     -38.441  52.651 -19.056  0.00  0.00    +0.000 A 
ATOM     22  C   UNL     1     -38.624  53.003 -20.387  0.00  0.00    +0.000 A 
ENDBRANCH   3   9
BRANCH   5  25
ATOM     23  O   UNL     1     -32.107  45.407 -15.216  0.00  0.00    +0.000 OA
ATOM     24  N   UNL     1     -33.341  43.798 -16.430  0.00  0.00    +0.000 N 
ATOM     25  C   UNL     1     -33.135  45.038 -15.778  0.00  0.00    +0.000 C 
ATOM     26  C   UNL     1     -34.579  43.424 -17.124  0.00  0.00    +0.000 C 
BRANCH  24  27
ATOM     27  C   UNL     1     -32.337  42.814 -16.424  0.00  0.00    +0.000 C 
ATOM     28  C   UNL     1     -30.983  43.129 -16.789  0.00  0.00    +0.000 C 
ATOM     29  C   UNL     1     -29.756  43.406 -17.120  0.00  0.00    +0.000 C 
ATOM     30  C   UNL     1     -28.746  43.327 -15.994  0.00  0.00    +0.000 C 
BRANCH  27  31
ATOM     31  C   UNL     1     -32.615  41.442 -16.025  0.00  0.00    +0.000 C 
ATOM     32  C   UNL     1     -31.972  40.282 -16.760  0.00  0.00    +0.000 C 
ATOM     33  C   UNL     1     -33.002  41.146 -14.587  0.00  0.00    +0.000 C 
ENDBRANCH  27  31
BRANCH  29  35
ATOM     34  O   UNL     1     -29.432  42.996 -19.474  0.00  0.00    +0.000 OA
ATOM     35  C   UNL     1     -29.430  43.768 -18.526  0.00  0.00    +0.000 C 
BRANCH  35  36
ATOM     36  O   UNL     1     -29.112  45.066 -18.712  0.00  0.00    +0.000 OA
ATOM     37  H   UNL     1     -29.528  45.315 -19.563  0.00  0.00    +0.000 HD
ENDBRANCH  35  36
ENDBRANCH  29  35
ENDBRANCH  24  27
ENDBRANCH   5  25
BRANCH   5  38
ATOM     38  C   UNL     1     -35.234  45.683 -14.519  0.00  0.00    +0.000 C 
ATOM     39  C   UNL     1     -34.533  44.610 -13.627  0.00  0.00    +0.000 C 
ATOM     40  C   UNL     1     -35.319  47.009 -13.710  0.00  0.00    +0.000 C 
ATOM     41  C   UNL     1     -36.644  45.175 -14.908  0.00  0.00    +0.000 C 
ENDBRANCH   5  38
TORSDOF 7
ENDMDL
MODEL 9
REMARK VINA RESULT:      -5.7     17.551     19.601
REMARK  Name = 10940649_MilnamideD.pdbqt.pdb
REMARK  7 active torsions:
REMARK  status: ('A' for Active; 'I' for Inactive)
REMARK    1  A    between atoms: C_3  and  C_8
REMARK    2  A    between atoms: C_22  and  C_25
REMARK    3  A    between atoms: C_22  and  C_38
REMARK    4  A    between atoms: N_24  and  C_27
REMARK    5  A    between atoms: C_27  and  C_28
REMARK    6  A    between atoms: C_32  and  C_35
REMARK    7  A    between atoms: C_35  and  O_36
REMARK                            x       y       z     vdW  Elec       q    Type
REMARK                         _______ _______ _______ _____ _____    ______ ____
ROOT
ATOM      1  O   UNL     1     -34.861  62.263  -5.367  0.00  0.00    +0.000 OA
ATOM      2  N   UNL     1     -33.699  64.080  -6.078  0.00  0.00    +0.000 N 
ATOM      3  C   UNL     1     -34.066  63.160  -5.114  0.00  0.00    +0.000 C 
ATOM      4  H   UNL     1     -33.112  64.873  -5.798  0.00  0.00    +0.000 HD
ATOM      5  C   UNL     1     -34.132  64.062  -7.426  0.00  0.00    +0.000 C 
ENDROOT
BRANCH   3   9
ATOM      6  N   UNL     1     -32.046  62.907  -3.537  0.00  0.00    +0.000 NA
ATOM      7  N   UNL     1     -32.061  63.868   0.266  0.00  0.00    +0.000 N 
ATOM      8  C   UNL     1     -34.431  63.673  -2.611  0.00  0.00    +0.000 C 
ATOM      9  C   UNL     1     -33.440  63.326  -3.762  0.00  0.00    +0.000 C 
ATOM     10  C   UNL     1     -33.741  63.883  -1.226  0.00  0.00    +0.000 A 
ATOM     11  C   UNL     1     -32.403  63.620  -1.018  0.00  0.00    +0.000 A 
ATOM     12  C   UNL     1     -35.401  62.478  -2.372  0.00  0.00    +0.000 C 
ATOM     13  C   UNL     1     -35.128  65.030  -2.913  0.00  0.00    +0.000 C 
ATOM     14  C   UNL     1     -34.241  64.313   0.056  0.00  0.00    +0.000 A 
ATOM     15  C   UNL     1     -31.729  63.169  -2.158  0.00  0.00    +0.000 C 
ATOM     16  C   UNL     1     -33.165  64.296   0.965  0.00  0.00    +0.000 A 
ATOM     17  C   UNL     1     -31.126  63.686  -4.350  0.00  0.00    +0.000 C 
ATOM     18  C   UNL     1     -35.509  64.709   0.525  0.00  0.00    +0.000 A 
ATOM     19  C   UNL     1     -30.754  63.687   0.800  0.00  0.00    +0.000 C 
ATOM     20  C   UNL     1     -33.318  64.664   2.311  0.00  0.00    +0.000 A 
ATOM     21  C   UNL     1     -35.668  65.076   1.861  0.00  0.00    +0.000 A 
ATOM     22  C   UNL     1     -34.589  65.054   2.736  0.00  0.00    +0.000 A 
ENDBRANCH   3   9
BRANCH   5  25
ATOM     23  O   UNL     1     -34.262  61.911  -8.306  0.00  0.00    +0.000 OA
ATOM     24  N   UNL     1     -36.302  63.035  -7.906  0.00  0.00    +0.000 N 
ATOM     25  C   UNL     1     -34.893  62.902  -7.949  0.00  0.00    +0.000 C 
ATOM     26  C   UNL     1     -37.006  64.260  -7.509  0.00  0.00    +0.000 C 
BRANCH  24  27
ATOM     27  C   UNL     1     -37.131  61.947  -8.232  0.00  0.00    +0.000 C 
ATOM     28  C   UNL     1     -37.290  60.837  -7.333  0.00  0.00    +0.000 C 
ATOM     29  C   UNL     1     -37.439  59.829  -6.524  0.00  0.00    +0.000 C 
ATOM     30  C   UNL     1     -38.817  59.684  -5.912  0.00  0.00    +0.000 C 
BRANCH  27  31
ATOM     31  C   UNL     1     -37.882  61.905  -9.478  0.00  0.00    +0.000 C 
ATOM     32  C   UNL     1     -37.208  61.481 -10.768  0.00  0.00    +0.000 C 
ATOM     33  C   UNL     1     -39.381  61.672  -9.439  0.00  0.00    +0.000 C 
ENDBRANCH  27  31
BRANCH  29  35
ATOM     34  O   UNL     1     -36.386  57.767  -5.847  0.00  0.00    +0.000 OA
ATOM     35  C   UNL     1     -36.295  58.914  -6.262  0.00  0.00    +0.000 C 
BRANCH  35  36
ATOM     36  O   UNL     1     -35.081  59.446  -6.517  0.00  0.00    +0.000 OA
ATOM     37  H   UNL     1     -34.953  59.344  -7.482  0.00  0.00    +0.000 HD
ENDBRANCH  35  36
ENDBRANCH  29  35
ENDBRANCH  24  27
ENDBRANCH   5  25
BRANCH   5  38
ATOM     38  C   UNL     1     -33.651  65.042  -8.484  0.00  0.00    +0.000 C 
ATOM     39  C   UNL     1     -34.223  66.442  -8.094  0.00  0.00    +0.000 C 
ATOM     40  C   UNL     1     -32.099  65.109  -8.400  0.00  0.00    +0.000 C 
ATOM     41  C   UNL     1     -34.118  64.686  -9.917  0.00  0.00    +0.000 C 
ENDBRANCH   5  38
TORSDOF 7
ENDMDL
