MODEL 1
REMARK VINA RESULT:      -7.1      0.000      0.000
REMARK  Name = 11167602_Regorafenib.pdbqt.pdb
REMARK  6 active torsions:
REMARK  status: ('A' for Active; 'I' for Inactive)
REMARK    1  A    between atoms: C_2  and  N_10
REMARK    2  A    between atoms: C_3  and  O_25
REMARK    3  A    between atoms: N_9  and  C_15
REMARK    4  A    between atoms: C_16  and  C_24
REMARK    5  A    between atoms: O_25  and  C_27
REMARK    6  A    between atoms: C_29  and  C_34
REMARK                            x       y       z     vdW  Elec       q    Type
REMARK                         _______ _______ _______ _____ _____    ______ ____
ROOT
ATOM      1  F   UNL     1     -35.478  47.485 -12.877  0.00  0.00    +0.000 F 
ATOM      2  C   UNL     1     -34.059  45.963 -14.005  0.00  0.00    +0.000 A 
ATOM      3  C   UNL     1     -35.336  46.643 -16.397  0.00  0.00    +0.000 A 
ATOM      4  C   UNL     1     -35.096  46.900 -14.023  0.00  0.00    +0.000 A 
ATOM      5  C   UNL     1     -33.684  45.355 -15.202  0.00  0.00    +0.000 A 
ATOM      6  C   UNL     1     -35.749  47.237 -15.205  0.00  0.00    +0.000 A 
ATOM      7  C   UNL     1     -34.328  45.682 -16.395  0.00  0.00    +0.000 A 
ENDROOT
BRANCH   2  10
ATOM      8  O   UNL     1     -35.130  44.496 -11.740  0.00  0.00    +0.000 OA
ATOM      9  N   UNL     1     -33.106  44.837 -10.676  0.00  0.00    +0.000 N 
ATOM     10  N   UNL     1     -33.436  45.678 -12.772  0.00  0.00    +0.000 N 
ATOM     11  C   UNL     1     -33.997  44.959 -11.730  0.00  0.00    +0.000 C 
ATOM     12  H   UNL     1     -32.185  45.234 -10.789  0.00  0.00    +0.000 HD
ATOM     13  H   UNL     1     -32.504  46.052 -12.656  0.00  0.00    +0.000 HD
BRANCH   9  15
ATOM     14 CL   UNL     1     -34.143  42.169  -5.493  0.00  0.00    +0.000 Cl
ATOM     15  C   UNL     1     -33.363  44.176  -9.461  0.00  0.00    +0.000 A 
ATOM     16  C   UNL     1     -33.298  44.274  -7.024  0.00  0.00    +0.000 A 
ATOM     17  C   UNL     1     -33.073  44.855  -8.278  0.00  0.00    +0.000 A 
ATOM     18  C   UNL     1     -33.890  42.890  -9.390  0.00  0.00    +0.000 A 
ATOM     19  C   UNL     1     -33.826  42.982  -6.976  0.00  0.00    +0.000 A 
ATOM     20  C   UNL     1     -34.119  42.295  -8.154  0.00  0.00    +0.000 A 
BRANCH  16  24
ATOM     21  F   UNL     1     -32.345  46.241  -6.071  0.00  0.00    +0.000 F 
ATOM     22  F   UNL     1     -34.064  45.390  -5.063  0.00  0.00    +0.000 F 
ATOM     23  F   UNL     1     -32.123  44.398  -4.953  0.00  0.00    +0.000 F 
ATOM     24  C   UNL     1     -32.965  45.058  -5.795  0.00  0.00    +0.000 C 
ENDBRANCH  16  24
ENDBRANCH   9  15
ENDBRANCH   2  10
BRANCH   3  25
ATOM     25  O   UNL     1     -35.984  46.871 -17.588  0.00  0.00    +0.000 OA
BRANCH  25  27
ATOM     26  N   UNL     1     -35.939  50.824 -18.924  0.00  0.00    +0.000 NA
ATOM     27  C   UNL     1     -36.046  48.168 -18.049  0.00  0.00    +0.000 A 
ATOM     28  C   UNL     1     -37.125  49.013 -17.813  0.00  0.00    +0.000 A 
ATOM     29  C   UNL     1     -37.025  50.314 -18.276  0.00  0.00    +0.000 A 
ATOM     30  C   UNL     1     -34.906  48.648 -18.685  0.00  0.00    +0.000 A 
ATOM     31  C   UNL     1     -34.906  49.969 -19.105  0.00  0.00    +0.000 A 
BRANCH  29  34
ATOM     32  O   UNL     1     -38.786  51.682 -19.043  0.00  0.00    +0.000 OA
ATOM     33  N   UNL     1     -38.398  51.522 -16.742  0.00  0.00    +0.000 N 
ATOM     34  C   UNL     1     -38.166  51.245 -18.078  0.00  0.00    +0.000 C 
ATOM     35  C   UNL     1     -39.375  52.358 -16.098  0.00  0.00    +0.000 C 
ATOM     36  H   UNL     1     -37.760  51.055 -16.099  0.00  0.00    +0.000 HD
ENDBRANCH  29  34
ENDBRANCH  25  27
ENDBRANCH   3  25
TORSDOF 6
ENDMDL
MODEL 2
REMARK VINA RESULT:      -7.0      1.992      2.623
REMARK  Name = 11167602_Regorafenib.pdbqt.pdb
REMARK  6 active torsions:
REMARK  status: ('A' for Active; 'I' for Inactive)
REMARK    1  A    between atoms: C_2  and  N_10
REMARK    2  A    between atoms: C_3  and  O_25
REMARK    3  A    between atoms: N_9  and  C_15
REMARK    4  A    between atoms: C_16  and  C_24
REMARK    5  A    between atoms: O_25  and  C_27
REMARK    6  A    between atoms: C_29  and  C_34
REMARK                            x       y       z     vdW  Elec       q    Type
REMARK                         _______ _______ _______ _____ _____    ______ ____
ROOT
ATOM      1  F   UNL     1     -34.102  43.140 -14.525  0.00  0.00    +0.000 F 
ATOM      2  C   UNL     1     -34.466  45.389 -13.884  0.00  0.00    +0.000 A 
ATOM      3  C   UNL     1     -33.359  46.198 -16.320  0.00  0.00    +0.000 A 
ATOM      4  C   UNL     1     -34.005  44.448 -14.809  0.00  0.00    +0.000 A 
ATOM      5  C   UNL     1     -34.345  46.744 -14.188  0.00  0.00    +0.000 A 
ATOM      6  C   UNL     1     -33.440  44.838 -16.019  0.00  0.00    +0.000 A 
ATOM      7  C   UNL     1     -33.781  47.151 -15.396  0.00  0.00    +0.000 A 
ENDROOT
BRANCH   2  10
ATOM      8  O   UNL     1     -33.118  44.590 -11.438  0.00  0.00    +0.000 OA
ATOM      9  N   UNL     1     -35.203  44.177 -10.530  0.00  0.00    +0.000 N 
ATOM     10  N   UNL     1     -35.036  44.921 -12.681  0.00  0.00    +0.000 N 
ATOM     11  C   UNL     1     -34.337  44.566 -11.539  0.00  0.00    +0.000 C 
ATOM     12  H   UNL     1     -36.195  44.224 -10.714  0.00  0.00    +0.000 HD
ATOM     13  H   UNL     1     -36.042  44.833 -12.680  0.00  0.00    +0.000 HD
BRANCH   9  15
ATOM     14 CL   UNL     1     -33.548  42.496  -5.098  0.00  0.00    +0.000 Cl
ATOM     15  C   UNL     1     -34.820  43.746  -9.246  0.00  0.00    +0.000 A 
ATOM     16  C   UNL     1     -33.839  44.346  -7.094  0.00  0.00    +0.000 A 
ATOM     17  C   UNL     1     -34.249  44.687  -8.389  0.00  0.00    +0.000 A 
ATOM     18  C   UNL     1     -34.986  42.439  -8.800  0.00  0.00    +0.000 A 
ATOM     19  C   UNL     1     -34.014  43.028  -6.668  0.00  0.00    +0.000 A 
ATOM     20  C   UNL     1     -34.584  42.080  -7.517  0.00  0.00    +0.000 A 
BRANCH  16  24
ATOM     21  F   UNL     1     -34.072  45.815  -5.230  0.00  0.00    +0.000 F 
ATOM     22  F   UNL     1     -32.101  44.992  -5.597  0.00  0.00    +0.000 F 
ATOM     23  F   UNL     1     -32.910  46.534  -6.912  0.00  0.00    +0.000 F 
ATOM     24  C   UNL     1     -33.235  45.404  -6.226  0.00  0.00    +0.000 C 
ENDBRANCH  16  24
ENDBRANCH   9  15
ENDBRANCH   2  10
BRANCH   3  25
ATOM     25  O   UNL     1     -32.745  46.657 -17.462  0.00  0.00    +0.000 OA
BRANCH  25  27
ATOM     26  N   UNL     1     -35.040  47.733 -20.776  0.00  0.00    +0.000 NA
ATOM     27  C   UNL     1     -33.548  47.056 -18.507  0.00  0.00    +0.000 A 
ATOM     28  C   UNL     1     -34.030  48.352 -18.650  0.00  0.00    +0.000 A 
ATOM     29  C   UNL     1     -34.771  48.631 -19.787  0.00  0.00    +0.000 A 
ATOM     30  C   UNL     1     -33.776  46.110 -19.501  0.00  0.00    +0.000 A 
ATOM     31  C   UNL     1     -34.526  46.494 -20.602  0.00  0.00    +0.000 A 
BRANCH  29  34
ATOM     32  O   UNL     1     -34.729  50.836 -20.621  0.00  0.00    +0.000 OA
ATOM     33  N   UNL     1     -36.556  50.151 -19.332  0.00  0.00    +0.000 N 
ATOM     34  C   UNL     1     -35.336  49.994 -19.968  0.00  0.00    +0.000 C 
ATOM     35  C   UNL     1     -37.443  51.279 -19.238  0.00  0.00    +0.000 C 
ATOM     36  H   UNL     1     -36.882  49.321 -18.839  0.00  0.00    +0.000 HD
ENDBRANCH  29  34
ENDBRANCH  25  27
ENDBRANCH   3  25
TORSDOF 6
ENDMDL
MODEL 3
REMARK VINA RESULT:      -7.0     22.116     24.144
REMARK  Name = 11167602_Regorafenib.pdbqt.pdb
REMARK  6 active torsions:
REMARK  status: ('A' for Active; 'I' for Inactive)
REMARK    1  A    between atoms: C_2  and  N_10
REMARK    2  A    between atoms: C_3  and  O_25
REMARK    3  A    between atoms: N_9  and  C_15
REMARK    4  A    between atoms: C_16  and  C_24
REMARK    5  A    between atoms: O_25  and  C_27
REMARK    6  A    between atoms: C_29  and  C_34
REMARK                            x       y       z     vdW  Elec       q    Type
REMARK                         _______ _______ _______ _____ _____    ______ ____
ROOT
ATOM      1  F   UNL     1     -17.302  56.396 -30.176  0.00  0.00    +0.000 F 
ATOM      2  C   UNL     1     -18.136  54.204 -29.859  0.00  0.00    +0.000 A 
ATOM      3  C   UNL     1     -20.036  54.705 -31.847  0.00  0.00    +0.000 A 
ATOM      4  C   UNL     1     -18.184  55.441 -30.509  0.00  0.00    +0.000 A 
ATOM      5  C   UNL     1     -19.068  53.227 -30.206  0.00  0.00    +0.000 A 
ATOM      6  C   UNL     1     -19.134  55.707 -31.490  0.00  0.00    +0.000 A 
ATOM      7  C   UNL     1     -20.025  53.478 -31.188  0.00  0.00    +0.000 A 
ENDROOT
BRANCH   2  10
ATOM      8  O   UNL     1     -18.331  54.563 -26.984  0.00  0.00    +0.000 OA
ATOM      9  N   UNL     1     -16.132  53.863 -26.837  0.00  0.00    +0.000 N 
ATOM     10  N   UNL     1     -17.140  54.000 -28.881  0.00  0.00    +0.000 N 
ATOM     11  C   UNL     1     -17.299  54.178 -27.516  0.00  0.00    +0.000 C 
ATOM     12  H   UNL     1     -15.348  53.527 -27.377  0.00  0.00    +0.000 HD
ATOM     13  H   UNL     1     -16.236  53.713 -29.230  0.00  0.00    +0.000 HD
BRANCH   9  15
ATOM     14 CL   UNL     1     -15.421  54.339 -20.978  0.00  0.00    +0.000 Cl
ATOM     15  C   UNL     1     -15.951  53.945 -25.444  0.00  0.00    +0.000 A 
ATOM     16  C   UNL     1     -16.143  55.311 -23.432  0.00  0.00    +0.000 A 
ATOM     17  C   UNL     1     -16.290  55.142 -24.814  0.00  0.00    +0.000 A 
ATOM     18  C   UNL     1     -15.455  52.895 -24.678  0.00  0.00    +0.000 A 
ATOM     19  C   UNL     1     -15.643  54.245 -22.682  0.00  0.00    +0.000 A 
ATOM     20  C   UNL     1     -15.301  53.044 -23.303  0.00  0.00    +0.000 A 
BRANCH  16  24
ATOM     21  F   UNL     1     -17.409  56.486 -21.787  0.00  0.00    +0.000 F 
ATOM     22  F   UNL     1     -15.466  57.297 -22.302  0.00  0.00    +0.000 F 
ATOM     23  F   UNL     1     -17.132  57.463 -23.701  0.00  0.00    +0.000 F 
ATOM     24  C   UNL     1     -16.527  56.621 -22.820  0.00  0.00    +0.000 C 
ENDBRANCH  16  24
ENDBRANCH   9  15
ENDBRANCH   2  10
BRANCH   3  25
ATOM     25  O   UNL     1     -21.047  54.923 -32.753  0.00  0.00    +0.000 OA
BRANCH  25  27
ATOM     26  N   UNL     1     -22.209  51.832 -35.305  0.00  0.00    +0.000 NA
ATOM     27  C   UNL     1     -21.453  53.861 -33.531  0.00  0.00    +0.000 A 
ATOM     28  C   UNL     1     -22.614  53.136 -33.290  0.00  0.00    +0.000 A 
ATOM     29  C   UNL     1     -22.937  52.136 -34.193  0.00  0.00    +0.000 A 
ATOM     30  C   UNL     1     -20.689  53.604 -34.665  0.00  0.00    +0.000 A 
ATOM     31  C   UNL     1     -21.103  52.585 -35.508  0.00  0.00    +0.000 A 
BRANCH  29  34
ATOM     32  O   UNL     1     -24.676  50.703 -34.886  0.00  0.00    +0.000 OA
ATOM     33  N   UNL     1     -24.563  51.337 -32.638  0.00  0.00    +0.000 N 
ATOM     34  C   UNL     1     -24.150  51.311 -33.959  0.00  0.00    +0.000 C 
ATOM     35  C   UNL     1     -25.669  50.703 -31.973  0.00  0.00    +0.000 C 
ATOM     36  H   UNL     1     -23.983  51.912 -32.028  0.00  0.00    +0.000 HD
ENDBRANCH  29  34
ENDBRANCH  25  27
ENDBRANCH   3  25
TORSDOF 6
ENDMDL
MODEL 4
REMARK VINA RESULT:      -6.7     19.887     21.466
REMARK  Name = 11167602_Regorafenib.pdbqt.pdb
REMARK  6 active torsions:
REMARK  status: ('A' for Active; 'I' for Inactive)
REMARK    1  A    between atoms: C_2  and  N_10
REMARK    2  A    between atoms: C_3  and  O_25
REMARK    3  A    between atoms: N_9  and  C_15
REMARK    4  A    between atoms: C_16  and  C_24
REMARK    5  A    between atoms: O_25  and  C_27
REMARK    6  A    between atoms: C_29  and  C_34
REMARK                            x       y       z     vdW  Elec       q    Type
REMARK                         _______ _______ _______ _____ _____    ______ ____
ROOT
ATOM      1  F   UNL     1     -30.598  60.414 -25.421  0.00  0.00    +0.000 F 
ATOM      2  C   UNL     1     -28.942  61.910 -24.634  0.00  0.00    +0.000 A 
ATOM      3  C   UNL     1     -27.345  61.192 -26.813  0.00  0.00    +0.000 A 
ATOM      4  C   UNL     1     -29.386  60.971 -25.569  0.00  0.00    +0.000 A 
ATOM      5  C   UNL     1     -27.675  62.469 -24.794  0.00  0.00    +0.000 A 
ATOM      6  C   UNL     1     -28.595  60.596 -26.650  0.00  0.00    +0.000 A 
ATOM      7  C   UNL     1     -26.871  62.103 -25.872  0.00  0.00    +0.000 A 
ENDROOT
BRANCH   2  10
ATOM      8  O   UNL     1     -28.757  64.169 -22.817  0.00  0.00    +0.000 OA
ATOM      9  N   UNL     1     -30.695  63.407 -21.815  0.00  0.00    +0.000 N 
ATOM     10  N   UNL     1     -29.801  62.250 -23.567  0.00  0.00    +0.000 N 
ATOM     11  C   UNL     1     -29.665  63.353 -22.741  0.00  0.00    +0.000 C 
ATOM     12  H   UNL     1     -31.410  62.695 -21.861  0.00  0.00    +0.000 HD
ATOM     13  H   UNL     1     -30.567  61.612 -23.402  0.00  0.00    +0.000 HD
BRANCH   9  15
ATOM     14 CL   UNL     1     -31.275  67.475 -17.551  0.00  0.00    +0.000 Cl
ATOM     15  C   UNL     1     -30.851  64.393 -20.823  0.00  0.00    +0.000 A 
ATOM     16  C   UNL     1     -30.386  65.078 -18.528  0.00  0.00    +0.000 A 
ATOM     17  C   UNL     1     -30.280  64.152 -19.573  0.00  0.00    +0.000 A 
ATOM     18  C   UNL     1     -31.540  65.583 -21.033  0.00  0.00    +0.000 A 
ATOM     19  C   UNL     1     -31.082  66.265 -18.761  0.00  0.00    +0.000 A 
ATOM     20  C   UNL     1     -31.656  66.515 -20.007  0.00  0.00    +0.000 A 
BRANCH  16  24
ATOM     21  F   UNL     1     -28.796  65.664 -16.850  0.00  0.00    +0.000 F 
ATOM     22  F   UNL     1     -30.638  64.738 -16.183  0.00  0.00    +0.000 F 
ATOM     23  F   UNL     1     -29.120  63.551 -17.205  0.00  0.00    +0.000 F 
ATOM     24  C   UNL     1     -29.749  64.758 -17.213  0.00  0.00    +0.000 C 
ENDBRANCH  16  24
ENDBRANCH   9  15
ENDBRANCH   2  10
BRANCH   3  25
ATOM     25  O   UNL     1     -26.481  60.814 -27.813  0.00  0.00    +0.000 OA
BRANCH  25  27
ATOM     26  N   UNL     1     -27.785  61.666 -31.684  0.00  0.00    +0.000 NA
ATOM     27  C   UNL     1     -26.871  61.031 -29.116  0.00  0.00    +0.000 A 
ATOM     28  C   UNL     1     -27.261  60.012 -29.978  0.00  0.00    +0.000 A 
ATOM     29  C   UNL     1     -27.695  60.380 -31.241  0.00  0.00    +0.000 A 
ATOM     30  C   UNL     1     -26.967  62.361 -29.515  0.00  0.00    +0.000 A 
ATOM     31  C   UNL     1     -27.419  62.621 -30.798  0.00  0.00    +0.000 A 
BRANCH  29  34
ATOM     32  O   UNL     1     -27.597  59.295 -33.332  0.00  0.00    +0.000 OA
ATOM     33  N   UNL     1     -29.030  58.452 -31.688  0.00  0.00    +0.000 N 
ATOM     34  C   UNL     1     -28.090  59.325 -32.209  0.00  0.00    +0.000 C 
ATOM     35  C   UNL     1     -29.687  57.307 -32.258  0.00  0.00    +0.000 C 
ATOM     36  H   UNL     1     -29.311  58.660 -30.730  0.00  0.00    +0.000 HD
ENDBRANCH  29  34
ENDBRANCH  25  27
ENDBRANCH   3  25
TORSDOF 6
ENDMDL
MODEL 5
REMARK VINA RESULT:      -6.6      3.729      5.522
REMARK  Name = 11167602_Regorafenib.pdbqt.pdb
REMARK  6 active torsions:
REMARK  status: ('A' for Active; 'I' for Inactive)
REMARK    1  A    between atoms: C_2  and  N_10
REMARK    2  A    between atoms: C_3  and  O_25
REMARK    3  A    between atoms: N_9  and  C_15
REMARK    4  A    between atoms: C_16  and  C_24
REMARK    5  A    between atoms: O_25  and  C_27
REMARK    6  A    between atoms: C_29  and  C_34
REMARK                            x       y       z     vdW  Elec       q    Type
REMARK                         _______ _______ _______ _____ _____    ______ ____
ROOT
ATOM      1  F   UNL     1     -36.214  43.894 -13.848  0.00  0.00    +0.000 F 
ATOM      2  C   UNL     1     -35.198  46.005 -13.511  0.00  0.00    +0.000 A 
ATOM      3  C   UNL     1     -34.800  46.184 -16.272  0.00  0.00    +0.000 A 
ATOM      4  C   UNL     1     -35.612  44.977 -14.363  0.00  0.00    +0.000 A 
ATOM      5  C   UNL     1     -34.562  47.117 -14.061  0.00  0.00    +0.000 A 
ATOM      6  C   UNL     1     -35.407  45.048 -15.737  0.00  0.00    +0.000 A 
ATOM      7  C   UNL     1     -34.350  47.203 -15.436  0.00  0.00    +0.000 A 
ENDROOT
BRANCH   2  10
ATOM      8  O   UNL     1     -33.345  45.235 -11.412  0.00  0.00    +0.000 OA
ATOM      9  N   UNL     1     -35.080  45.498  -9.907  0.00  0.00    +0.000 N 
ATOM     10  N   UNL     1     -35.446  45.869 -12.129  0.00  0.00    +0.000 N 
ATOM     11  C   UNL     1     -34.513  45.509 -11.171  0.00  0.00    +0.000 C 
ATOM     12  H   UNL     1     -36.049  45.770  -9.822  0.00  0.00    +0.000 HD
ATOM     13  H   UNL     1     -36.398  46.042 -11.837  0.00  0.00    +0.000 HD
BRANCH   9  15
ATOM     14 CL   UNL     1     -32.340  43.980  -4.882  0.00  0.00    +0.000 Cl
ATOM     15  C   UNL     1     -34.411  45.166  -8.714  0.00  0.00    +0.000 A 
ATOM     16  C   UNL     1     -34.150  43.564  -6.893  0.00  0.00    +0.000 A 
ATOM     17  C   UNL     1     -34.764  43.973  -8.082  0.00  0.00    +0.000 A 
ATOM     18  C   UNL     1     -33.424  45.965  -8.147  0.00  0.00    +0.000 A 
ATOM     19  C   UNL     1     -33.162  44.382  -6.340  0.00  0.00    +0.000 A 
ATOM     20  C   UNL     1     -32.803  45.576  -6.964  0.00  0.00    +0.000 A 
BRANCH  16  24
ATOM     21  F   UNL     1     -35.050  42.429  -4.999  0.00  0.00    +0.000 F 
ATOM     22  F   UNL     1     -35.574  41.655  -6.954  0.00  0.00    +0.000 F 
ATOM     23  F   UNL     1     -33.560  41.372  -6.164  0.00  0.00    +0.000 F 
ATOM     24  C   UNL     1     -34.575  42.273  -6.268  0.00  0.00    +0.000 C 
ENDBRANCH  16  24
ENDBRANCH   9  15
ENDBRANCH   2  10
BRANCH   3  25
ATOM     25  O   UNL     1     -34.499  46.289 -17.610  0.00  0.00    +0.000 OA
BRANCH  25  27
ATOM     26  N   UNL     1     -31.933  43.409 -19.200  0.00  0.00    +0.000 NA
ATOM     27  C   UNL     1     -33.595  45.394 -18.138  0.00  0.00    +0.000 A 
ATOM     28  C   UNL     1     -32.262  45.334 -17.748  0.00  0.00    +0.000 A 
ATOM     29  C   UNL     1     -31.480  44.339 -18.312  0.00  0.00    +0.000 A 
ATOM     30  C   UNL     1     -34.109  44.454 -19.025  0.00  0.00    +0.000 A 
ATOM     31  C   UNL     1     -33.243  43.496 -19.527  0.00  0.00    +0.000 A 
BRANCH  29  34
ATOM     32  O   UNL     1     -29.203  44.882 -18.591  0.00  0.00    +0.000 OA
ATOM     33  N   UNL     1     -29.813  43.421 -16.870  0.00  0.00    +0.000 N 
ATOM     34  C   UNL     1     -30.041  44.255 -17.951  0.00  0.00    +0.000 C 
ATOM     35  C   UNL     1     -28.600  43.046 -16.195  0.00  0.00    +0.000 C 
ATOM     36  H   UNL     1     -30.654  42.992 -16.486  0.00  0.00    +0.000 HD
ENDBRANCH  29  34
ENDBRANCH  25  27
ENDBRANCH   3  25
TORSDOF 6
ENDMDL
MODEL 6
REMARK VINA RESULT:      -6.6      5.571      7.729
REMARK  Name = 11167602_Regorafenib.pdbqt.pdb
REMARK  6 active torsions:
REMARK  status: ('A' for Active; 'I' for Inactive)
REMARK    1  A    between atoms: C_2  and  N_10
REMARK    2  A    between atoms: C_3  and  O_25
REMARK    3  A    between atoms: N_9  and  C_15
REMARK    4  A    between atoms: C_16  and  C_24
REMARK    5  A    between atoms: O_25  and  C_27
REMARK    6  A    between atoms: C_29  and  C_34
REMARK                            x       y       z     vdW  Elec       q    Type
REMARK                         _______ _______ _______ _____ _____    ______ ____
ROOT
ATOM      1  F   UNL     1     -32.431  43.359 -14.285  0.00  0.00    +0.000 F 
ATOM      2  C   UNL     1     -33.531  44.877 -15.730  0.00  0.00    +0.000 A 
ATOM      3  C   UNL     1     -31.272  44.850 -17.376  0.00  0.00    +0.000 A 
ATOM      4  C   UNL     1     -32.414  44.103 -15.402  0.00  0.00    +0.000 A 
ATOM      5  C   UNL     1     -33.492  45.655 -16.886  0.00  0.00    +0.000 A 
ATOM      6  C   UNL     1     -31.279  44.092 -16.205  0.00  0.00    +0.000 A 
ATOM      7  C   UNL     1     -32.362  45.654 -17.702  0.00  0.00    +0.000 A 
ENDROOT
BRANCH   2  10
ATOM      8  O   UNL     1     -34.241  46.708 -13.590  0.00  0.00    +0.000 OA
ATOM      9  N   UNL     1     -36.132  45.425 -13.241  0.00  0.00    +0.000 N 
ATOM     10  N   UNL     1     -34.651  44.832 -14.873  0.00  0.00    +0.000 N 
ATOM     11  C   UNL     1     -34.942  45.747 -13.875  0.00  0.00    +0.000 C 
ATOM     12  H   UNL     1     -36.645  44.624 -13.578  0.00  0.00    +0.000 HD
ATOM     13  H   UNL     1     -35.275  44.049 -15.010  0.00  0.00    +0.000 HD
BRANCH   9  15
ATOM     14 CL   UNL     1     -38.462  48.387  -8.674  0.00  0.00    +0.000 Cl
ATOM     15  C   UNL     1     -36.710  46.141 -12.176  0.00  0.00    +0.000 A 
ATOM     16  C   UNL     1     -36.628  46.698  -9.803  0.00  0.00    +0.000 A 
ATOM     17  C   UNL     1     -36.120  46.021 -10.917  0.00  0.00    +0.000 A 
ATOM     18  C   UNL     1     -37.829  46.954 -12.324  0.00  0.00    +0.000 A 
ATOM     19  C   UNL     1     -37.752  47.508  -9.973  0.00  0.00    +0.000 A 
ATOM     20  C   UNL     1     -38.349  47.634 -11.227  0.00  0.00    +0.000 A 
BRANCH  16  24
ATOM     21  F   UNL     1     -35.335  47.667  -8.048  0.00  0.00    +0.000 F 
ATOM     22  F   UNL     1     -36.802  46.175  -7.484  0.00  0.00    +0.000 F 
ATOM     23  F   UNL     1     -34.969  45.581  -8.506  0.00  0.00    +0.000 F 
ATOM     24  C   UNL     1     -35.946  46.527  -8.482  0.00  0.00    +0.000 C 
ENDBRANCH  16  24
ENDBRANCH   9  15
ENDBRANCH   2  10
BRANCH   3  25
ATOM     25  O   UNL     1     -30.158  44.946 -18.177  0.00  0.00    +0.000 OA
BRANCH  25  27
ATOM     26  N   UNL     1     -28.782  41.530 -20.137  0.00  0.00    +0.000 NA
ATOM     27  C   UNL     1     -29.767  43.823 -18.871  0.00  0.00    +0.000 A 
ATOM     28  C   UNL     1     -29.868  43.704 -20.253  0.00  0.00    +0.000 A 
ATOM     29  C   UNL     1     -29.374  42.545 -20.828  0.00  0.00    +0.000 A 
ATOM     30  C   UNL     1     -29.150  42.824 -18.125  0.00  0.00    +0.000 A 
ATOM     31  C   UNL     1     -28.685  41.706 -18.799  0.00  0.00    +0.000 A 
BRANCH  29  34
ATOM     32  O   UNL     1     -30.522  41.916 -22.789  0.00  0.00    +0.000 OA
ATOM     33  N   UNL     1     -28.336  42.725 -22.971  0.00  0.00    +0.000 N 
ATOM     34  C   UNL     1     -29.488  42.357 -22.297  0.00  0.00    +0.000 C 
ATOM     35  C   UNL     1     -28.003  42.709 -24.369  0.00  0.00    +0.000 C 
ATOM     36  H   UNL     1     -27.588  43.065 -22.368  0.00  0.00    +0.000 HD
ENDBRANCH  29  34
ENDBRANCH  25  27
ENDBRANCH   3  25
TORSDOF 6
ENDMDL
MODEL 7
REMARK VINA RESULT:      -6.6     23.213     26.132
REMARK  Name = 11167602_Regorafenib.pdbqt.pdb
REMARK  6 active torsions:
REMARK  status: ('A' for Active; 'I' for Inactive)
REMARK    1  A    between atoms: C_2  and  N_10
REMARK    2  A    between atoms: C_3  and  O_25
REMARK    3  A    between atoms: N_9  and  C_15
REMARK    4  A    between atoms: C_16  and  C_24
REMARK    5  A    between atoms: O_25  and  C_27
REMARK    6  A    between atoms: C_29  and  C_34
REMARK                            x       y       z     vdW  Elec       q    Type
REMARK                         _______ _______ _______ _____ _____    ______ ____
ROOT
ATOM      1  F   UNL     1     -17.236  56.661 -31.514  0.00  0.00    +0.000 F 
ATOM      2  C   UNL     1     -18.592  55.631 -29.871  0.00  0.00    +0.000 A 
ATOM      3  C   UNL     1     -16.358  55.500 -28.197  0.00  0.00    +0.000 A 
ATOM      4  C   UNL     1     -17.352  56.118 -30.292  0.00  0.00    +0.000 A 
ATOM      5  C   UNL     1     -18.693  55.058 -28.604  0.00  0.00    +0.000 A 
ATOM      6  C   UNL     1     -16.229  56.046 -29.474  0.00  0.00    +0.000 A 
ATOM      7  C   UNL     1     -17.577  54.979 -27.772  0.00  0.00    +0.000 A 
ENDROOT
BRANCH   2  10
ATOM      8  O   UNL     1     -19.821  53.566 -31.502  0.00  0.00    +0.000 OA
ATOM      9  N   UNL     1     -21.326  55.163 -32.231  0.00  0.00    +0.000 N 
ATOM     10  N   UNL     1     -19.690  55.746 -30.750  0.00  0.00    +0.000 N 
ATOM     11  C   UNL     1     -20.240  54.716 -31.495  0.00  0.00    +0.000 C 
ATOM     12  H   UNL     1     -21.603  56.128 -32.125  0.00  0.00    +0.000 HD
ATOM     13  H   UNL     1     -20.085  56.672 -30.838  0.00  0.00    +0.000 HD
BRANCH   9  15
ATOM     14 CL   UNL     1     -24.671  51.801 -35.777  0.00  0.00    +0.000 Cl
ATOM     15  C   UNL     1     -22.103  54.375 -33.100  0.00  0.00    +0.000 A 
ATOM     16  C   UNL     1     -23.925  52.769 -33.328  0.00  0.00    +0.000 A 
ATOM     17  C   UNL     1     -23.104  53.583 -32.538  0.00  0.00    +0.000 A 
ATOM     18  C   UNL     1     -21.919  54.354 -34.479  0.00  0.00    +0.000 A 
ATOM     19  C   UNL     1     -23.722  52.762 -34.709  0.00  0.00    +0.000 A 
ATOM     20  C   UNL     1     -22.724  53.551 -35.280  0.00  0.00    +0.000 A 
BRANCH  16  24
ATOM     21  F   UNL     1     -25.041  52.150 -31.313  0.00  0.00    +0.000 F 
ATOM     22  F   UNL     1     -26.233  52.211 -33.123  0.00  0.00    +0.000 F 
ATOM     23  F   UNL     1     -24.787  50.607 -32.813  0.00  0.00    +0.000 F 
ATOM     24  C   UNL     1     -24.981  51.945 -32.661  0.00  0.00    +0.000 C 
ENDBRANCH  16  24
ENDBRANCH   9  15
ENDBRANCH   2  10
BRANCH   3  25
ATOM     25  O   UNL     1     -15.276  55.329 -27.364  0.00  0.00    +0.000 OA
BRANCH  25  27
ATOM     26  N   UNL     1     -15.881  53.952 -23.473  0.00  0.00    +0.000 NA
ATOM     27  C   UNL     1     -15.507  54.808 -26.111  0.00  0.00    +0.000 A 
ATOM     28  C   UNL     1     -15.276  53.476 -25.781  0.00  0.00    +0.000 A 
ATOM     29  C   UNL     1     -15.486  53.104 -24.464  0.00  0.00    +0.000 A 
ATOM     30  C   UNL     1     -15.889  55.717 -25.129  0.00  0.00    +0.000 A 
ATOM     31  C   UNL     1     -16.067  55.241 -23.840  0.00  0.00    +0.000 A 
BRANCH  29  34
ATOM     32  O   UNL     1     -14.950  51.399 -22.926  0.00  0.00    +0.000 OA
ATOM     33  N   UNL     1     -15.513  50.807 -25.116  0.00  0.00    +0.000 N 
ATOM     34  C   UNL     1     -15.285  51.685 -24.071  0.00  0.00    +0.000 C 
ATOM     35  C   UNL     1     -15.435  49.373 -25.191  0.00  0.00    +0.000 C 
ATOM     36  H   UNL     1     -15.781  51.257 -25.991  0.00  0.00    +0.000 HD
ENDBRANCH  29  34
ENDBRANCH  25  27
ENDBRANCH   3  25
TORSDOF 6
ENDMDL
MODEL 8
REMARK VINA RESULT:      -6.5      8.029     11.118
REMARK  Name = 11167602_Regorafenib.pdbqt.pdb
REMARK  6 active torsions:
REMARK  status: ('A' for Active; 'I' for Inactive)
REMARK    1  A    between atoms: C_2  and  N_10
REMARK    2  A    between atoms: C_3  and  O_25
REMARK    3  A    between atoms: N_9  and  C_15
REMARK    4  A    between atoms: C_16  and  C_24
REMARK    5  A    between atoms: O_25  and  C_27
REMARK    6  A    between atoms: C_29  and  C_34
REMARK                            x       y       z     vdW  Elec       q    Type
REMARK                         _______ _______ _______ _____ _____    ______ ____
ROOT
ATOM      1  F   UNL     1     -29.524  41.812 -16.006  0.00  0.00    +0.000 F 
ATOM      2  C   UNL     1     -29.632  43.554 -17.604  0.00  0.00    +0.000 A 
ATOM      3  C   UNL     1     -28.633  41.777 -19.517  0.00  0.00    +0.000 A 
ATOM      4  C   UNL     1     -29.328  42.233 -17.265  0.00  0.00    +0.000 A 
ATOM      5  C   UNL     1     -29.409  43.980 -18.913  0.00  0.00    +0.000 A 
ATOM      6  C   UNL     1     -28.817  41.343 -18.205  0.00  0.00    +0.000 A 
ATOM      7  C   UNL     1     -28.898  43.100 -19.867  0.00  0.00    +0.000 A 
ENDROOT
BRANCH   2  10
ATOM      8  O   UNL     1     -32.400  43.888 -16.790  0.00  0.00    +0.000 OA
ATOM      9  N   UNL     1     -31.658  45.404 -15.210  0.00  0.00    +0.000 N 
ATOM     10  N   UNL     1     -30.156  44.399 -16.603  0.00  0.00    +0.000 N 
ATOM     11  C   UNL     1     -31.491  44.505 -16.251  0.00  0.00    +0.000 C 
ATOM     12  H   UNL     1     -30.832  45.835 -14.821  0.00  0.00    +0.000 HD
ATOM     13  H   UNL     1     -29.481  44.977 -16.122  0.00  0.00    +0.000 HD
BRANCH   9  15
ATOM     14 CL   UNL     1     -36.850  46.967 -12.831  0.00  0.00    +0.000 Cl
ATOM     15  C   UNL     1     -32.888  45.752 -14.621  0.00  0.00    +0.000 A 
ATOM     16  C   UNL     1     -34.845  47.207 -14.678  0.00  0.00    +0.000 A 
ATOM     17  C   UNL     1     -33.612  46.795 -15.198  0.00  0.00    +0.000 A 
ATOM     18  C   UNL     1     -33.406  45.107 -13.503  0.00  0.00    +0.000 A 
ATOM     19  C   UNL     1     -35.346  46.546 -13.555  0.00  0.00    +0.000 A 
ATOM     20  C   UNL     1     -34.630  45.502 -12.971  0.00  0.00    +0.000 A 
BRANCH  16  24
ATOM     21  F   UNL     1     -35.868  49.354 -14.491  0.00  0.00    +0.000 F 
ATOM     22  F   UNL     1     -34.855  48.902 -16.353  0.00  0.00    +0.000 F 
ATOM     23  F   UNL     1     -36.762  47.953 -15.883  0.00  0.00    +0.000 F 
ATOM     24  C   UNL     1     -35.571  48.332 -15.346  0.00  0.00    +0.000 C 
ENDBRANCH  16  24
ENDBRANCH   9  15
ENDBRANCH   2  10
BRANCH   3  25
ATOM     25  O   UNL     1     -28.063  40.976 -20.478  0.00  0.00    +0.000 OA
BRANCH  25  27
ATOM     26  N   UNL     1     -23.899  40.749 -20.356  0.00  0.00    +0.000 NA
ATOM     27  C   UNL     1     -26.689  40.897 -20.517  0.00  0.00    +0.000 A 
ATOM     28  C   UNL     1     -25.910  41.578 -21.447  0.00  0.00    +0.000 A 
ATOM     29  C   UNL     1     -24.535  41.462 -21.328  0.00  0.00    +0.000 A 
ATOM     30  C   UNL     1     -26.086  40.175 -19.493  0.00  0.00    +0.000 A 
ATOM     31  C   UNL     1     -24.701  40.127 -19.461  0.00  0.00    +0.000 A 
BRANCH  29  34
ATOM     32  O   UNL     1     -23.604  41.743 -23.476  0.00  0.00    +0.000 OA
ATOM     33  N   UNL     1     -22.973  43.212 -21.770  0.00  0.00    +0.000 N 
ATOM     34  C   UNL     1     -23.661  42.143 -22.318  0.00  0.00    +0.000 C 
ATOM     35  C   UNL     1     -22.032  44.135 -22.345  0.00  0.00    +0.000 C 
ATOM     36  H   UNL     1     -23.163  43.372 -20.782  0.00  0.00    +0.000 HD
ENDBRANCH  29  34
ENDBRANCH  25  27
ENDBRANCH   3  25
TORSDOF 6
ENDMDL
MODEL 9
REMARK VINA RESULT:      -6.5     23.721     26.274
REMARK  Name = 11167602_Regorafenib.pdbqt.pdb
REMARK  6 active torsions:
REMARK  status: ('A' for Active; 'I' for Inactive)
REMARK    1  A    between atoms: C_2  and  N_10
REMARK    2  A    between atoms: C_3  and  O_25
REMARK    3  A    between atoms: N_9  and  C_15
REMARK    4  A    between atoms: C_16  and  C_24
REMARK    5  A    between atoms: O_25  and  C_27
REMARK    6  A    between atoms: C_29  and  C_34
REMARK                            x       y       z     vdW  Elec       q    Type
REMARK                         _______ _______ _______ _____ _____    ______ ____
ROOT
ATOM      1  F   UNL     1     -16.351  56.071 -30.310  0.00  0.00    +0.000 F 
ATOM      2  C   UNL     1     -18.025  55.001 -29.024  0.00  0.00    +0.000 A 
ATOM      3  C   UNL     1     -16.034  54.148 -27.256  0.00  0.00    +0.000 A 
ATOM      4  C   UNL     1     -16.684  55.330 -29.241  0.00  0.00    +0.000 A 
ATOM      5  C   UNL     1     -18.352  54.219 -27.917  0.00  0.00    +0.000 A 
ATOM      6  C   UNL     1     -15.683  54.900 -28.377  0.00  0.00    +0.000 A 
ATOM      7  C   UNL     1     -17.361  53.781 -27.040  0.00  0.00    +0.000 A 
ENDROOT
BRANCH   2  10
ATOM      8  O   UNL     1     -19.238  53.605 -31.263  0.00  0.00    +0.000 OA
ATOM      9  N   UNL     1     -20.476  55.515 -31.667  0.00  0.00    +0.000 N 
ATOM     10  N   UNL     1     -18.988  55.479 -29.937  0.00  0.00    +0.000 N 
ATOM     11  C   UNL     1     -19.540  54.757 -30.982  0.00  0.00    +0.000 C 
ATOM     12  H   UNL     1     -20.668  56.446 -31.328  0.00  0.00    +0.000 HD
ATOM     13  H   UNL     1     -19.276  56.439 -29.806  0.00  0.00    +0.000 HD
BRANCH   9  15
ATOM     14 CL   UNL     1     -23.664  53.638 -36.290  0.00  0.00    +0.000 Cl
ATOM     15  C   UNL     1     -21.214  55.086 -32.786  0.00  0.00    +0.000 A 
ATOM     16  C   UNL     1     -23.090  53.767 -33.617  0.00  0.00    +0.000 A 
ATOM     17  C   UNL     1     -22.301  54.242 -32.563  0.00  0.00    +0.000 A 
ATOM     18  C   UNL     1     -20.908  55.464 -34.089  0.00  0.00    +0.000 A 
ATOM     19  C   UNL     1     -22.765  54.159 -34.918  0.00  0.00    +0.000 A 
ATOM     20  C   UNL     1     -21.680  55.002 -35.151  0.00  0.00    +0.000 A 
BRANCH  16  24
ATOM     21  F   UNL     1     -24.445  52.703 -31.968  0.00  0.00    +0.000 F 
ATOM     22  F   UNL     1     -25.426  53.328 -33.797  0.00  0.00    +0.000 F 
ATOM     23  F   UNL     1     -24.084  51.608 -33.803  0.00  0.00    +0.000 F 
ATOM     24  C   UNL     1     -24.243  52.866 -33.308  0.00  0.00    +0.000 C 
ENDBRANCH  16  24
ENDBRANCH   9  15
ENDBRANCH   2  10
BRANCH   3  25
ATOM     25  O   UNL     1     -15.091  53.627 -26.402  0.00  0.00    +0.000 OA
BRANCH  25  27
ATOM     26  N   UNL     1     -15.574  54.321 -22.316  0.00  0.00    +0.000 NA
ATOM     27  C   UNL     1     -15.206  53.921 -25.061  0.00  0.00    +0.000 A 
ATOM     28  C   UNL     1     -15.396  55.210 -24.574  0.00  0.00    +0.000 A 
ATOM     29  C   UNL     1     -15.563  55.353 -23.207  0.00  0.00    +0.000 A 
ATOM     30  C   UNL     1     -15.232  52.833 -24.194  0.00  0.00    +0.000 A 
ATOM     31  C   UNL     1     -15.411  53.086 -22.843  0.00  0.00    +0.000 A 
BRANCH  29  34
ATOM     32  O   UNL     1     -15.154  57.033 -21.604  0.00  0.00    +0.000 OA
ATOM     33  N   UNL     1     -16.595  57.498 -23.386  0.00  0.00    +0.000 N 
ATOM     34  C   UNL     1     -15.737  56.713 -22.635  0.00  0.00    +0.000 C 
ATOM     35  C   UNL     1     -17.048  58.851 -23.210  0.00  0.00    +0.000 C 
ATOM     36  H   UNL     1     -16.977  57.034 -24.208  0.00  0.00    +0.000 HD
ENDBRANCH  29  34
ENDBRANCH  25  27
ENDBRANCH   3  25
TORSDOF 6
ENDMDL
