MODEL 1
REMARK VINA RESULT:      -6.0      0.000      0.000
REMARK  Name = 114778_Kahweol.pdbqt.pdb
REMARK  3 active torsions:
REMARK  status: ('A' for Active; 'I' for Inactive)
REMARK    1  A    between atoms: C_8  and  O_21
REMARK    2  A    between atoms: C_8  and  C_23
REMARK    3  A    between atoms: C_23  and  O_24
REMARK                            x       y       z     vdW  Elec       q    Type
REMARK                         _______ _______ _______ _____ _____    ______ ____
ROOT
ATOM      1  O   UNL     1     -36.366  48.874 -15.026  0.00  0.00    +0.000 OA
ATOM      2  C   UNL     1     -35.992  45.870  -9.544  0.00  0.00    +0.000 C 
ATOM      3  C   UNL     1     -35.144  45.641 -10.871  0.00  0.00    +0.000 C 
ATOM      4  C   UNL     1     -34.408  44.768  -8.127  0.00  0.00    +0.000 C 
ATOM      5  C   UNL     1     -35.768  44.675  -8.686  0.00  0.00    +0.000 C 
ATOM      6  C   UNL     1     -35.263  46.828  -8.684  0.00  0.00    +0.000 C 
ATOM      7  C   UNL     1     -35.788  45.670 -12.261  0.00  0.00    +0.000 C 
ATOM      8  C   UNL     1     -34.347  46.282  -7.662  0.00  0.00    +0.000 C 
ATOM      9  C   UNL     1     -37.337  46.242  -9.899  0.00  0.00    +0.000 C 
ATOM     10  C   UNL     1     -33.891  44.955 -10.597  0.00  0.00    +0.000 C 
ATOM     11  C   UNL     1     -33.494  44.436  -9.210  0.00  0.00    +0.000 C 
ATOM     12  C   UNL     1     -37.167  46.521 -12.384  0.00  0.00    +0.000 C 
ATOM     13  C   UNL     1     -37.959  46.585 -11.215  0.00  0.00    +0.000 C 
ATOM     14  C   UNL     1     -36.134  44.209 -12.695  0.00  0.00    +0.000 C 
ATOM     15  C   UNL     1     -34.846  46.308 -13.222  0.00  0.00    +0.000 C 
ATOM     16  C   UNL     1     -37.227  47.557 -13.390  0.00  0.00    +0.000 A 
ATOM     17  C   UNL     1     -34.912  47.187 -14.035  0.00  0.00    +0.000 C 
ATOM     18  C   UNL     1     -36.137  47.864 -14.176  0.00  0.00    +0.000 A 
ATOM     19  C   UNL     1     -38.229  48.465 -13.789  0.00  0.00    +0.000 A 
ATOM     20  C   UNL     1     -37.668  49.242 -14.794  0.00  0.00    +0.000 A 
ENDROOT
BRANCH   8  21
ATOM     21  O   UNL     1     -34.935  46.425  -6.381  0.00  0.00    +0.000 OA
ATOM     22  H   UNL     1     -35.845  46.728  -6.539  0.00  0.00    +0.000 HD
ENDBRANCH   8  21
BRANCH   8  23
ATOM     23  C   UNL     1     -32.995  46.855  -7.653  0.00  0.00    +0.000 C 
BRANCH  23  24
ATOM     24  O   UNL     1     -31.774  47.390  -7.656  0.00  0.00    +0.000 OA
ATOM     25  H   UNL     1     -31.094  46.703  -7.775  0.00  0.00    +0.000 HD
ENDBRANCH  23  24
ENDBRANCH   8  23
TORSDOF 3
ENDMDL
MODEL 2
REMARK VINA RESULT:      -5.6      6.923      8.683
REMARK  Name = 114778_Kahweol.pdbqt.pdb
REMARK  3 active torsions:
REMARK  status: ('A' for Active; 'I' for Inactive)
REMARK    1  A    between atoms: C_8  and  O_21
REMARK    2  A    between atoms: C_8  and  C_23
REMARK    3  A    between atoms: C_23  and  O_24
REMARK                            x       y       z     vdW  Elec       q    Type
REMARK                         _______ _______ _______ _____ _____    ______ ____
ROOT
ATOM      1  O   UNL     1     -34.803  49.529 -19.516  0.00  0.00    +0.000 OA
ATOM      2  C   UNL     1     -31.795  44.525 -17.251  0.00  0.00    +0.000 C 
ATOM      3  C   UNL     1     -32.782  44.621 -18.495  0.00  0.00    +0.000 C 
ATOM      4  C   UNL     1     -30.810  42.462 -17.962  0.00  0.00    +0.000 C 
ATOM      5  C   UNL     1     -31.659  43.079 -16.928  0.00  0.00    +0.000 C 
ATOM      6  C   UNL     1     -30.411  44.716 -17.737  0.00  0.00    +0.000 C 
ATOM      7  C   UNL     1     -34.065  45.458 -18.452  0.00  0.00    +0.000 C 
ATOM      8  C   UNL     1     -29.629  43.512 -18.085  0.00  0.00    +0.000 C 
ATOM      9  C   UNL     1     -32.233  45.438 -16.227  0.00  0.00    +0.000 C 
ATOM     10  C   UNL     1     -32.597  43.511 -19.416  0.00  0.00    +0.000 C 
ATOM     11  C   UNL     1     -31.634  42.345 -19.156  0.00  0.00    +0.000 C 
ATOM     12  C   UNL     1     -34.073  46.685 -17.385  0.00  0.00    +0.000 C 
ATOM     13  C   UNL     1     -33.286  46.499 -16.226  0.00  0.00    +0.000 C 
ATOM     14  C   UNL     1     -35.266  44.534 -18.066  0.00  0.00    +0.000 C 
ATOM     15  C   UNL     1     -34.278  46.093 -19.782  0.00  0.00    +0.000 C 
ATOM     16  C   UNL     1     -34.371  48.007 -17.888  0.00  0.00    +0.000 A 
ATOM     17  C   UNL     1     -34.502  47.202 -20.179  0.00  0.00    +0.000 C 
ATOM     18  C   UNL     1     -34.576  48.239 -19.231  0.00  0.00    +0.000 A 
ATOM     19  C   UNL     1     -34.479  49.274 -17.280  0.00  0.00    +0.000 A 
ATOM     20  C   UNL     1     -34.754  50.171 -18.304  0.00  0.00    +0.000 A 
ENDROOT
BRANCH   8  21
ATOM     21  O   UNL     1     -28.658  43.277 -17.080  0.00  0.00    +0.000 OA
ATOM     22  H   UNL     1     -28.633  42.314 -16.955  0.00  0.00    +0.000 HD
ENDBRANCH   8  21
BRANCH   8  23
ATOM     23  C   UNL     1     -28.981  43.539 -19.402  0.00  0.00    +0.000 C 
BRANCH  23  24
ATOM     24  O   UNL     1     -28.377  43.554 -20.591  0.00  0.00    +0.000 OA
ATOM     25  H   UNL     1     -27.432  43.339 -20.504  0.00  0.00    +0.000 HD
ENDBRANCH  23  24
ENDBRANCH   8  23
TORSDOF 3
ENDMDL
MODEL 3
REMARK VINA RESULT:      -5.2     20.292     21.914
REMARK  Name = 114778_Kahweol.pdbqt.pdb
REMARK  3 active torsions:
REMARK  status: ('A' for Active; 'I' for Inactive)
REMARK    1  A    between atoms: C_8  and  O_21
REMARK    2  A    between atoms: C_8  and  C_23
REMARK    3  A    between atoms: C_23  and  O_24
REMARK                            x       y       z     vdW  Elec       q    Type
REMARK                         _______ _______ _______ _____ _____    ______ ____
ROOT
ATOM      1  O   UNL     1     -31.558  64.929 -12.649  0.00  0.00    +0.000 OA
ATOM      2  C   UNL     1     -26.360  67.563 -10.356  0.00  0.00    +0.000 C 
ATOM      3  C   UNL     1     -27.468  66.709  -9.598  0.00  0.00    +0.000 C 
ATOM      4  C   UNL     1     -24.696  67.239  -8.666  0.00  0.00    +0.000 C 
ATOM      5  C   UNL     1     -25.558  68.247  -9.305  0.00  0.00    +0.000 C 
ATOM      6  C   UNL     1     -25.291  66.645 -10.806  0.00  0.00    +0.000 C 
ATOM      7  C   UNL     1     -28.964  66.888  -9.878  0.00  0.00    +0.000 C 
ATOM      8  C   UNL     1     -24.125  66.453  -9.919  0.00  0.00    +0.000 C 
ATOM      9  C   UNL     1     -26.989  68.348 -11.386  0.00  0.00    +0.000 C 
ATOM     10  C   UNL     1     -26.961  66.154  -8.353  0.00  0.00    +0.000 C 
ATOM     11  C   UNL     1     -25.558  66.445  -7.803  0.00  0.00    +0.000 C 
ATOM     12  C   UNL     1     -29.342  67.486 -11.341  0.00  0.00    +0.000 C 
ATOM     13  C   UNL     1     -28.386  68.351 -11.920  0.00  0.00    +0.000 C 
ATOM     14  C   UNL     1     -29.566  67.879  -8.830  0.00  0.00    +0.000 C 
ATOM     15  C   UNL     1     -29.635  65.560  -9.812  0.00  0.00    +0.000 C 
ATOM     16  C   UNL     1     -30.260  66.726 -12.158  0.00  0.00    +0.000 A 
ATOM     17  C   UNL     1     -30.377  64.936 -10.516  0.00  0.00    +0.000 C 
ATOM     18  C   UNL     1     -30.750  65.504 -11.747  0.00  0.00    +0.000 A 
ATOM     19  C   UNL     1     -30.815  66.928 -13.438  0.00  0.00    +0.000 A 
ATOM     20  C   UNL     1     -31.608  65.817 -13.695  0.00  0.00    +0.000 A 
ENDROOT
BRANCH   8  21
ATOM     21  O   UNL     1     -23.008  67.137 -10.459  0.00  0.00    +0.000 OA
ATOM     22  H   UNL     1     -22.582  67.584  -9.708  0.00  0.00    +0.000 HD
ENDBRANCH   8  21
BRANCH   8  23
ATOM     23  C   UNL     1     -23.765  65.057  -9.642  0.00  0.00    +0.000 C 
BRANCH  23  24
ATOM     24  O   UNL     1     -23.446  63.790  -9.374  0.00  0.00    +0.000 OA
ATOM     25  H   UNL     1     -22.483  63.689  -9.268  0.00  0.00    +0.000 HD
ENDBRANCH  23  24
ENDBRANCH   8  23
TORSDOF 3
ENDMDL
MODEL 4
REMARK VINA RESULT:      -5.1      3.653      5.188
REMARK  Name = 114778_Kahweol.pdbqt.pdb
REMARK  3 active torsions:
REMARK  status: ('A' for Active; 'I' for Inactive)
REMARK    1  A    between atoms: C_8  and  O_21
REMARK    2  A    between atoms: C_8  and  C_23
REMARK    3  A    between atoms: C_23  and  O_24
REMARK                            x       y       z     vdW  Elec       q    Type
REMARK                         _______ _______ _______ _____ _____    ______ ____
ROOT
ATOM      1  O   UNL     1     -37.467  42.148 -11.710  0.00  0.00    +0.000 OA
ATOM      2  C   UNL     1     -33.399  44.317  -7.472  0.00  0.00    +0.000 C 
ATOM      3  C   UNL     1     -34.928  44.702  -7.679  0.00  0.00    +0.000 C 
ATOM      4  C   UNL     1     -33.308  45.143  -5.227  0.00  0.00    +0.000 C 
ATOM      5  C   UNL     1     -32.812  45.367  -6.595  0.00  0.00    +0.000 C 
ATOM      6  C   UNL     1     -33.323  43.218  -6.484  0.00  0.00    +0.000 C 
ATOM      7  C   UNL     1     -35.535  44.898  -9.073  0.00  0.00    +0.000 C 
ATOM      8  C   UNL     1     -33.129  43.576  -5.065  0.00  0.00    +0.000 C 
ATOM      9  C   UNL     1     -32.798  44.052  -8.754  0.00  0.00    +0.000 C 
ATOM     10  C   UNL     1     -35.502  45.292  -6.480  0.00  0.00    +0.000 C 
ATOM     11  C   UNL     1     -34.693  45.591  -5.212  0.00  0.00    +0.000 C 
ATOM     12  C   UNL     1     -34.779  44.126 -10.287  0.00  0.00    +0.000 C 
ATOM     13  C   UNL     1     -33.390  43.925 -10.121  0.00  0.00    +0.000 C 
ATOM     14  C   UNL     1     -35.506  46.418  -9.434  0.00  0.00    +0.000 C 
ATOM     15  C   UNL     1     -36.927  44.368  -9.078  0.00  0.00    +0.000 C 
ATOM     16  C   UNL     1     -35.571  43.249 -11.119  0.00  0.00    +0.000 A 
ATOM     17  C   UNL     1     -37.559  43.618  -9.767  0.00  0.00    +0.000 C 
ATOM     18  C   UNL     1     -36.905  43.017 -10.857  0.00  0.00    +0.000 A 
ATOM     19  C   UNL     1     -35.276  42.446 -12.239  0.00  0.00    +0.000 A 
ATOM     20  C   UNL     1     -36.459  41.801 -12.575  0.00  0.00    +0.000 A 
ENDROOT
BRANCH   8  21
ATOM     21  O   UNL     1     -31.798  43.273  -4.683  0.00  0.00    +0.000 OA
ATOM     22  H   UNL     1     -31.762  42.307  -4.591  0.00  0.00    +0.000 HD
ENDBRANCH   8  21
BRANCH   8  23
ATOM     23  C   UNL     1     -34.067  42.956  -4.121  0.00  0.00    +0.000 C 
BRANCH  23  24
ATOM     24  O   UNL     1     -34.906  42.384  -3.257  0.00  0.00    +0.000 OA
ATOM     25  H   UNL     1     -35.078  42.970  -2.499  0.00  0.00    +0.000 HD
ENDBRANCH  23  24
ENDBRANCH   8  23
TORSDOF 3
ENDMDL
MODEL 5
REMARK VINA RESULT:      -4.9      5.924      9.008
REMARK  Name = 114778_Kahweol.pdbqt.pdb
REMARK  3 active torsions:
REMARK  status: ('A' for Active; 'I' for Inactive)
REMARK    1  A    between atoms: C_8  and  O_21
REMARK    2  A    between atoms: C_8  and  C_23
REMARK    3  A    between atoms: C_23  and  O_24
REMARK                            x       y       z     vdW  Elec       q    Type
REMARK                         _______ _______ _______ _____ _____    ______ ____
ROOT
ATOM      1  O   UNL     1     -32.101  42.512 -17.160  0.00  0.00    +0.000 OA
ATOM      2  C   UNL     1     -35.858  47.471 -17.877  0.00  0.00    +0.000 C 
ATOM      3  C   UNL     1     -34.358  47.420 -17.349  0.00  0.00    +0.000 C 
ATOM      4  C   UNL     1     -35.783  49.806 -18.402  0.00  0.00    +0.000 C 
ATOM      5  C   UNL     1     -36.393  48.809 -17.505  0.00  0.00    +0.000 C 
ATOM      6  C   UNL     1     -35.831  47.706 -19.337  0.00  0.00    +0.000 C 
ATOM      7  C   UNL     1     -33.869  46.325 -16.395  0.00  0.00    +0.000 C 
ATOM      8  C   UNL     1     -35.917  49.101 -19.815  0.00  0.00    +0.000 C 
ATOM      9  C   UNL     1     -36.554  46.288 -17.444  0.00  0.00    +0.000 C 
ATOM     10  C   UNL     1     -33.702  48.713 -17.466  0.00  0.00    +0.000 C 
ATOM     11  C   UNL     1     -34.411  49.984 -17.949  0.00  0.00    +0.000 C 
ATOM     12  C   UNL     1     -34.705  44.931 -16.432  0.00  0.00    +0.000 C 
ATOM     13  C   UNL     1     -36.072  45.040 -16.775  0.00  0.00    +0.000 C 
ATOM     14  C   UNL     1     -33.959  46.850 -14.925  0.00  0.00    +0.000 C 
ATOM     15  C   UNL     1     -32.472  45.954 -16.751  0.00  0.00    +0.000 C 
ATOM     16  C   UNL     1     -33.965  43.713 -16.671  0.00  0.00    +0.000 A 
ATOM     17  C   UNL     1     -31.883  44.933 -16.969  0.00  0.00    +0.000 C 
ATOM     18  C   UNL     1     -32.610  43.730 -16.925  0.00  0.00    +0.000 A 
ATOM     19  C   UNL     1     -34.333  42.355 -16.757  0.00  0.00    +0.000 A 
ATOM     20  C   UNL     1     -33.168  41.656 -17.045  0.00  0.00    +0.000 A 
ENDROOT
BRANCH   8  21
ATOM     21  O   UNL     1     -37.206  49.331 -20.357  0.00  0.00    +0.000 OA
ATOM     22  H   UNL     1     -37.793  48.685 -19.930  0.00  0.00    +0.000 HD
ENDBRANCH   8  21
BRANCH   8  23
ATOM     23  C   UNL     1     -34.893  49.501 -20.788  0.00  0.00    +0.000 C 
BRANCH  23  24
ATOM     24  O   UNL     1     -33.958  49.847 -21.674  0.00  0.00    +0.000 OA
ATOM     25  H   UNL     1     -34.174  49.503 -22.559  0.00  0.00    +0.000 HD
ENDBRANCH  23  24
ENDBRANCH   8  23
TORSDOF 3
ENDMDL
MODEL 6
REMARK VINA RESULT:      -4.8     21.271     24.054
REMARK  Name = 114778_Kahweol.pdbqt.pdb
REMARK  3 active torsions:
REMARK  status: ('A' for Active; 'I' for Inactive)
REMARK    1  A    between atoms: C_8  and  O_21
REMARK    2  A    between atoms: C_8  and  C_23
REMARK    3  A    between atoms: C_23  and  O_24
REMARK                            x       y       z     vdW  Elec       q    Type
REMARK                         _______ _______ _______ _____ _____    ______ ____
ROOT
ATOM      1  O   UNL     1     -27.212  62.960 -31.478  0.00  0.00    +0.000 OA
ATOM      2  C   UNL     1     -28.630  61.779 -25.494  0.00  0.00    +0.000 C 
ATOM      3  C   UNL     1     -28.174  63.149 -26.163  0.00  0.00    +0.000 C 
ATOM      4  C   UNL     1     -29.570  62.829 -23.559  0.00  0.00    +0.000 C 
ATOM      5  C   UNL     1     -28.480  61.955 -24.024  0.00  0.00    +0.000 C 
ATOM      6  C   UNL     1     -30.108  61.725 -25.503  0.00  0.00    +0.000 C 
ATOM      7  C   UNL     1     -27.063  63.208 -27.217  0.00  0.00    +0.000 C 
ATOM      8  C   UNL     1     -30.825  62.216 -24.308  0.00  0.00    +0.000 C 
ATOM      9  C   UNL     1     -27.958  60.686 -26.146  0.00  0.00    +0.000 C 
ATOM     10  C   UNL     1     -28.554  64.296 -25.353  0.00  0.00    +0.000 C 
ATOM     11  C   UNL     1     -29.224  64.179 -23.979  0.00  0.00    +0.000 C 
ATOM     12  C   UNL     1     -26.808  61.838 -28.053  0.00  0.00    +0.000 C 
ATOM     13  C   UNL     1     -27.099  60.635 -27.369  0.00  0.00    +0.000 C 
ATOM     14  C   UNL     1     -25.709  63.551 -26.513  0.00  0.00    +0.000 C 
ATOM     15  C   UNL     1     -27.413  64.232 -28.239  0.00  0.00    +0.000 C 
ATOM     16  C   UNL     1     -26.859  61.914 -29.495  0.00  0.00    +0.000 A 
ATOM     17  C   UNL     1     -27.472  64.267 -29.436  0.00  0.00    +0.000 C 
ATOM     18  C   UNL     1     -27.177  63.088 -30.144  0.00  0.00    +0.000 A 
ATOM     19  C   UNL     1     -26.681  60.967 -30.523  0.00  0.00    +0.000 A 
ATOM     20  C   UNL     1     -26.894  61.646 -31.716  0.00  0.00    +0.000 A 
ENDROOT
BRANCH   8  21
ATOM     21  O   UNL     1     -31.337  61.112 -23.582  0.00  0.00    +0.000 OA
ATOM     22  H   UNL     1     -32.283  61.067 -23.799  0.00  0.00    +0.000 HD
ENDBRANCH   8  21
BRANCH   8  23
ATOM     23  C   UNL     1     -31.903  63.179 -24.568  0.00  0.00    +0.000 C 
BRANCH  23  24
ATOM     24  O   UNL     1     -32.877  64.063 -24.789  0.00  0.00    +0.000 OA
ATOM     25  H   UNL     1     -33.709  63.612 -25.016  0.00  0.00    +0.000 HD
ENDBRANCH  23  24
ENDBRANCH   8  23
TORSDOF 3
ENDMDL
MODEL 7
REMARK VINA RESULT:      -4.8      3.900      5.926
REMARK  Name = 114778_Kahweol.pdbqt.pdb
REMARK  3 active torsions:
REMARK  status: ('A' for Active; 'I' for Inactive)
REMARK    1  A    between atoms: C_8  and  O_21
REMARK    2  A    between atoms: C_8  and  C_23
REMARK    3  A    between atoms: C_23  and  O_24
REMARK                            x       y       z     vdW  Elec       q    Type
REMARK                         _______ _______ _______ _____ _____    ______ ____
ROOT
ATOM      1  O   UNL     1     -35.029  38.622 -10.138  0.00  0.00    +0.000 OA
ATOM      2  C   UNL     1     -34.224  44.735  -9.042  0.00  0.00    +0.000 C 
ATOM      3  C   UNL     1     -35.324  43.749  -8.451  0.00  0.00    +0.000 C 
ATOM      4  C   UNL     1     -34.509  46.374  -7.320  0.00  0.00    +0.000 C 
ATOM      5  C   UNL     1     -34.697  46.117  -8.758  0.00  0.00    +0.000 C 
ATOM      6  C   UNL     1     -33.073  44.762  -8.112  0.00  0.00    +0.000 C 
ATOM      7  C   UNL     1     -36.021  42.696  -9.320  0.00  0.00    +0.000 C 
ATOM      8  C   UNL     1     -33.047  45.813  -7.075  0.00  0.00    +0.000 C 
ATOM      9  C   UNL     1     -33.926  44.356 -10.399  0.00  0.00    +0.000 C 
ATOM     10  C   UNL     1     -35.903  44.264  -7.221  0.00  0.00    +0.000 C 
ATOM     11  C   UNL     1     -35.557  45.636  -6.630  0.00  0.00    +0.000 C 
ATOM     12  C   UNL     1     -35.200  42.211 -10.637  0.00  0.00    +0.000 C 
ATOM     13  C   UNL     1     -34.333  43.168 -11.211  0.00  0.00    +0.000 C 
ATOM     14  C   UNL     1     -37.377  43.275  -9.837  0.00  0.00    +0.000 C 
ATOM     15  C   UNL     1     -36.233  41.462  -8.514  0.00  0.00    +0.000 C 
ATOM     16  C   UNL     1     -34.966  40.794 -10.796  0.00  0.00    +0.000 A 
ATOM     17  C   UNL     1     -36.008  40.293  -8.656  0.00  0.00    +0.000 C 
ATOM     18  C   UNL     1     -35.362  39.885  -9.837  0.00  0.00    +0.000 A 
ATOM     19  C   UNL     1     -34.325  40.021 -11.785  0.00  0.00    +0.000 A 
ATOM     20  C   UNL     1     -34.394  38.704 -11.352  0.00  0.00    +0.000 A 
ENDROOT
BRANCH   8  21
ATOM     21  O   UNL     1     -32.083  46.791  -7.424  0.00  0.00    +0.000 OA
ATOM     22  H   UNL     1     -31.585  46.976  -6.610  0.00  0.00    +0.000 HD
ENDBRANCH   8  21
BRANCH   8  23
ATOM     23  C   UNL     1     -32.803  45.345  -5.705  0.00  0.00    +0.000 C 
BRANCH  23  24
ATOM     24  O   UNL     1     -32.564  44.925  -4.462  0.00  0.00    +0.000 OA
ATOM     25  H   UNL     1     -32.184  44.028  -4.465  0.00  0.00    +0.000 HD
ENDBRANCH  23  24
ENDBRANCH   8  23
TORSDOF 3
ENDMDL
MODEL 8
REMARK VINA RESULT:      -4.8     20.914     23.961
REMARK  Name = 114778_Kahweol.pdbqt.pdb
REMARK  3 active torsions:
REMARK  status: ('A' for Active; 'I' for Inactive)
REMARK    1  A    between atoms: C_8  and  O_21
REMARK    2  A    between atoms: C_8  and  C_23
REMARK    3  A    between atoms: C_23  and  O_24
REMARK                            x       y       z     vdW  Elec       q    Type
REMARK                         _______ _______ _______ _____ _____    ______ ____
ROOT
ATOM      1  O   UNL     1     -31.498  63.560 -23.610  0.00  0.00    +0.000 OA
ATOM      2  C   UNL     1     -27.449  61.374 -27.857  0.00  0.00    +0.000 C 
ATOM      3  C   UNL     1     -28.964  60.956 -27.611  0.00  0.00    +0.000 C 
ATOM      4  C   UNL     1     -27.376  60.485 -30.079  0.00  0.00    +0.000 C 
ATOM      5  C   UNL     1     -26.851  60.314 -28.714  0.00  0.00    +0.000 C 
ATOM      6  C   UNL     1     -27.420  62.445 -28.877  0.00  0.00    +0.000 C 
ATOM      7  C   UNL     1     -29.541  60.785 -26.202  0.00  0.00    +0.000 C 
ATOM      8  C   UNL     1     -27.241  62.051 -30.289  0.00  0.00    +0.000 C 
ATOM      9  C   UNL     1     -26.834  61.692 -26.595  0.00  0.00    +0.000 C 
ATOM     10  C   UNL     1     -29.543  60.316 -28.782  0.00  0.00    +0.000 C 
ATOM     11  C   UNL     1     -28.749  60.001 -30.056  0.00  0.00    +0.000 C 
ATOM     12  C   UNL     1     -28.785  61.611 -25.024  0.00  0.00    +0.000 C 
ATOM     13  C   UNL     1     -27.404  61.843 -25.221  0.00  0.00    +0.000 C 
ATOM     14  C   UNL     1     -29.466  59.277 -25.798  0.00  0.00    +0.000 C 
ATOM     15  C   UNL     1     -30.946  61.278 -26.186  0.00  0.00    +0.000 C 
ATOM     16  C   UNL     1     -29.585  62.492 -24.204  0.00  0.00    +0.000 A 
ATOM     17  C   UNL     1     -31.586  62.031 -25.507  0.00  0.00    +0.000 C 
ATOM     18  C   UNL     1     -30.929  62.681 -24.447  0.00  0.00    +0.000 A 
ATOM     19  C   UNL     1     -29.292  63.334 -23.112  0.00  0.00    +0.000 A 
ATOM     20  C   UNL     1     -30.485  63.958 -22.773  0.00  0.00    +0.000 A 
ENDROOT
BRANCH   8  21
ATOM     21  O   UNL     1     -25.926  62.377 -30.704  0.00  0.00    +0.000 OA
ATOM     22  H   UNL     1     -25.506  61.534 -30.943  0.00  0.00    +0.000 HD
ENDBRANCH   8  21
BRANCH   8  23
ATOM     23  C   UNL     1     -28.212  62.618 -31.233  0.00  0.00    +0.000 C 
BRANCH  23  24
ATOM     24  O   UNL     1     -29.106  63.120 -32.085  0.00  0.00    +0.000 OA
ATOM     25  H   UNL     1     -28.870  62.903 -33.005  0.00  0.00    +0.000 HD
ENDBRANCH  23  24
ENDBRANCH   8  23
TORSDOF 3
ENDMDL
MODEL 9
REMARK VINA RESULT:      -4.8      5.404      7.783
REMARK  Name = 114778_Kahweol.pdbqt.pdb
REMARK  3 active torsions:
REMARK  status: ('A' for Active; 'I' for Inactive)
REMARK    1  A    between atoms: C_8  and  O_21
REMARK    2  A    between atoms: C_8  and  C_23
REMARK    3  A    between atoms: C_23  and  O_24
REMARK                            x       y       z     vdW  Elec       q    Type
REMARK                         _______ _______ _______ _____ _____    ______ ____
ROOT
ATOM      1  O   UNL     1     -37.853  43.752 -16.147  0.00  0.00    +0.000 OA
ATOM      2  C   UNL     1     -31.662  44.691 -16.175  0.00  0.00    +0.000 C 
ATOM      3  C   UNL     1     -32.476  43.400 -15.728  0.00  0.00    +0.000 C 
ATOM      4  C   UNL     1     -29.599  43.511 -16.463  0.00  0.00    +0.000 C 
ATOM      5  C   UNL     1     -30.281  44.527 -15.644  0.00  0.00    +0.000 C 
ATOM      6  C   UNL     1     -31.306  44.547 -17.604  0.00  0.00    +0.000 C 
ATOM      7  C   UNL     1     -33.771  43.497 -14.914  0.00  0.00    +0.000 C 
ATOM      8  C   UNL     1     -29.993  43.956 -17.933  0.00  0.00    +0.000 C 
ATOM      9  C   UNL     1     -32.414  45.869 -15.831  0.00  0.00    +0.000 C 
ATOM     10  C   UNL     1     -31.644  42.207 -15.744  0.00  0.00    +0.000 C 
ATOM     11  C   UNL     1     -30.144  42.223 -16.061  0.00  0.00    +0.000 C 
ATOM     12  C   UNL     1     -34.589  44.896 -15.053  0.00  0.00    +0.000 C 
ATOM     13  C   UNL     1     -33.808  46.044 -15.317  0.00  0.00    +0.000 C 
ATOM     14  C   UNL     1     -33.435  43.335 -13.396  0.00  0.00    +0.000 C 
ATOM     15  C   UNL     1     -34.717  42.443 -15.373  0.00  0.00    +0.000 C 
ATOM     16  C   UNL     1     -35.976  44.823 -15.450  0.00  0.00    +0.000 A 
ATOM     17  C   UNL     1     -35.863  42.409 -15.722  0.00  0.00    +0.000 C 
ATOM     18  C   UNL     1     -36.575  43.621 -15.766  0.00  0.00    +0.000 A 
ATOM     19  C   UNL     1     -36.979  45.792 -15.656  0.00  0.00    +0.000 A 
ATOM     20  C   UNL     1     -38.109  45.099 -16.068  0.00  0.00    +0.000 A 
ENDROOT
BRANCH   8  21
ATOM     21  O   UNL     1     -29.120  44.977 -18.386  0.00  0.00    +0.000 OA
ATOM     22  H   UNL     1     -29.619  45.475 -19.054  0.00  0.00    +0.000 HD
ENDBRANCH   8  21
BRANCH   8  23
ATOM     23  C   UNL     1     -30.019  42.859 -18.908  0.00  0.00    +0.000 C 
BRANCH  23  24
ATOM     24  O   UNL     1     -30.030  41.871 -19.804  0.00  0.00    +0.000 OA
ATOM     25  H   UNL     1     -29.904  42.217 -20.705  0.00  0.00    +0.000 HD
ENDBRANCH  23  24
ENDBRANCH   8  23
TORSDOF 3
ENDMDL
