MODEL 1
REMARK VINA RESULT:      -3.6      0.000      0.000
REMARK  Name = 1174_Uracil.pdbqt.pdb
REMARK  0 active torsions:
REMARK  status: ('A' for Active; 'I' for Inactive)
REMARK                            x       y       z     vdW  Elec       q    Type
REMARK                         _______ _______ _______ _____ _____    ______ ____
ROOT
ATOM      1  O   UNL     1     -24.980  51.856 -29.953  0.00  0.00    +0.000 OA
ATOM      2  O   UNL     1     -27.074  50.313 -33.788  0.00  0.00    +0.000 OA
ATOM      3  N   UNL     1     -26.057  51.038 -31.827  0.00  0.00    +0.000 N 
ATOM      4  N   UNL     1     -24.580  52.849 -32.000  0.00  0.00    +0.000 N 
ATOM      5  C   UNL     1     -25.187  51.911 -31.158  0.00  0.00    +0.000 A 
ATOM      6  C   UNL     1     -26.319  51.068 -33.195  0.00  0.00    +0.000 A 
ATOM      7  C   UNL     1     -24.843  52.865 -33.318  0.00  0.00    +0.000 A 
ATOM      8  C   UNL     1     -25.588  52.112 -33.865  0.00  0.00    +0.000 A 
ATOM      9  H   UNL     1     -26.527  50.337 -31.276  0.00  0.00    +0.000 HD
ATOM     10  H   UNL     1     -23.937  53.516 -31.593  0.00  0.00    +0.000 HD
ENDROOT
TORSDOF 0
ENDMDL
MODEL 2
REMARK VINA RESULT:      -3.5      9.352     10.346
REMARK  Name = 1174_Uracil.pdbqt.pdb
REMARK  0 active torsions:
REMARK  status: ('A' for Active; 'I' for Inactive)
REMARK                            x       y       z     vdW  Elec       q    Type
REMARK                         _______ _______ _______ _____ _____    ______ ____
ROOT
ATOM      1  O   UNL     1     -26.230  59.983 -30.389  0.00  0.00    +0.000 OA
ATOM      2  O   UNL     1     -27.011  60.985 -25.933  0.00  0.00    +0.000 OA
ATOM      3  N   UNL     1     -26.551  60.482 -28.155  0.00  0.00    +0.000 N 
ATOM      4  N   UNL     1     -28.383  60.279 -29.602  0.00  0.00    +0.000 N 
ATOM      5  C   UNL     1     -26.992  60.227 -29.462  0.00  0.00    +0.000 A 
ATOM      6  C   UNL     1     -27.384  60.763 -27.074  0.00  0.00    +0.000 A 
ATOM      7  C   UNL     1     -29.173  60.551 -28.550  0.00  0.00    +0.000 A 
ATOM      8  C   UNL     1     -28.775  60.765 -27.447  0.00  0.00    +0.000 A 
ATOM      9  H   UNL     1     -25.558  60.459 -27.987  0.00  0.00    +0.000 HD
ATOM     10  H   UNL     1     -28.780  60.106 -30.517  0.00  0.00    +0.000 HD
ENDROOT
TORSDOF 0
ENDMDL
MODEL 3
REMARK VINA RESULT:      -3.4     27.614     28.394
REMARK  Name = 1174_Uracil.pdbqt.pdb
REMARK  0 active torsions:
REMARK  status: ('A' for Active; 'I' for Inactive)
REMARK                            x       y       z     vdW  Elec       q    Type
REMARK                         _______ _______ _______ _____ _____    ______ ____
ROOT
ATOM      1  O   UNL     1     -34.958  42.489  -7.347  0.00  0.00    +0.000 OA
ATOM      2  O   UNL     1     -34.659  46.338  -4.783  0.00  0.00    +0.000 OA
ATOM      3  N   UNL     1     -34.875  44.398  -6.046  0.00  0.00    +0.000 N 
ATOM      4  N   UNL     1     -33.020  43.747  -7.322  0.00  0.00    +0.000 N 
ATOM      5  C   UNL     1     -34.335  43.462  -6.941  0.00  0.00    +0.000 A 
ATOM      6  C   UNL     1     -34.199  45.516  -5.561  0.00  0.00    +0.000 A 
ATOM      7  C   UNL     1     -32.383  44.830  -6.846  0.00  0.00    +0.000 A 
ATOM      8  C   UNL     1     -32.862  45.613  -6.085  0.00  0.00    +0.000 A 
ATOM      9  H   UNL     1     -35.820  44.250  -5.732  0.00  0.00    +0.000 HD
ATOM     10  H   UNL     1     -32.559  43.118  -7.968  0.00  0.00    +0.000 HD
ENDROOT
TORSDOF 0
ENDMDL
MODEL 4
REMARK VINA RESULT:      -3.4      9.401     10.113
REMARK  Name = 1174_Uracil.pdbqt.pdb
REMARK  0 active torsions:
REMARK  status: ('A' for Active; 'I' for Inactive)
REMARK                            x       y       z     vdW  Elec       q    Type
REMARK                         _______ _______ _______ _____ _____    ______ ____
ROOT
ATOM      1  O   UNL     1     -26.224  60.015 -30.295  0.00  0.00    +0.000 OA
ATOM      2  O   UNL     1     -30.483  60.637 -28.579  0.00  0.00    +0.000 OA
ATOM      3  N   UNL     1     -28.374  60.316 -29.503  0.00  0.00    +0.000 N 
ATOM      4  N   UNL     1     -26.545  60.416 -28.042  0.00  0.00    +0.000 N 
ATOM      5  C   UNL     1     -26.982  60.231 -29.358  0.00  0.00    +0.000 A 
ATOM      6  C   UNL     1     -29.269  60.560 -28.464  0.00  0.00    +0.000 A 
ATOM      7  C   UNL     1     -27.421  60.650 -27.051  0.00  0.00    +0.000 A 
ATOM      8  C   UNL     1     -28.602  60.718 -27.198  0.00  0.00    +0.000 A 
ATOM      9  H   UNL     1     -28.754  60.192 -30.428  0.00  0.00    +0.000 HD
ATOM     10  H   UNL     1     -25.551  60.369 -27.854  0.00  0.00    +0.000 HD
ENDROOT
TORSDOF 0
ENDMDL
MODEL 5
REMARK VINA RESULT:      -3.3     27.137     28.183
REMARK  Name = 1174_Uracil.pdbqt.pdb
REMARK  0 active torsions:
REMARK  status: ('A' for Active; 'I' for Inactive)
REMARK                            x       y       z     vdW  Elec       q    Type
REMARK                         _______ _______ _______ _____ _____    ______ ____
ROOT
ATOM      1  O   UNL     1     -33.198  44.221  -3.767  0.00  0.00    +0.000 OA
ATOM      2  O   UNL     1     -32.347  47.000  -7.376  0.00  0.00    +0.000 OA
ATOM      3  N   UNL     1     -32.757  45.658  -5.523  0.00  0.00    +0.000 N 
ATOM      4  N   UNL     1     -33.460  43.461  -5.933  0.00  0.00    +0.000 N 
ATOM      5  C   UNL     1     -33.144  44.427  -4.973  0.00  0.00    +0.000 A 
ATOM      6  C   UNL     1     -32.682  45.932  -6.887  0.00  0.00    +0.000 A 
ATOM      7  C   UNL     1     -33.383  43.741  -7.245  0.00  0.00    +0.000 A 
ATOM      8  C   UNL     1     -33.051  44.796  -7.690  0.00  0.00    +0.000 A 
ATOM      9  H   UNL     1     -32.515  46.398  -4.883  0.00  0.00    +0.000 HD
ATOM     10  H   UNL     1     -33.749  42.544  -5.616  0.00  0.00    +0.000 HD
ENDROOT
TORSDOF 0
ENDMDL
MODEL 6
REMARK VINA RESULT:      -3.2     26.658     27.707
REMARK  Name = 1174_Uracil.pdbqt.pdb
REMARK  0 active torsions:
REMARK  status: ('A' for Active; 'I' for Inactive)
REMARK                            x       y       z     vdW  Elec       q    Type
REMARK                         _______ _______ _______ _____ _____    ______ ____
ROOT
ATOM      1  O   UNL     1     -35.996  46.133  -6.720  0.00  0.00    +0.000 OA
ATOM      2  O   UNL     1     -32.403  43.942  -8.661  0.00  0.00    +0.000 OA
ATOM      3  N   UNL     1     -34.240  45.037  -7.748  0.00  0.00    +0.000 N 
ATOM      4  N   UNL     1     -34.080  45.694  -5.504  0.00  0.00    +0.000 N 
ATOM      5  C   UNL     1     -34.867  45.662  -6.660  0.00  0.00    +0.000 A 
ATOM      6  C   UNL     1     -32.959  44.489  -7.721  0.00  0.00    +0.000 A 
ATOM      7  C   UNL     1     -32.847  45.161  -5.494  0.00  0.00    +0.000 A 
ATOM      8  C   UNL     1     -32.333  44.634  -6.432  0.00  0.00    +0.000 A 
ATOM      9  H   UNL     1     -34.754  44.981  -8.612  0.00  0.00    +0.000 HD
ATOM     10  H   UNL     1     -34.463  46.129  -4.674  0.00  0.00    +0.000 HD
ENDROOT
TORSDOF 0
ENDMDL
MODEL 7
REMARK VINA RESULT:      -3.2     29.867     30.693
REMARK  Name = 1174_Uracil.pdbqt.pdb
REMARK  0 active torsions:
REMARK  status: ('A' for Active; 'I' for Inactive)
REMARK                            x       y       z     vdW  Elec       q    Type
REMARK                         _______ _______ _______ _____ _____    ______ ____
ROOT
ATOM      1  O   UNL     1     -35.731  61.182  -2.904  0.00  0.00    +0.000 OA
ATOM      2  O   UNL     1     -37.895  57.662  -5.002  0.00  0.00    +0.000 OA
ATOM      3  N   UNL     1     -36.843  59.412  -3.890  0.00  0.00    +0.000 N 
ATOM      4  N   UNL     1     -35.346  60.717  -5.134  0.00  0.00    +0.000 N 
ATOM      5  C   UNL     1     -35.953  60.496  -3.893  0.00  0.00    +0.000 A 
ATOM      6  C   UNL     1     -37.123  58.609  -4.994  0.00  0.00    +0.000 A 
ATOM      7  C   UNL     1     -35.627  59.934  -6.189  0.00  0.00    +0.000 A 
ATOM      8  C   UNL     1     -36.387  59.017  -6.163  0.00  0.00    +0.000 A 
ATOM      9  H   UNL     1     -37.314  59.200  -3.026  0.00  0.00    +0.000 HD
ATOM     10  H   UNL     1     -34.689  61.483  -5.218  0.00  0.00    +0.000 HD
ENDROOT
TORSDOF 0
ENDMDL
MODEL 8
REMARK VINA RESULT:      -3.1     19.299     19.967
REMARK  Name = 1174_Uracil.pdbqt.pdb
REMARK  0 active torsions:
REMARK  status: ('A' for Active; 'I' for Inactive)
REMARK                            x       y       z     vdW  Elec       q    Type
REMARK                         _______ _______ _______ _____ _____    ______ ____
ROOT
ATOM      1  O   UNL     1     -37.971  56.975 -20.935  0.00  0.00    +0.000 OA
ATOM      2  O   UNL     1     -41.047  59.222 -18.296  0.00  0.00    +0.000 OA
ATOM      3  N   UNL     1     -39.490  58.052 -19.566  0.00  0.00    +0.000 N 
ATOM      4  N   UNL     1     -39.140  58.787 -21.764  0.00  0.00    +0.000 N 
ATOM      5  C   UNL     1     -38.797  57.864 -20.771  0.00  0.00    +0.000 A 
ATOM      6  C   UNL     1     -40.437  59.049 -19.341  0.00  0.00    +0.000 A 
ATOM      7  C   UNL     1     -40.055  59.743 -21.530  0.00  0.00    +0.000 A 
ATOM      8  C   UNL     1     -40.633  59.885 -20.497  0.00  0.00    +0.000 A 
ATOM      9  H   UNL     1     -39.289  57.419 -18.810  0.00  0.00    +0.000 HD
ATOM     10  H   UNL     1     -38.683  58.718 -22.664  0.00  0.00    +0.000 HD
ENDROOT
TORSDOF 0
ENDMDL
MODEL 9
REMARK VINA RESULT:      -3.0     19.618     20.259
REMARK  Name = 1174_Uracil.pdbqt.pdb
REMARK  0 active torsions:
REMARK  status: ('A' for Active; 'I' for Inactive)
REMARK                            x       y       z     vdW  Elec       q    Type
REMARK                         _______ _______ _______ _____ _____    ______ ____
ROOT
ATOM      1  O   UNL     1     -38.787  56.661 -19.942  0.00  0.00    +0.000 OA
ATOM      2  O   UNL     1     -40.069  60.546 -22.118  0.00  0.00    +0.000 OA
ATOM      3  N   UNL     1     -39.385  58.581 -21.081  0.00  0.00    +0.000 N 
ATOM      4  N   UNL     1     -40.298  58.116 -18.973  0.00  0.00    +0.000 N 
ATOM      5  C   UNL     1     -39.436  57.698 -19.992  0.00  0.00    +0.000 A 
ATOM      6  C   UNL     1     -40.107  59.769 -21.176  0.00  0.00    +0.000 A 
ATOM      7  C   UNL     1     -40.988  59.264 -19.081  0.00  0.00    +0.000 A 
ATOM      8  C   UNL     1     -40.929  60.000 -20.016  0.00  0.00    +0.000 A 
ATOM      9  H   UNL     1     -38.781  58.338 -21.849  0.00  0.00    +0.000 HD
ATOM     10  H   UNL     1     -40.391  57.531 -18.152  0.00  0.00    +0.000 HD
ENDROOT
TORSDOF 0
ENDMDL
