MODEL 1
REMARK VINA RESULT:      -4.9      0.000      0.000
REMARK  Name = 122180587_TripolinolateA.pdbqt.pdb
REMARK  9 active torsions:
REMARK  status: ('A' for Active; 'I' for Inactive)
REMARK    1  A    between atoms: C_1  and  O_16
REMARK    2  A    between atoms: C_2  and  O_7
REMARK    3  A    between atoms: C_3  and  C_9
REMARK    4  A    between atoms: C_10  and  C_11
REMARK    5  A    between atoms: C_11  and  O_12
REMARK    6  A    between atoms: O_12  and  C_14
REMARK    7  A    between atoms: O_16  and  C_18
REMARK    8  A    between atoms: C_18  and  C_19
REMARK    9  A    between atoms: C_19  and  C_21
REMARK                            x       y       z     vdW  Elec       q    Type
REMARK                         _______ _______ _______ _____ _____    ______ ____
ROOT
ATOM      1  C   UNL     1     -31.672  44.333 -17.623  0.00  0.00    +0.000 A 
ATOM      2  C   UNL     1     -32.257  45.521 -17.172  0.00  0.00    +0.000 A 
ATOM      3  C   UNL     1     -32.394  44.546 -14.955  0.00  0.00    +0.000 A 
ATOM      4  C   UNL     1     -31.475  43.247 -16.767  0.00  0.00    +0.000 A 
ATOM      5  C   UNL     1     -32.610  45.616 -15.823  0.00  0.00    +0.000 A 
ATOM      6  C   UNL     1     -31.830  43.361 -15.427  0.00  0.00    +0.000 A 
ENDROOT
BRANCH   2   7
ATOM      7  O   UNL     1     -32.461  46.513 -18.098  0.00  0.00    +0.000 OA
ATOM      8  C   UNL     1     -33.798  46.762 -18.435  0.00  0.00    +0.000 C 
ENDBRANCH   2   7
BRANCH   3   9
ATOM      9  C   UNL     1     -32.756  44.663 -13.581  0.00  0.00    +0.000 C 
ATOM     10  C   UNL     1     -33.060  44.761 -12.423  0.00  0.00    +0.000 C 
BRANCH  10  11
ATOM     11  C   UNL     1     -33.446  44.881 -10.946  0.00  0.00    +0.000 C 
BRANCH  11  12
ATOM     12  O   UNL     1     -33.783  44.985  -9.662  0.00  0.00    +0.000 OA
BRANCH  12  14
ATOM     13  O   UNL     1     -32.347  43.281  -8.953  0.00  0.00    +0.000 OA
ATOM     14  C   UNL     1     -32.998  44.299  -8.808  0.00  0.00    +0.000 C 
ATOM     15  C   UNL     1     -32.909  44.891  -7.442  0.00  0.00    +0.000 C 
ENDBRANCH  12  14
ENDBRANCH  11  12
ENDBRANCH  10  11
ENDBRANCH   3   9
BRANCH   1  16
ATOM     16  O   UNL     1     -31.353  44.184 -18.979  0.00  0.00    +0.000 OA
BRANCH  16  18
ATOM     17  O   UNL     1     -29.212  45.091 -18.961  0.00  0.00    +0.000 OA
ATOM     18  C   UNL     1     -29.986  44.180 -19.227  0.00  0.00    +0.000 C 
BRANCH  18  19
ATOM     19  C   UNL     1     -29.576  42.914 -19.883  0.00  0.00    +0.000 C 
ATOM     20  C   UNL     1     -29.845  42.604 -21.349  0.00  0.00    +0.000 C 
BRANCH  19  21
ATOM     21  C   UNL     1     -28.891  41.932 -19.119  0.00  0.00    +0.000 C 
ATOM     22  C   UNL     1     -28.144  40.864 -18.298  0.00  0.00    +0.000 C 
ENDBRANCH  19  21
ENDBRANCH  18  19
ENDBRANCH  16  18
ENDBRANCH   1  16
TORSDOF 9
ENDMDL
MODEL 2
REMARK VINA RESULT:      -4.7     19.918     20.649
REMARK  Name = 122180587_TripolinolateA.pdbqt.pdb
REMARK  9 active torsions:
REMARK  status: ('A' for Active; 'I' for Inactive)
REMARK    1  A    between atoms: C_1  and  O_16
REMARK    2  A    between atoms: C_2  and  O_7
REMARK    3  A    between atoms: C_3  and  C_9
REMARK    4  A    between atoms: C_10  and  C_11
REMARK    5  A    between atoms: C_11  and  O_12
REMARK    6  A    between atoms: O_12  and  C_14
REMARK    7  A    between atoms: O_16  and  C_18
REMARK    8  A    between atoms: C_18  and  C_19
REMARK    9  A    between atoms: C_19  and  C_21
REMARK                            x       y       z     vdW  Elec       q    Type
REMARK                         _______ _______ _______ _____ _____    ______ ____
ROOT
ATOM      1  C   UNL     1     -16.415  54.637 -25.099  0.00  0.00    +0.000 A 
ATOM      2  C   UNL     1     -16.609  55.821 -24.380  0.00  0.00    +0.000 A 
ATOM      3  C   UNL     1     -15.644  54.733 -22.438  0.00  0.00    +0.000 A 
ATOM      4  C   UNL     1     -15.872  53.499 -24.497  0.00  0.00    +0.000 A 
ATOM      5  C   UNL     1     -16.210  55.855 -23.041  0.00  0.00    +0.000 A 
ATOM      6  C   UNL     1     -15.478  53.554 -23.164  0.00  0.00    +0.000 A 
ENDROOT
BRANCH   2   7
ATOM      7  O   UNL     1     -17.200  56.868 -25.040  0.00  0.00    +0.000 OA
ATOM      8  C   UNL     1     -16.329  57.862 -25.504  0.00  0.00    +0.000 C 
ENDBRANCH   2   7
BRANCH   3   9
ATOM      9  C   UNL     1     -15.238  54.789 -21.072  0.00  0.00    +0.000 C 
ATOM     10  C   UNL     1     -14.895  54.836 -19.922  0.00  0.00    +0.000 C 
BRANCH  10  11
ATOM     11  C   UNL     1     -14.455  54.892 -18.456  0.00  0.00    +0.000 C 
BRANCH  11  12
ATOM     12  O   UNL     1     -14.072  54.940 -17.182  0.00  0.00    +0.000 OA
BRANCH  12  14
ATOM     13  O   UNL     1     -15.915  54.978 -15.745  0.00  0.00    +0.000 OA
ATOM     14  C   UNL     1     -14.972  55.473 -16.334  0.00  0.00    +0.000 C 
ATOM     15  C   UNL     1     -14.781  56.928 -16.067  0.00  0.00    +0.000 C 
ENDBRANCH  12  14
ENDBRANCH  11  12
ENDBRANCH  10  11
ENDBRANCH   3   9
BRANCH   1  16
ATOM     16  O   UNL     1     -16.850  54.549 -26.428  0.00  0.00    +0.000 OA
BRANCH  16  18
ATOM     17  O   UNL     1     -14.757  54.594 -27.442  0.00  0.00    +0.000 OA
ATOM     18  C   UNL     1     -15.868  54.097 -27.301  0.00  0.00    +0.000 C 
BRANCH  18  19
ATOM     19  C   UNL     1     -16.350  52.922 -28.069  0.00  0.00    +0.000 C 
ATOM     20  C   UNL     1     -15.619  51.586 -28.105  0.00  0.00    +0.000 C 
BRANCH  19  21
ATOM     21  C   UNL     1     -17.558  53.030 -28.808  0.00  0.00    +0.000 C 
ATOM     22  C   UNL     1     -18.871  53.152 -29.604  0.00  0.00    +0.000 C 
ENDBRANCH  19  21
ENDBRANCH  18  19
ENDBRANCH  16  18
ENDBRANCH   1  16
TORSDOF 9
ENDMDL
MODEL 3
REMARK VINA RESULT:      -4.7      3.281     10.627
REMARK  Name = 122180587_TripolinolateA.pdbqt.pdb
REMARK  9 active torsions:
REMARK  status: ('A' for Active; 'I' for Inactive)
REMARK    1  A    between atoms: C_1  and  O_16
REMARK    2  A    between atoms: C_2  and  O_7
REMARK    3  A    between atoms: C_3  and  C_9
REMARK    4  A    between atoms: C_10  and  C_11
REMARK    5  A    between atoms: C_11  and  O_12
REMARK    6  A    between atoms: O_12  and  C_14
REMARK    7  A    between atoms: O_16  and  C_18
REMARK    8  A    between atoms: C_18  and  C_19
REMARK    9  A    between atoms: C_19  and  C_21
REMARK                            x       y       z     vdW  Elec       q    Type
REMARK                         _______ _______ _______ _____ _____    ______ ____
ROOT
ATOM      1  C   UNL     1     -33.932  45.047  -7.488  0.00  0.00    +0.000 A 
ATOM      2  C   UNL     1     -34.549  45.946  -8.364  0.00  0.00    +0.000 A 
ATOM      3  C   UNL     1     -33.451  44.816 -10.208  0.00  0.00    +0.000 A 
ATOM      4  C   UNL     1     -33.059  44.061  -7.952  0.00  0.00    +0.000 A 
ATOM      5  C   UNL     1     -34.301  45.814  -9.733  0.00  0.00    +0.000 A 
ATOM      6  C   UNL     1     -32.827  43.942  -9.319  0.00  0.00    +0.000 A 
ENDROOT
BRANCH   2   7
ATOM      7  O   UNL     1     -35.347  46.916  -7.811  0.00  0.00    +0.000 OA
ATOM      8  C   UNL     1     -36.528  47.201  -8.509  0.00  0.00    +0.000 C 
ENDBRANCH   2   7
BRANCH   3   9
ATOM      9  C   UNL     1     -33.213  44.693 -11.609  0.00  0.00    +0.000 C 
ATOM     10  C   UNL     1     -33.014  44.592 -12.789  0.00  0.00    +0.000 C 
BRANCH  10  11
ATOM     11  C   UNL     1     -32.763  44.465 -14.294  0.00  0.00    +0.000 C 
BRANCH  11  12
ATOM     12  O   UNL     1     -32.543  44.355 -15.603  0.00  0.00    +0.000 OA
BRANCH  12  14
ATOM     13  O   UNL     1     -32.100  45.847 -17.348  0.00  0.00    +0.000 OA
ATOM     14  C   UNL     1     -32.603  45.512 -16.291  0.00  0.00    +0.000 C 
ATOM     15  C   UNL     1     -33.432  46.571 -15.646  0.00  0.00    +0.000 C 
ENDBRANCH  12  14
ENDBRANCH  11  12
ENDBRANCH  10  11
ENDBRANCH   3   9
BRANCH   1  16
ATOM     16  O   UNL     1     -34.117  45.182  -6.106  0.00  0.00    +0.000 OA
BRANCH  16  18
ATOM     17  O   UNL     1     -36.266  44.482  -5.559  0.00  0.00    +0.000 OA
ATOM     18  C   UNL     1     -35.056  44.299  -5.586  0.00  0.00    +0.000 C 
BRANCH  18  19
ATOM     19  C   UNL     1     -34.391  43.090  -5.041  0.00  0.00    +0.000 C 
ATOM     20  C   UNL     1     -34.863  41.671  -5.331  0.00  0.00    +0.000 C 
BRANCH  19  21
ATOM     21  C   UNL     1     -33.251  43.245  -4.209  0.00  0.00    +0.000 C 
ATOM     22  C   UNL     1     -32.009  43.410  -3.312  0.00  0.00    +0.000 C 
ENDBRANCH  19  21
ENDBRANCH  18  19
ENDBRANCH  16  18
ENDBRANCH   1  16
TORSDOF 9
ENDMDL
MODEL 4
REMARK VINA RESULT:      -4.6      2.375      2.770
REMARK  Name = 122180587_TripolinolateA.pdbqt.pdb
REMARK  9 active torsions:
REMARK  status: ('A' for Active; 'I' for Inactive)
REMARK    1  A    between atoms: C_1  and  O_16
REMARK    2  A    between atoms: C_2  and  O_7
REMARK    3  A    between atoms: C_3  and  C_9
REMARK    4  A    between atoms: C_10  and  C_11
REMARK    5  A    between atoms: C_11  and  O_12
REMARK    6  A    between atoms: O_12  and  C_14
REMARK    7  A    between atoms: O_16  and  C_18
REMARK    8  A    between atoms: C_18  and  C_19
REMARK    9  A    between atoms: C_19  and  C_21
REMARK                            x       y       z     vdW  Elec       q    Type
REMARK                         _______ _______ _______ _____ _____    ______ ____
ROOT
ATOM      1  C   UNL     1     -32.023  45.520 -16.817  0.00  0.00    +0.000 A 
ATOM      2  C   UNL     1     -33.035  46.481 -16.903  0.00  0.00    +0.000 A 
ATOM      3  C   UNL     1     -33.765  45.827 -14.684  0.00  0.00    +0.000 A 
ATOM      4  C   UNL     1     -31.893  44.695 -15.697  0.00  0.00    +0.000 A 
ATOM      5  C   UNL     1     -33.903  46.627 -15.817  0.00  0.00    +0.000 A 
ATOM      6  C   UNL     1     -32.763  44.859 -14.624  0.00  0.00    +0.000 A 
ENDROOT
BRANCH   2   7
ATOM      7  O   UNL     1     -33.118  47.205 -18.065  0.00  0.00    +0.000 OA
ATOM      8  C   UNL     1     -33.911  48.358 -18.006  0.00  0.00    +0.000 C 
ENDBRANCH   2   7
BRANCH   3   9
ATOM      9  C   UNL     1     -34.657  45.994 -13.584  0.00  0.00    +0.000 C 
ATOM     10  C   UNL     1     -35.407  46.137 -12.657  0.00  0.00    +0.000 C 
BRANCH  10  11
ATOM     11  C   UNL     1     -36.361  46.321 -11.472  0.00  0.00    +0.000 C 
BRANCH  11  12
ATOM     12  O   UNL     1     -37.191  46.482 -10.444  0.00  0.00    +0.000 OA
BRANCH  12  14
ATOM     13  O   UNL     1     -35.577  46.751  -8.773  0.00  0.00    +0.000 OA
ATOM     14  C   UNL     1     -36.629  46.997  -9.332  0.00  0.00    +0.000 C 
ATOM     15  C   UNL     1     -37.441  48.058  -8.667  0.00  0.00    +0.000 C 
ENDBRANCH  12  14
ENDBRANCH  11  12
ENDBRANCH  10  11
ENDBRANCH   3   9
BRANCH   1  16
ATOM     16  O   UNL     1     -31.167  45.309 -17.907  0.00  0.00    +0.000 OA
BRANCH  16  18
ATOM     17  O   UNL     1     -32.207  43.374 -18.670  0.00  0.00    +0.000 OA
ATOM     18  C   UNL     1     -31.197  44.006 -18.388  0.00  0.00    +0.000 C 
BRANCH  18  19
ATOM     19  C   UNL     1     -29.822  43.459 -18.503  0.00  0.00    +0.000 C 
ATOM     20  C   UNL     1     -29.052  43.394 -19.816  0.00  0.00    +0.000 C 
BRANCH  19  21
ATOM     21  C   UNL     1     -29.173  42.973 -17.337  0.00  0.00    +0.000 C 
ATOM     22  C   UNL     1     -28.477  42.444 -16.069  0.00  0.00    +0.000 C 
ENDBRANCH  19  21
ENDBRANCH  18  19
ENDBRANCH  16  18
ENDBRANCH   1  16
TORSDOF 9
ENDMDL
MODEL 5
REMARK VINA RESULT:      -4.6     20.801     22.750
REMARK  Name = 122180587_TripolinolateA.pdbqt.pdb
REMARK  9 active torsions:
REMARK  status: ('A' for Active; 'I' for Inactive)
REMARK    1  A    between atoms: C_1  and  O_16
REMARK    2  A    between atoms: C_2  and  O_7
REMARK    3  A    between atoms: C_3  and  C_9
REMARK    4  A    between atoms: C_10  and  C_11
REMARK    5  A    between atoms: C_11  and  O_12
REMARK    6  A    between atoms: O_12  and  C_14
REMARK    7  A    between atoms: O_16  and  C_18
REMARK    8  A    between atoms: C_18  and  C_19
REMARK    9  A    between atoms: C_19  and  C_21
REMARK                            x       y       z     vdW  Elec       q    Type
REMARK                         _______ _______ _______ _____ _____    ______ ____
ROOT
ATOM      1  C   UNL     1     -17.762  55.284 -27.309  0.00  0.00    +0.000 A 
ATOM      2  C   UNL     1     -18.036  56.067 -28.435  0.00  0.00    +0.000 A 
ATOM      3  C   UNL     1     -18.875  54.080 -29.544  0.00  0.00    +0.000 A 
ATOM      4  C   UNL     1     -18.009  53.909 -27.300  0.00  0.00    +0.000 A 
ATOM      5  C   UNL     1     -18.602  55.448 -29.552  0.00  0.00    +0.000 A 
ATOM      6  C   UNL     1     -18.576  53.310 -28.421  0.00  0.00    +0.000 A 
ENDROOT
BRANCH   2   7
ATOM      7  O   UNL     1     -17.708  57.398 -28.370  0.00  0.00    +0.000 OA
ATOM      8  C   UNL     1     -16.484  57.751 -28.953  0.00  0.00    +0.000 C 
ENDBRANCH   2   7
BRANCH   3   9
ATOM      9  C   UNL     1     -19.458  53.466 -30.692  0.00  0.00    +0.000 C 
ATOM     10  C   UNL     1     -19.947  52.949 -31.659  0.00  0.00    +0.000 C 
BRANCH  10  11
ATOM     11  C   UNL     1     -20.569  52.294 -32.896  0.00  0.00    +0.000 C 
BRANCH  11  12
ATOM     12  O   UNL     1     -21.111  51.725 -33.971  0.00  0.00    +0.000 OA
BRANCH  12  14
ATOM     13  O   UNL     1     -22.447  53.301 -35.066  0.00  0.00    +0.000 OA
ATOM     14  C   UNL     1     -22.251  52.297 -34.406  0.00  0.00    +0.000 C 
ATOM     15  C   UNL     1     -23.494  51.574 -34.010  0.00  0.00    +0.000 C 
ENDBRANCH  12  14
ENDBRANCH  11  12
ENDBRANCH  10  11
ENDBRANCH   3   9
BRANCH   1  16
ATOM     16  O   UNL     1     -17.147  55.861 -26.190  0.00  0.00    +0.000 OA
BRANCH  16  18
ATOM     17  O   UNL     1     -14.968  55.154 -26.591  0.00  0.00    +0.000 OA
ATOM     18  C   UNL     1     -15.940  55.261 -25.853  0.00  0.00    +0.000 C 
BRANCH  18  19
ATOM     19  C   UNL     1     -15.984  54.741 -24.464  0.00  0.00    +0.000 C 
ATOM     20  C   UNL     1     -15.613  53.312 -24.091  0.00  0.00    +0.000 C 
BRANCH  19  21
ATOM     21  C   UNL     1     -16.384  55.611 -23.415  0.00  0.00    +0.000 C 
ATOM     22  C   UNL     1     -16.811  56.551 -22.273  0.00  0.00    +0.000 C 
ENDBRANCH  19  21
ENDBRANCH  18  19
ENDBRANCH  16  18
ENDBRANCH   1  16
TORSDOF 9
ENDMDL
MODEL 6
REMARK VINA RESULT:      -4.6     20.079     22.172
REMARK  Name = 122180587_TripolinolateA.pdbqt.pdb
REMARK  9 active torsions:
REMARK  status: ('A' for Active; 'I' for Inactive)
REMARK    1  A    between atoms: C_1  and  O_16
REMARK    2  A    between atoms: C_2  and  O_7
REMARK    3  A    between atoms: C_3  and  C_9
REMARK    4  A    between atoms: C_10  and  C_11
REMARK    5  A    between atoms: C_11  and  O_12
REMARK    6  A    between atoms: O_12  and  C_14
REMARK    7  A    between atoms: O_16  and  C_18
REMARK    8  A    between atoms: C_18  and  C_19
REMARK    9  A    between atoms: C_19  and  C_21
REMARK                            x       y       z     vdW  Elec       q    Type
REMARK                         _______ _______ _______ _____ _____    ______ ____
ROOT
ATOM      1  C   UNL     1     -16.813  53.735 -26.449  0.00  0.00    +0.000 A 
ATOM      2  C   UNL     1     -16.690  52.541 -27.167  0.00  0.00    +0.000 A 
ATOM      3  C   UNL     1     -18.310  53.397 -28.757  0.00  0.00    +0.000 A 
ATOM      4  C   UNL     1     -17.693  54.741 -26.852  0.00  0.00    +0.000 A 
ATOM      5  C   UNL     1     -17.448  52.387 -28.331  0.00  0.00    +0.000 A 
ATOM      6  C   UNL     1     -18.436  54.572 -28.017  0.00  0.00    +0.000 A 
ENDROOT
BRANCH   2   7
ATOM      7  O   UNL     1     -15.842  51.587 -26.663  0.00  0.00    +0.000 OA
ATOM      8  C   UNL     1     -16.451  50.408 -26.217  0.00  0.00    +0.000 C 
ENDBRANCH   2   7
BRANCH   3   9
ATOM      9  C   UNL     1     -19.072  53.225 -29.950  0.00  0.00    +0.000 C 
ATOM     10  C   UNL     1     -19.712  53.080 -30.956  0.00  0.00    +0.000 C 
BRANCH  10  11
ATOM     11  C   UNL     1     -20.526  52.898 -32.241  0.00  0.00    +0.000 C 
BRANCH  11  12
ATOM     12  O   UNL     1     -21.235  52.740 -33.356  0.00  0.00    +0.000 OA
BRANCH  12  14
ATOM     13  O   UNL     1     -23.197  53.779 -32.623  0.00  0.00    +0.000 OA
ATOM     14  C   UNL     1     -22.562  52.930 -33.222  0.00  0.00    +0.000 C 
ATOM     15  C   UNL     1     -23.404  51.925 -33.932  0.00  0.00    +0.000 C 
ENDBRANCH  12  14
ENDBRANCH  11  12
ENDBRANCH  10  11
ENDBRANCH   3   9
BRANCH   1  16
ATOM     16  O   UNL     1     -16.108  53.903 -25.250  0.00  0.00    +0.000 OA
BRANCH  16  18
ATOM     17  O   UNL     1     -14.829  55.770 -25.784  0.00  0.00    +0.000 OA
ATOM     18  C   UNL     1     -15.636  55.196 -25.064  0.00  0.00    +0.000 C 
BRANCH  18  19
ATOM     19  C   UNL     1     -16.232  55.801 -23.847  0.00  0.00    +0.000 C 
ATOM     20  C   UNL     1     -17.168  57.002 -23.880  0.00  0.00    +0.000 C 
BRANCH  19  21
ATOM     21  C   UNL     1     -15.929  55.239 -22.578  0.00  0.00    +0.000 C 
ATOM     22  C   UNL     1     -15.592  54.630 -21.204  0.00  0.00    +0.000 C 
ENDBRANCH  19  21
ENDBRANCH  18  19
ENDBRANCH  16  18
ENDBRANCH   1  16
TORSDOF 9
ENDMDL
MODEL 7
REMARK VINA RESULT:      -4.5      3.483     10.242
REMARK  Name = 122180587_TripolinolateA.pdbqt.pdb
REMARK  9 active torsions:
REMARK  status: ('A' for Active; 'I' for Inactive)
REMARK    1  A    between atoms: C_1  and  O_16
REMARK    2  A    between atoms: C_2  and  O_7
REMARK    3  A    between atoms: C_3  and  C_9
REMARK    4  A    between atoms: C_10  and  C_11
REMARK    5  A    between atoms: C_11  and  O_12
REMARK    6  A    between atoms: O_12  and  C_14
REMARK    7  A    between atoms: O_16  and  C_18
REMARK    8  A    between atoms: C_18  and  C_19
REMARK    9  A    between atoms: C_19  and  C_21
REMARK                            x       y       z     vdW  Elec       q    Type
REMARK                         _______ _______ _______ _____ _____    ______ ____
ROOT
ATOM      1  C   UNL     1     -35.724  45.042  -9.075  0.00  0.00    +0.000 A 
ATOM      2  C   UNL     1     -34.816  44.352  -9.886  0.00  0.00    +0.000 A 
ATOM      3  C   UNL     1     -35.469  45.783 -11.733  0.00  0.00    +0.000 A 
ATOM      4  C   UNL     1     -36.522  46.069  -9.582  0.00  0.00    +0.000 A 
ATOM      5  C   UNL     1     -34.695  44.741 -11.223  0.00  0.00    +0.000 A 
ATOM      6  C   UNL     1     -36.384  46.444 -10.915  0.00  0.00    +0.000 A 
ENDROOT
BRANCH   2   7
ATOM      7  O   UNL     1     -34.117  43.321  -9.312  0.00  0.00    +0.000 OA
ATOM      8  C   UNL     1     -32.738  43.525  -9.176  0.00  0.00    +0.000 C 
ENDBRANCH   2   7
BRANCH   3   9
ATOM      9  C   UNL     1     -35.328  46.169 -13.098  0.00  0.00    +0.000 C 
ATOM     10  C   UNL     1     -35.211  46.494 -14.249  0.00  0.00    +0.000 C 
BRANCH  10  11
ATOM     11  C   UNL     1     -35.065  46.907 -15.717  0.00  0.00    +0.000 C 
BRANCH  11  12
ATOM     12  O   UNL     1     -34.941  47.264 -16.993  0.00  0.00    +0.000 OA
BRANCH  12  14
ATOM     13  O   UNL     1     -32.996  47.797 -18.177  0.00  0.00    +0.000 OA
ATOM     14  C   UNL     1     -33.719  47.066 -17.525  0.00  0.00    +0.000 C 
ATOM     15  C   UNL     1     -33.150  45.710 -17.273  0.00  0.00    +0.000 C 
ENDBRANCH  12  14
ENDBRANCH  11  12
ENDBRANCH  10  11
ENDBRANCH   3   9
BRANCH   1  16
ATOM     16  O   UNL     1     -35.909  44.646  -7.743  0.00  0.00    +0.000 OA
BRANCH  16  18
ATOM     17  O   UNL     1     -36.408  46.276  -6.161  0.00  0.00    +0.000 OA
ATOM     18  C   UNL     1     -35.598  45.639  -6.823  0.00  0.00    +0.000 C 
BRANCH  18  19
ATOM     19  C   UNL     1     -34.130  45.847  -6.755  0.00  0.00    +0.000 C 
ATOM     20  C   UNL     1     -33.389  46.880  -7.594  0.00  0.00    +0.000 C 
BRANCH  19  21
ATOM     21  C   UNL     1     -33.362  45.055  -5.862  0.00  0.00    +0.000 C 
ATOM     22  C   UNL     1     -32.522  44.198  -4.895  0.00  0.00    +0.000 C 
ENDBRANCH  19  21
ENDBRANCH  18  19
ENDBRANCH  16  18
ENDBRANCH   1  16
TORSDOF 9
ENDMDL
MODEL 8
REMARK VINA RESULT:      -4.5     19.959     20.951
REMARK  Name = 122180587_TripolinolateA.pdbqt.pdb
REMARK  9 active torsions:
REMARK  status: ('A' for Active; 'I' for Inactive)
REMARK    1  A    between atoms: C_1  and  O_16
REMARK    2  A    between atoms: C_2  and  O_7
REMARK    3  A    between atoms: C_3  and  C_9
REMARK    4  A    between atoms: C_10  and  C_11
REMARK    5  A    between atoms: C_11  and  O_12
REMARK    6  A    between atoms: O_12  and  C_14
REMARK    7  A    between atoms: O_16  and  C_18
REMARK    8  A    between atoms: C_18  and  C_19
REMARK    9  A    between atoms: C_19  and  C_21
REMARK                            x       y       z     vdW  Elec       q    Type
REMARK                         _______ _______ _______ _____ _____    ______ ____
ROOT
ATOM      1  C   UNL     1     -16.560  55.473 -25.925  0.00  0.00    +0.000 A 
ATOM      2  C   UNL     1     -15.771  54.687 -25.077  0.00  0.00    +0.000 A 
ATOM      3  C   UNL     1     -16.316  56.200 -23.261  0.00  0.00    +0.000 A 
ATOM      4  C   UNL     1     -17.197  56.627 -25.465  0.00  0.00    +0.000 A 
ATOM      5  C   UNL     1     -15.662  55.064 -23.736  0.00  0.00    +0.000 A 
ATOM      6  C   UNL     1     -17.080  56.984 -24.125  0.00  0.00    +0.000 A 
ENDROOT
BRANCH   2   7
ATOM      7  O   UNL     1     -15.139  53.603 -25.632  0.00  0.00    +0.000 OA
ATOM      8  C   UNL     1     -15.610  52.350 -25.221  0.00  0.00    +0.000 C 
ENDBRANCH   2   7
BRANCH   3   9
ATOM      9  C   UNL     1     -16.197  56.566 -21.888  0.00  0.00    +0.000 C 
ATOM     10  C   UNL     1     -16.097  56.872 -20.731  0.00  0.00    +0.000 C 
BRANCH  10  11
ATOM     11  C   UNL     1     -15.970  57.259 -19.254  0.00  0.00    +0.000 C 
BRANCH  11  12
ATOM     12  O   UNL     1     -15.862  57.596 -17.971  0.00  0.00    +0.000 OA
BRANCH  12  14
ATOM     13  O   UNL     1     -17.767  57.803 -16.632  0.00  0.00    +0.000 OA
ATOM     14  C   UNL     1     -16.948  58.193 -17.443  0.00  0.00    +0.000 C 
ATOM     15  C   UNL     1     -17.193  59.578 -17.940  0.00  0.00    +0.000 C 
ENDBRANCH  12  14
ENDBRANCH  11  12
ENDBRANCH  10  11
ENDBRANCH   3   9
BRANCH   1  16
ATOM     16  O   UNL     1     -16.650  55.156 -27.287  0.00  0.00    +0.000 OA
BRANCH  16  18
ATOM     17  O   UNL     1     -18.454  53.707 -27.053  0.00  0.00    +0.000 OA
ATOM     18  C   UNL     1     -17.876  54.609 -27.646  0.00  0.00    +0.000 C 
BRANCH  18  19
ATOM     19  C   UNL     1     -18.399  55.259 -28.873  0.00  0.00    +0.000 C 
ATOM     20  C   UNL     1     -18.557  56.767 -29.021  0.00  0.00    +0.000 C 
BRANCH  19  21
ATOM     21  C   UNL     1     -18.771  54.448 -29.978  0.00  0.00    +0.000 C 
ATOM     22  C   UNL     1     -19.178  53.564 -31.171  0.00  0.00    +0.000 C 
ENDBRANCH  19  21
ENDBRANCH  18  19
ENDBRANCH  16  18
ENDBRANCH   1  16
TORSDOF 9
ENDMDL
MODEL 9
REMARK VINA RESULT:      -4.5      3.308      4.647
REMARK  Name = 122180587_TripolinolateA.pdbqt.pdb
REMARK  9 active torsions:
REMARK  status: ('A' for Active; 'I' for Inactive)
REMARK    1  A    between atoms: C_1  and  O_16
REMARK    2  A    between atoms: C_2  and  O_7
REMARK    3  A    between atoms: C_3  and  C_9
REMARK    4  A    between atoms: C_10  and  C_11
REMARK    5  A    between atoms: C_11  and  O_12
REMARK    6  A    between atoms: O_12  and  C_14
REMARK    7  A    between atoms: O_16  and  C_18
REMARK    8  A    between atoms: C_18  and  C_19
REMARK    9  A    between atoms: C_19  and  C_21
REMARK                            x       y       z     vdW  Elec       q    Type
REMARK                         _______ _______ _______ _____ _____    ______ ____
ROOT
ATOM      1  C   UNL     1     -34.261  45.844 -15.905  0.00  0.00    +0.000 A 
ATOM      2  C   UNL     1     -34.974  46.604 -14.972  0.00  0.00    +0.000 A 
ATOM      3  C   UNL     1     -33.867  45.367 -13.204  0.00  0.00    +0.000 A 
ATOM      4  C   UNL     1     -33.384  44.834 -15.505  0.00  0.00    +0.000 A 
ATOM      5  C   UNL     1     -34.761  46.356 -13.614  0.00  0.00    +0.000 A 
ATOM      6  C   UNL     1     -33.181  44.604 -14.148  0.00  0.00    +0.000 A 
ENDROOT
BRANCH   2   7
ATOM      7  O   UNL     1     -35.855  47.536 -15.461  0.00  0.00    +0.000 OA
ATOM      8  C   UNL     1     -36.056  48.663 -14.654  0.00  0.00    +0.000 C 
ENDBRANCH   2   7
BRANCH   3   9
ATOM      9  C   UNL     1     -33.659  45.131 -11.813  0.00  0.00    +0.000 C 
ATOM     10  C   UNL     1     -33.482  44.932 -10.642  0.00  0.00    +0.000 C 
BRANCH  10  11
ATOM     11  C   UNL     1     -33.253  44.676  -9.149  0.00  0.00    +0.000 C 
BRANCH  11  12
ATOM     12  O   UNL     1     -33.056  44.454  -7.851  0.00  0.00    +0.000 OA
BRANCH  12  14
ATOM     13  O   UNL     1     -32.628  45.826  -6.007  0.00  0.00    +0.000 OA
ATOM     14  C   UNL     1     -33.162  45.542  -7.063  0.00  0.00    +0.000 C 
ATOM     15  C   UNL     1     -34.100  46.584  -7.573  0.00  0.00    +0.000 C 
ENDBRANCH  12  14
ENDBRANCH  11  12
ENDBRANCH  10  11
ENDBRANCH   3   9
BRANCH   1  16
ATOM     16  O   UNL     1     -34.488  46.030 -17.276  0.00  0.00    +0.000 OA
BRANCH  16  18
ATOM     17  O   UNL     1     -32.293  46.264 -18.008  0.00  0.00    +0.000 OA
ATOM     18  C   UNL     1     -33.443  46.676 -17.925  0.00  0.00    +0.000 C 
BRANCH  18  19
ATOM     19  C   UNL     1     -33.903  47.963 -18.504  0.00  0.00    +0.000 C 
ATOM     20  C   UNL     1     -33.972  49.262 -17.711  0.00  0.00    +0.000 C 
BRANCH  19  21
ATOM     21  C   UNL     1     -34.296  48.004 -19.867  0.00  0.00    +0.000 C 
ATOM     22  C   UNL     1     -34.730  48.053 -21.344  0.00  0.00    +0.000 C 
ENDBRANCH  19  21
ENDBRANCH  18  19
ENDBRANCH  16  18
ENDBRANCH   1  16
TORSDOF 9
ENDMDL
