MODEL 1
REMARK VINA RESULT:      -6.1      0.000      0.000
REMARK  Name = 122178712_SalternamideA.pdbqt.pdb
REMARK  8 active torsions:
REMARK  status: ('A' for Active; 'I' for Inactive)
REMARK    1  A    between atoms: C_3  and  O_24
REMARK    2  A    between atoms: C_3  and  C_26
REMARK    3  A    between atoms: C_6  and  N_10
REMARK    4  A    between atoms: C_11  and  C_14
REMARK    5  A    between atoms: C_13  and  C_15
REMARK    6  A    between atoms: C_27  and  C_28
REMARK    7  A    between atoms: C_29  and  C_31
REMARK    8  A    between atoms: C_31  and  O_32
REMARK                            x       y       z     vdW  Elec       q    Type
REMARK                         _______ _______ _______ _____ _____    ______ ____
ROOT
ATOM      1 CL   UNL     1     -35.848  41.037  -9.717  0.00  0.00    +0.000 Cl
ATOM      2  O   UNL     1     -37.597  43.563  -9.010  0.00  0.00    +0.000 OA
ATOM      3  C   UNL     1     -33.643  44.364 -10.522  0.00  0.00    +0.000 C 
ATOM      4  C   UNL     1     -34.742  45.267 -10.143  0.00  0.00    +0.000 C 
ATOM      5  C   UNL     1     -34.307  43.083 -10.228  0.00  0.00    +0.000 C 
ATOM      6  C   UNL     1     -35.955  45.190  -9.675  0.00  0.00    +0.000 C 
ATOM      7  C   UNL     1     -35.456  42.684  -9.766  0.00  0.00    +0.000 C 
ATOM      8  C   UNL     1     -36.465  43.765  -9.430  0.00  0.00    +0.000 C 
ENDROOT
BRANCH   6  10
ATOM      9  O   UNL     1     -35.512  47.466  -7.893  0.00  0.00    +0.000 OA
ATOM     10  N   UNL     1     -36.787  46.244  -9.401  0.00  0.00    +0.000 N 
ATOM     11  C   UNL     1     -36.527  47.292  -8.552  0.00  0.00    +0.000 C 
ATOM     12  H   UNL     1     -37.682  46.226  -9.885  0.00  0.00    +0.000 HD
BRANCH  11  14
ATOM     13  C   UNL     1     -38.477  49.071  -8.378  0.00  0.00    +0.000 C 
ATOM     14  C   UNL     1     -37.586  48.269  -8.457  0.00  0.00    +0.000 C 
BRANCH  13  15
ATOM     15  C   UNL     1     -39.531  50.012  -8.281  0.00  0.00    +0.000 C 
ATOM     16  C   UNL     1     -40.259  50.392  -9.540  0.00  0.00    +0.000 C 
ATOM     17  C   UNL     1     -39.920  50.664  -7.094  0.00  0.00    +0.000 C 
ATOM     18  C   UNL     1     -40.321  51.321  -5.913  0.00  0.00    +0.000 C 
ATOM     19  C   UNL     1     -39.908  50.711  -4.606  0.00  0.00    +0.000 C 
ATOM     20  C   UNL     1     -41.059  52.515  -5.876  0.00  0.00    +0.000 C 
ATOM     21  C   UNL     1     -41.730  53.616  -5.839  0.00  0.00    +0.000 C 
ATOM     22  C   UNL     1     -43.226  53.565  -5.856  0.00  0.00    +0.000 C 
ATOM     23  C   UNL     1     -41.029  54.908  -6.122  0.00  0.00    +0.000 C 
ENDBRANCH  13  15
ENDBRANCH  11  14
ENDBRANCH   6  10
BRANCH   3  24
ATOM     24  O   UNL     1     -32.563  44.542  -9.630  0.00  0.00    +0.000 OA
ATOM     25  H   UNL     1     -32.400  45.501  -9.597  0.00  0.00    +0.000 HD
ENDBRANCH   3  24
BRANCH   3  26
ATOM     26  C   UNL     1     -33.196  44.504 -11.902  0.00  0.00    +0.000 C 
ATOM     27  C   UNL     1     -32.721  44.656 -13.350  0.00  0.00    +0.000 C 
BRANCH  27  28
ATOM     28  C   UNL     1     -32.243  44.809 -14.797  0.00  0.00    +0.000 C 
ATOM     29  C   UNL     1     -31.766  44.960 -16.245  0.00  0.00    +0.000 C 
BRANCH  29  31
ATOM     30  O   UNL     1     -32.065  45.372 -18.525  0.00  0.00    +0.000 OA
ATOM     31  C   UNL     1     -31.322  45.102 -17.598  0.00  0.00    +0.000 C 
BRANCH  31  32
ATOM     32  O   UNL     1     -30.001  44.909 -17.763  0.00  0.00    +0.000 OA
ATOM     33  H   UNL     1     -29.886  43.950 -17.605  0.00  0.00    +0.000 HD
ENDBRANCH  31  32
ENDBRANCH  29  31
ENDBRANCH  27  28
ENDBRANCH   3  26
TORSDOF 8
ENDMDL
MODEL 2
REMARK VINA RESULT:      -6.0     22.376     25.737
REMARK  Name = 122178712_SalternamideA.pdbqt.pdb
REMARK  8 active torsions:
REMARK  status: ('A' for Active; 'I' for Inactive)
REMARK    1  A    between atoms: C_3  and  O_24
REMARK    2  A    between atoms: C_3  and  C_26
REMARK    3  A    between atoms: C_6  and  N_10
REMARK    4  A    between atoms: C_11  and  C_14
REMARK    5  A    between atoms: C_13  and  C_15
REMARK    6  A    between atoms: C_27  and  C_28
REMARK    7  A    between atoms: C_29  and  C_31
REMARK    8  A    between atoms: C_31  and  O_32
REMARK                            x       y       z     vdW  Elec       q    Type
REMARK                         _______ _______ _______ _____ _____    ______ ____
ROOT
ATOM      1 CL   UNL     1     -16.387  50.050   6.186  0.00  0.00    +0.000 Cl
ATOM      2  O   UNL     1     -15.916  47.309   4.701  0.00  0.00    +0.000 OA
ATOM      3  C   UNL     1     -16.810  50.692   2.188  0.00  0.00    +0.000 C 
ATOM      4  C   UNL     1     -16.485  49.294   1.860  0.00  0.00    +0.000 C 
ATOM      5  C   UNL     1     -16.735  50.591   3.655  0.00  0.00    +0.000 C 
ATOM      6  C   UNL     1     -16.209  48.182   2.479  0.00  0.00    +0.000 C 
ATOM      7  C   UNL     1     -16.501  49.667   4.540  0.00  0.00    +0.000 C 
ATOM      8  C   UNL     1     -16.184  48.283   4.009  0.00  0.00    +0.000 C 
ENDROOT
BRANCH   6  10
ATOM      9  O   UNL     1     -13.924  47.410   0.828  0.00  0.00    +0.000 OA
ATOM     10  N   UNL     1     -15.939  46.973   1.893  0.00  0.00    +0.000 N 
ATOM     11  C   UNL     1     -14.845  46.663   1.125  0.00  0.00    +0.000 C 
ATOM     12  H   UNL     1     -16.635  46.248   2.056  0.00  0.00    +0.000 HD
BRANCH  11  14
ATOM     13  C   UNL     1     -14.794  44.178   0.218  0.00  0.00    +0.000 C 
ATOM     14  C   UNL     1     -14.815  45.304   0.636  0.00  0.00    +0.000 C 
BRANCH  13  15
ATOM     15  C   UNL     1     -14.768  42.854  -0.282  0.00  0.00    +0.000 C 
ATOM     16  C   UNL     1     -13.772  41.894   0.306  0.00  0.00    +0.000 C 
ATOM     17  C   UNL     1     -15.575  42.375  -1.334  0.00  0.00    +0.000 C 
ATOM     18  C   UNL     1     -16.377  41.882  -2.382  0.00  0.00    +0.000 C 
ATOM     19  C   UNL     1     -17.617  42.654  -2.727  0.00  0.00    +0.000 C 
ATOM     20  C   UNL     1     -16.086  40.736  -3.140  0.00  0.00    +0.000 C 
ATOM     21  C   UNL     1     -15.817  39.688  -3.841  0.00  0.00    +0.000 C 
ATOM     22  C   UNL     1     -16.289  38.348  -3.372  0.00  0.00    +0.000 C 
ATOM     23  C   UNL     1     -14.768  39.773  -4.907  0.00  0.00    +0.000 C 
ENDBRANCH  13  15
ENDBRANCH  11  14
ENDBRANCH   6  10
BRANCH   3  24
ATOM     24  O   UNL     1     -18.143  50.964   1.808  0.00  0.00    +0.000 OA
ATOM     25  H   UNL     1     -18.694  50.709   2.568  0.00  0.00    +0.000 HD
ENDBRANCH   3  24
BRANCH   3  26
ATOM     26  C   UNL     1     -15.902  51.674   1.608  0.00  0.00    +0.000 C 
ATOM     27  C   UNL     1     -14.951  52.705   0.993  0.00  0.00    +0.000 C 
BRANCH  27  28
ATOM     28  C   UNL     1     -14.003  53.736   0.374  0.00  0.00    +0.000 C 
ATOM     29  C   UNL     1     -13.057  54.770  -0.244  0.00  0.00    +0.000 C 
BRANCH  29  31
ATOM     30  O   UNL     1     -12.132  55.983  -2.014  0.00  0.00    +0.000 OA
ATOM     31  C   UNL     1     -12.172  55.736  -0.821  0.00  0.00    +0.000 C 
BRANCH  31  32
ATOM     32  O   UNL     1     -11.380  56.354   0.073  0.00  0.00    +0.000 OA
ATOM     33  H   UNL     1     -11.955  57.053   0.446  0.00  0.00    +0.000 HD
ENDBRANCH  31  32
ENDBRANCH  29  31
ENDBRANCH  27  28
ENDBRANCH   3  26
TORSDOF 8
ENDMDL
MODEL 3
REMARK VINA RESULT:      -5.9     23.838     27.065
REMARK  Name = 122178712_SalternamideA.pdbqt.pdb
REMARK  8 active torsions:
REMARK  status: ('A' for Active; 'I' for Inactive)
REMARK    1  A    between atoms: C_3  and  O_24
REMARK    2  A    between atoms: C_3  and  C_26
REMARK    3  A    between atoms: C_6  and  N_10
REMARK    4  A    between atoms: C_11  and  C_14
REMARK    5  A    between atoms: C_13  and  C_15
REMARK    6  A    between atoms: C_27  and  C_28
REMARK    7  A    between atoms: C_29  and  C_31
REMARK    8  A    between atoms: C_31  and  O_32
REMARK                            x       y       z     vdW  Elec       q    Type
REMARK                         _______ _______ _______ _____ _____    ______ ____
ROOT
ATOM      1 CL   UNL     1     -13.407  59.681 -16.301  0.00  0.00    +0.000 Cl
ATOM      2  O   UNL     1     -13.649  58.151 -19.048  0.00  0.00    +0.000 OA
ATOM      3  C   UNL     1     -17.356  59.010 -17.028  0.00  0.00    +0.000 C 
ATOM      4  C   UNL     1     -17.080  58.374 -18.327  0.00  0.00    +0.000 C 
ATOM      5  C   UNL     1     -15.967  59.273 -16.618  0.00  0.00    +0.000 C 
ATOM      6  C   UNL     1     -16.052  58.041 -19.054  0.00  0.00    +0.000 C 
ATOM      7  C   UNL     1     -14.774  59.066 -17.092  0.00  0.00    +0.000 C 
ATOM      8  C   UNL     1     -14.689  58.396 -18.449  0.00  0.00    +0.000 C 
ENDROOT
BRANCH   6  10
ATOM      9  O   UNL     1     -16.852  59.147 -21.639  0.00  0.00    +0.000 OA
ATOM     10  N   UNL     1     -16.090  57.428 -20.279  0.00  0.00    +0.000 N 
ATOM     11  C   UNL     1     -16.475  57.997 -21.467  0.00  0.00    +0.000 C 
ATOM     12  H   UNL     1     -15.801  56.451 -20.283  0.00  0.00    +0.000 HD
BRANCH  11  14
ATOM     13  C   UNL     1     -16.373  56.386 -23.562  0.00  0.00    +0.000 C 
ATOM     14  C   UNL     1     -16.412  57.115 -22.608  0.00  0.00    +0.000 C 
BRANCH  13  15
ATOM     15  C   UNL     1     -16.329  55.532 -24.691  0.00  0.00    +0.000 C 
ATOM     16  C   UNL     1     -16.770  56.088 -26.016  0.00  0.00    +0.000 C 
ATOM     17  C   UNL     1     -15.950  54.176 -24.659  0.00  0.00    +0.000 C 
ATOM     18  C   UNL     1     -15.570  52.818 -24.642  0.00  0.00    +0.000 C 
ATOM     19  C   UNL     1     -14.773  52.336 -23.466  0.00  0.00    +0.000 C 
ATOM     20  C   UNL     1     -15.904  51.883 -25.635  0.00  0.00    +0.000 C 
ATOM     21  C   UNL     1     -16.216  51.022 -26.542  0.00  0.00    +0.000 C 
ATOM     22  C   UNL     1     -15.325  50.853 -27.734  0.00  0.00    +0.000 C 
ATOM     23  C   UNL     1     -17.604  50.460 -26.570  0.00  0.00    +0.000 C 
ENDBRANCH  13  15
ENDBRANCH  11  14
ENDBRANCH   6  10
BRANCH   3  24
ATOM     24  O   UNL     1     -17.928  58.059 -16.154  0.00  0.00    +0.000 OA
ATOM     25  H   UNL     1     -17.507  57.210 -16.372  0.00  0.00    +0.000 HD
ENDBRANCH   3  24
BRANCH   3  26
ATOM     26  C   UNL     1     -18.194  60.201 -17.106  0.00  0.00    +0.000 C 
ATOM     27  C   UNL     1     -19.072  61.452 -17.194  0.00  0.00    +0.000 C 
BRANCH  27  28
ATOM     28  C   UNL     1     -19.949  62.704 -17.286  0.00  0.00    +0.000 C 
ATOM     29  C   UNL     1     -20.825  63.957 -17.381  0.00  0.00    +0.000 C 
BRANCH  29  31
ATOM     30  O   UNL     1     -21.234  66.209 -17.854  0.00  0.00    +0.000 OA
ATOM     31  C   UNL     1     -21.644  65.127 -17.470  0.00  0.00    +0.000 C 
BRANCH  31  32
ATOM     32  O   UNL     1     -22.920  64.932 -17.091  0.00  0.00    +0.000 OA
ATOM     33  H   UNL     1     -22.942  63.987 -16.833  0.00  0.00    +0.000 HD
ENDBRANCH  31  32
ENDBRANCH  29  31
ENDBRANCH  27  28
ENDBRANCH   3  26
TORSDOF 8
ENDMDL
MODEL 4
REMARK VINA RESULT:      -5.9     20.219     23.090
REMARK  Name = 122178712_SalternamideA.pdbqt.pdb
REMARK  8 active torsions:
REMARK  status: ('A' for Active; 'I' for Inactive)
REMARK    1  A    between atoms: C_3  and  O_24
REMARK    2  A    between atoms: C_3  and  C_26
REMARK    3  A    between atoms: C_6  and  N_10
REMARK    4  A    between atoms: C_11  and  C_14
REMARK    5  A    between atoms: C_13  and  C_15
REMARK    6  A    between atoms: C_27  and  C_28
REMARK    7  A    between atoms: C_29  and  C_31
REMARK    8  A    between atoms: C_31  and  O_32
REMARK                            x       y       z     vdW  Elec       q    Type
REMARK                         _______ _______ _______ _____ _____    ______ ____
ROOT
ATOM      1 CL   UNL     1     -17.310  36.437  -4.011  0.00  0.00    +0.000 Cl
ATOM      2  O   UNL     1     -15.815  39.211  -3.891  0.00  0.00    +0.000 OA
ATOM      3  C   UNL     1     -20.023  39.288  -2.968  0.00  0.00    +0.000 C 
ATOM      4  C   UNL     1     -19.005  40.352  -2.964  0.00  0.00    +0.000 C 
ATOM      5  C   UNL     1     -19.162  38.169  -3.387  0.00  0.00    +0.000 C 
ATOM      6  C   UNL     1     -17.736  40.493  -3.219  0.00  0.00    +0.000 C 
ATOM      7  C   UNL     1     -17.914  37.990  -3.709  0.00  0.00    +0.000 C 
ATOM      8  C   UNL     1     -17.015  39.209  -3.644  0.00  0.00    +0.000 C 
ENDROOT
BRANCH   6  10
ATOM      9  O   UNL     1     -16.023  41.433  -1.044  0.00  0.00    +0.000 OA
ATOM     10  N   UNL     1     -17.016  41.656  -3.130  0.00  0.00    +0.000 N 
ATOM     11  C   UNL     1     -16.223  42.049  -2.081  0.00  0.00    +0.000 C 
ATOM     12  H   UNL     1     -17.094  42.275  -3.935  0.00  0.00    +0.000 HD
BRANCH  11  14
ATOM     13  C   UNL     1     -15.025  44.383  -2.415  0.00  0.00    +0.000 C 
ATOM     14  C   UNL     1     -15.574  43.327  -2.260  0.00  0.00    +0.000 C 
BRANCH  13  15
ATOM     15  C   UNL     1     -14.374  45.627  -2.606  0.00  0.00    +0.000 C 
ATOM     16  C   UNL     1     -14.153  46.502  -1.405  0.00  0.00    +0.000 C 
ATOM     17  C   UNL     1     -13.961  46.134  -3.854  0.00  0.00    +0.000 C 
ATOM     18  C   UNL     1     -13.539  46.653  -5.095  0.00  0.00    +0.000 C 
ATOM     19  C   UNL     1     -13.383  45.687  -6.232  0.00  0.00    +0.000 C 
ATOM     20  C   UNL     1     -13.278  48.010  -5.346  0.00  0.00    +0.000 C 
ATOM     21  C   UNL     1     -13.045  49.256  -5.580  0.00  0.00    +0.000 C 
ATOM     22  C   UNL     1     -11.677  49.809  -5.326  0.00  0.00    +0.000 C 
ATOM     23  C   UNL     1     -14.198  50.192  -5.770  0.00  0.00    +0.000 C 
ENDBRANCH  13  15
ENDBRANCH  11  14
ENDBRANCH   6  10
BRANCH   3  24
ATOM     24  O   UNL     1     -20.969  39.550  -3.983  0.00  0.00    +0.000 OA
ATOM     25  H   UNL     1     -20.771  38.925  -4.701  0.00  0.00    +0.000 HD
ENDBRANCH   3  24
BRANCH   3  26
ATOM     26  C   UNL     1     -20.689  39.085  -1.688  0.00  0.00    +0.000 C 
ATOM     27  C   UNL     1     -21.394  38.876  -0.344  0.00  0.00    +0.000 C 
BRANCH  27  28
ATOM     28  C   UNL     1     -22.102  38.669   0.997  0.00  0.00    +0.000 C 
ATOM     29  C   UNL     1     -22.807  38.462   2.341  0.00  0.00    +0.000 C 
BRANCH  29  31
ATOM     30  O   UNL     1     -24.640  37.958   3.700  0.00  0.00    +0.000 OA
ATOM     31  C   UNL     1     -23.467  38.271   3.597  0.00  0.00    +0.000 C 
BRANCH  31  32
ATOM     32  O   UNL     1     -22.675  38.467   4.666  0.00  0.00    +0.000 OA
ATOM     33  H   UNL     1     -21.819  38.734   4.274  0.00  0.00    +0.000 HD
ENDBRANCH  31  32
ENDBRANCH  29  31
ENDBRANCH  27  28
ENDBRANCH   3  26
TORSDOF 8
ENDMDL
MODEL 5
REMARK VINA RESULT:      -5.6     20.305     23.105
REMARK  Name = 122178712_SalternamideA.pdbqt.pdb
REMARK  8 active torsions:
REMARK  status: ('A' for Active; 'I' for Inactive)
REMARK    1  A    between atoms: C_3  and  O_24
REMARK    2  A    between atoms: C_3  and  C_26
REMARK    3  A    between atoms: C_6  and  N_10
REMARK    4  A    between atoms: C_11  and  C_14
REMARK    5  A    between atoms: C_13  and  C_15
REMARK    6  A    between atoms: C_27  and  C_28
REMARK    7  A    between atoms: C_29  and  C_31
REMARK    8  A    between atoms: C_31  and  O_32
REMARK                            x       y       z     vdW  Elec       q    Type
REMARK                         _______ _______ _______ _____ _____    ______ ____
ROOT
ATOM      1 CL   UNL     1     -18.590  36.269  -5.758  0.00  0.00    +0.000 Cl
ATOM      2  O   UNL     1     -17.122  39.006  -5.215  0.00  0.00    +0.000 OA
ATOM      3  C   UNL     1     -20.651  38.253  -2.862  0.00  0.00    +0.000 C 
ATOM      4  C   UNL     1     -19.694  39.371  -2.851  0.00  0.00    +0.000 C 
ATOM      5  C   UNL     1     -20.034  37.453  -3.932  0.00  0.00    +0.000 C 
ATOM      6  C   UNL     1     -18.618  39.744  -3.482  0.00  0.00    +0.000 C 
ATOM      7  C   UNL     1     -19.008  37.546  -4.728  0.00  0.00    +0.000 C 
ATOM      8  C   UNL     1     -18.134  38.774  -4.567  0.00  0.00    +0.000 C 
ENDROOT
BRANCH   6  10
ATOM      9  O   UNL     1     -16.564  40.260  -1.467  0.00  0.00    +0.000 OA
ATOM     10  N   UNL     1     -17.901  40.890  -3.256  0.00  0.00    +0.000 N 
ATOM     11  C   UNL     1     -16.943  41.079  -2.292  0.00  0.00    +0.000 C 
ATOM     12  H   UNL     1     -18.120  41.668  -3.877  0.00  0.00    +0.000 HD
BRANCH  11  14
ATOM     13  C   UNL     1     -15.855  43.490  -2.286  0.00  0.00    +0.000 C 
ATOM     14  C   UNL     1     -16.344  42.393  -2.284  0.00  0.00    +0.000 C 
BRANCH  13  15
ATOM     15  C   UNL     1     -15.286  44.787  -2.288  0.00  0.00    +0.000 C 
ATOM     16  C   UNL     1     -15.582  45.692  -1.126  0.00  0.00    +0.000 C 
ATOM     17  C   UNL     1     -14.500  45.318  -3.330  0.00  0.00    +0.000 C 
ATOM     18  C   UNL     1     -13.708  45.861  -4.362  0.00  0.00    +0.000 C 
ATOM     19  C   UNL     1     -13.077  44.902  -5.328  0.00  0.00    +0.000 C 
ATOM     20  C   UNL     1     -13.490  47.234  -4.564  0.00  0.00    +0.000 C 
ATOM     21  C   UNL     1     -13.295  48.494  -4.754  0.00  0.00    +0.000 C 
ATOM     22  C   UNL     1     -12.159  49.175  -4.057  0.00  0.00    +0.000 C 
ATOM     23  C   UNL     1     -14.379  49.314  -5.380  0.00  0.00    +0.000 C 
ENDBRANCH  13  15
ENDBRANCH  11  14
ENDBRANCH   6  10
BRANCH   3  24
ATOM     24  O   UNL     1     -21.911  38.720  -3.299  0.00  0.00    +0.000 OA
ATOM     25  H   UNL     1     -21.778  39.650  -3.551  0.00  0.00    +0.000 HD
ENDBRANCH   3  24
BRANCH   3  26
ATOM     26  C   UNL     1     -20.778  37.555  -1.589  0.00  0.00    +0.000 C 
ATOM     27  C   UNL     1     -20.909  36.827  -0.248  0.00  0.00    +0.000 C 
BRANCH  27  28
ATOM     28  C   UNL     1     -21.040  36.103   1.095  0.00  0.00    +0.000 C 
ATOM     29  C   UNL     1     -21.167  35.379   2.439  0.00  0.00    +0.000 C 
BRANCH  29  31
ATOM     30  O   UNL     1     -20.476  34.815   4.598  0.00  0.00    +0.000 OA
ATOM     31  C   UNL     1     -21.286  34.703   3.695  0.00  0.00    +0.000 C 
BRANCH  31  32
ATOM     32  O   UNL     1     -22.379  33.926   3.796  0.00  0.00    +0.000 OA
ATOM     33  H   UNL     1     -22.123  33.105   3.328  0.00  0.00    +0.000 HD
ENDBRANCH  31  32
ENDBRANCH  29  31
ENDBRANCH  27  28
ENDBRANCH   3  26
TORSDOF 8
ENDMDL
MODEL 6
REMARK VINA RESULT:      -5.6     23.928     27.143
REMARK  Name = 122178712_SalternamideA.pdbqt.pdb
REMARK  8 active torsions:
REMARK  status: ('A' for Active; 'I' for Inactive)
REMARK    1  A    between atoms: C_3  and  O_24
REMARK    2  A    between atoms: C_3  and  C_26
REMARK    3  A    between atoms: C_6  and  N_10
REMARK    4  A    between atoms: C_11  and  C_14
REMARK    5  A    between atoms: C_13  and  C_15
REMARK    6  A    between atoms: C_27  and  C_28
REMARK    7  A    between atoms: C_29  and  C_31
REMARK    8  A    between atoms: C_31  and  O_32
REMARK                            x       y       z     vdW  Elec       q    Type
REMARK                         _______ _______ _______ _____ _____    ______ ____
ROOT
ATOM      1 CL   UNL     1     -13.874  60.109 -15.534  0.00  0.00    +0.000 Cl
ATOM      2  O   UNL     1     -13.849  58.163 -18.015  0.00  0.00    +0.000 OA
ATOM      3  C   UNL     1     -17.733  59.380 -16.604  0.00  0.00    +0.000 C 
ATOM      4  C   UNL     1     -17.331  58.542 -17.745  0.00  0.00    +0.000 C 
ATOM      5  C   UNL     1     -16.392  59.688 -16.080  0.00  0.00    +0.000 C 
ATOM      6  C   UNL     1     -16.238  58.084 -18.285  0.00  0.00    +0.000 C 
ATOM      7  C   UNL     1     -15.159  59.393 -16.373  0.00  0.00    +0.000 C 
ATOM      8  C   UNL     1     -14.942  58.514 -17.588  0.00  0.00    +0.000 C 
ENDROOT
BRANCH   6  10
ATOM      9  O   UNL     1     -16.668  58.782 -21.091  0.00  0.00    +0.000 OA
ATOM     10  N   UNL     1     -16.155  57.283 -19.395  0.00  0.00    +0.000 N 
ATOM     11  C   UNL     1     -16.368  57.665 -20.696  0.00  0.00    +0.000 C 
ATOM     12  H   UNL     1     -15.913  56.312 -19.211  0.00  0.00    +0.000 HD
BRANCH  11  14
ATOM     13  C   UNL     1     -16.089  55.731 -22.479  0.00  0.00    +0.000 C 
ATOM     14  C   UNL     1     -16.208  56.610 -21.669  0.00  0.00    +0.000 C 
BRANCH  13  15
ATOM     15  C   UNL     1     -15.956  54.698 -23.439  0.00  0.00    +0.000 C 
ATOM     16  C   UNL     1     -15.376  53.386 -22.990  0.00  0.00    +0.000 C 
ATOM     17  C   UNL     1     -16.279  54.822 -24.804  0.00  0.00    +0.000 C 
ATOM     18  C   UNL     1     -16.600  54.931 -26.172  0.00  0.00    +0.000 C 
ATOM     19  C   UNL     1     -17.517  56.047 -26.581  0.00  0.00    +0.000 C 
ATOM     20  C   UNL     1     -16.105  54.086 -27.179  0.00  0.00    +0.000 C 
ATOM     21  C   UNL     1     -15.646  53.316 -28.105  0.00  0.00    +0.000 C 
ATOM     22  C   UNL     1     -16.374  52.050 -28.436  0.00  0.00    +0.000 C 
ATOM     23  C   UNL     1     -14.244  53.513 -28.591  0.00  0.00    +0.000 C 
ENDBRANCH  13  15
ENDBRANCH  11  14
ENDBRANCH   6  10
BRANCH   3  24
ATOM     24  O   UNL     1     -18.429  58.588 -15.664  0.00  0.00    +0.000 OA
ATOM     25  H   UNL     1     -18.053  58.812 -14.796  0.00  0.00    +0.000 HD
ENDBRANCH   3  24
BRANCH   3  26
ATOM     26  C   UNL     1     -18.519  60.554 -16.966  0.00  0.00    +0.000 C 
ATOM     27  C   UNL     1     -19.340  61.788 -17.350  0.00  0.00    +0.000 C 
BRANCH  27  28
ATOM     28  C   UNL     1     -20.158  63.024 -17.736  0.00  0.00    +0.000 C 
ATOM     29  C   UNL     1     -20.973  64.261 -18.122  0.00  0.00    +0.000 C 
BRANCH  29  31
ATOM     30  O   UNL     1     -22.951  65.423 -18.570  0.00  0.00    +0.000 OA
ATOM     31  C   UNL     1     -21.735  65.418 -18.485  0.00  0.00    +0.000 C 
BRANCH  31  32
ATOM     32  O   UNL     1     -20.989  66.510 -18.726  0.00  0.00    +0.000 OA
ATOM     33  H   UNL     1     -20.094  66.250 -18.425  0.00  0.00    +0.000 HD
ENDBRANCH  31  32
ENDBRANCH  29  31
ENDBRANCH  27  28
ENDBRANCH   3  26
TORSDOF 8
ENDMDL
MODEL 7
REMARK VINA RESULT:      -5.6     10.760     15.837
REMARK  Name = 122178712_SalternamideA.pdbqt.pdb
REMARK  8 active torsions:
REMARK  status: ('A' for Active; 'I' for Inactive)
REMARK    1  A    between atoms: C_3  and  O_24
REMARK    2  A    between atoms: C_3  and  C_26
REMARK    3  A    between atoms: C_6  and  N_10
REMARK    4  A    between atoms: C_11  and  C_14
REMARK    5  A    between atoms: C_13  and  C_15
REMARK    6  A    between atoms: C_27  and  C_28
REMARK    7  A    between atoms: C_29  and  C_31
REMARK    8  A    between atoms: C_31  and  O_32
REMARK                            x       y       z     vdW  Elec       q    Type
REMARK                         _______ _______ _______ _____ _____    ______ ____
ROOT
ATOM      1 CL   UNL     1     -40.691  50.926 -24.876  0.00  0.00    +0.000 Cl
ATOM      2  O   UNL     1     -38.799  49.246 -22.995  0.00  0.00    +0.000 OA
ATOM      3  C   UNL     1     -37.818  53.419 -23.424  0.00  0.00    +0.000 C 
ATOM      4  C   UNL     1     -37.211  52.355 -22.608  0.00  0.00    +0.000 C 
ATOM      5  C   UNL     1     -38.879  52.621 -24.061  0.00  0.00    +0.000 C 
ATOM      6  C   UNL     1     -37.374  51.083 -22.379  0.00  0.00    +0.000 C 
ATOM      7  C   UNL     1     -39.285  51.385 -24.050  0.00  0.00    +0.000 C 
ATOM      8  C   UNL     1     -38.533  50.432 -23.143  0.00  0.00    +0.000 C 
ENDROOT
BRANCH   6  10
ATOM      9  O   UNL     1     -36.924  51.405 -19.509  0.00  0.00    +0.000 OA
ATOM     10  N   UNL     1     -36.625  50.309 -21.532  0.00  0.00    +0.000 N 
ATOM     11  C   UNL     1     -36.448  50.506 -20.185  0.00  0.00    +0.000 C 
ATOM     12  H   UNL     1     -36.161  49.514 -21.969  0.00  0.00    +0.000 HD
BRANCH  11  14
ATOM     13  C   UNL     1     -34.917  48.709 -18.991  0.00  0.00    +0.000 C 
ATOM     14  C   UNL     1     -35.606  49.528 -19.537  0.00  0.00    +0.000 C 
BRANCH  13  15
ATOM     15  C   UNL     1     -34.110  47.738 -18.348  0.00  0.00    +0.000 C 
ATOM     16  C   UNL     1     -33.711  47.983 -16.920  0.00  0.00    +0.000 C 
ATOM     17  C   UNL     1     -33.607  46.576 -18.964  0.00  0.00    +0.000 C 
ATOM     18  C   UNL     1     -33.098  45.407 -19.567  0.00  0.00    +0.000 C 
ATOM     19  C   UNL     1     -33.765  44.930 -20.824  0.00  0.00    +0.000 C 
ATOM     20  C   UNL     1     -32.000  44.674 -19.088  0.00  0.00    +0.000 C 
ATOM     21  C   UNL     1     -30.988  44.004 -18.653  0.00  0.00    +0.000 C 
ATOM     22  C   UNL     1     -31.203  42.921 -17.642  0.00  0.00    +0.000 C 
ATOM     23  C   UNL     1     -29.607  44.529 -18.894  0.00  0.00    +0.000 C 
ENDBRANCH  13  15
ENDBRANCH  11  14
ENDBRANCH   6  10
BRANCH   3  24
ATOM     24  O   UNL     1     -36.896  53.835 -24.410  0.00  0.00    +0.000 OA
ATOM     25  H   UNL     1     -36.073  53.349 -24.228  0.00  0.00    +0.000 HD
ENDBRANCH   3  24
BRANCH   3  26
ATOM     26  C   UNL     1     -38.302  54.562 -22.661  0.00  0.00    +0.000 C 
ATOM     27  C   UNL     1     -38.814  55.760 -21.856  0.00  0.00    +0.000 C 
BRANCH  27  28
ATOM     28  C   UNL     1     -39.329  56.955 -21.049  0.00  0.00    +0.000 C 
ATOM     29  C   UNL     1     -39.841  58.150 -20.239  0.00  0.00    +0.000 C 
BRANCH  29  31
ATOM     30  O   UNL     1     -40.345  60.408 -19.910  0.00  0.00    +0.000 OA
ATOM     31  C   UNL     1     -40.319  59.267 -19.482  0.00  0.00    +0.000 C 
BRANCH  31  32
ATOM     32  O   UNL     1     -40.743  58.949 -18.246  0.00  0.00    +0.000 OA
ATOM     33  H   UNL     1     -40.034  58.367 -17.902  0.00  0.00    +0.000 HD
ENDBRANCH  31  32
ENDBRANCH  29  31
ENDBRANCH  27  28
ENDBRANCH   3  26
TORSDOF 8
ENDMDL
MODEL 8
REMARK VINA RESULT:      -5.5     19.989     23.052
REMARK  Name = 122178712_SalternamideA.pdbqt.pdb
REMARK  8 active torsions:
REMARK  status: ('A' for Active; 'I' for Inactive)
REMARK    1  A    between atoms: C_3  and  O_24
REMARK    2  A    between atoms: C_3  and  C_26
REMARK    3  A    between atoms: C_6  and  N_10
REMARK    4  A    between atoms: C_11  and  C_14
REMARK    5  A    between atoms: C_13  and  C_15
REMARK    6  A    between atoms: C_27  and  C_28
REMARK    7  A    between atoms: C_29  and  C_31
REMARK    8  A    between atoms: C_31  and  O_32
REMARK                            x       y       z     vdW  Elec       q    Type
REMARK                         _______ _______ _______ _____ _____    ______ ____
ROOT
ATOM      1 CL   UNL     1     -11.174  45.292 -16.737  0.00  0.00    +0.000 Cl
ATOM      2  O   UNL     1     -11.062  45.178 -13.588  0.00  0.00    +0.000 OA
ATOM      3  C   UNL     1     -14.902  46.096 -15.313  0.00  0.00    +0.000 C 
ATOM      4  C   UNL     1     -14.482  45.907 -13.914  0.00  0.00    +0.000 C 
ATOM      5  C   UNL     1     -13.598  45.871 -15.959  0.00  0.00    +0.000 C 
ATOM      6  C   UNL     1     -13.396  45.645 -13.245  0.00  0.00    +0.000 C 
ATOM      7  C   UNL     1     -12.379  45.609 -15.590  0.00  0.00    +0.000 C 
ATOM      8  C   UNL     1     -12.140  45.449 -14.102  0.00  0.00    +0.000 C 
ENDROOT
BRANCH   6  10
ATOM      9  O   UNL     1     -12.226  47.509 -11.320  0.00  0.00    +0.000 OA
ATOM     10  N   UNL     1     -13.291  45.525 -11.884  0.00  0.00    +0.000 N 
ATOM     11  C   UNL     1     -12.731  46.436 -11.023  0.00  0.00    +0.000 C 
ATOM     12  H   UNL     1     -13.673  44.665 -11.494  0.00  0.00    +0.000 HD
BRANCH  11  14
ATOM     13  C   UNL     1     -12.773  45.737  -8.472  0.00  0.00    +0.000 C 
ATOM     14  C   UNL     1     -12.760  46.050  -9.632  0.00  0.00    +0.000 C 
BRANCH  13  15
ATOM     15  C   UNL     1     -12.786  45.374  -7.103  0.00  0.00    +0.000 C 
ATOM     16  C   UNL     1     -12.144  44.073  -6.710  0.00  0.00    +0.000 C 
ATOM     17  C   UNL     1     -13.403  46.120  -6.080  0.00  0.00    +0.000 C 
ATOM     18  C   UNL     1     -14.014  46.857  -5.046  0.00  0.00    +0.000 C 
ATOM     19  C   UNL     1     -14.315  48.303  -5.310  0.00  0.00    +0.000 C 
ATOM     20  C   UNL     1     -14.382  46.328  -3.797  0.00  0.00    +0.000 C 
ATOM     21  C   UNL     1     -14.726  45.843  -2.654  0.00  0.00    +0.000 C 
ATOM     22  C   UNL     1     -13.735  45.832  -1.531  0.00  0.00    +0.000 C 
ATOM     23  C   UNL     1     -15.962  45.003  -2.559  0.00  0.00    +0.000 C 
ENDBRANCH  13  15
ENDBRANCH  11  14
ENDBRANCH   6  10
BRANCH   3  24
ATOM     24  O   UNL     1     -15.292  47.439 -15.507  0.00  0.00    +0.000 OA
ATOM     25  H   UNL     1     -14.669  47.976 -14.987  0.00  0.00    +0.000 HD
ENDBRANCH   3  24
BRANCH   3  26
ATOM     26  C   UNL     1     -15.954  45.189 -15.754  0.00  0.00    +0.000 C 
ATOM     27  C   UNL     1     -17.063  44.241 -16.218  0.00  0.00    +0.000 C 
BRANCH  27  28
ATOM     28  C   UNL     1     -18.175  43.296 -16.682  0.00  0.00    +0.000 C 
ATOM     29  C   UNL     1     -19.289  42.352 -17.145  0.00  0.00    +0.000 C 
BRANCH  29  31
ATOM     30  O   UNL     1     -20.403  41.018 -18.707  0.00  0.00    +0.000 OA
ATOM     31  C   UNL     1     -20.330  41.470 -17.578  0.00  0.00    +0.000 C 
BRANCH  31  32
ATOM     32  O   UNL     1     -21.233  41.180 -16.624  0.00  0.00    +0.000 OA
ATOM     33  H   UNL     1     -21.740  42.012 -16.525  0.00  0.00    +0.000 HD
ENDBRANCH  31  32
ENDBRANCH  29  31
ENDBRANCH  27  28
ENDBRANCH   3  26
TORSDOF 8
ENDMDL
MODEL 9
REMARK VINA RESULT:      -5.4      9.007     13.526
REMARK  Name = 122178712_SalternamideA.pdbqt.pdb
REMARK  8 active torsions:
REMARK  status: ('A' for Active; 'I' for Inactive)
REMARK    1  A    between atoms: C_3  and  O_24
REMARK    2  A    between atoms: C_3  and  C_26
REMARK    3  A    between atoms: C_6  and  N_10
REMARK    4  A    between atoms: C_11  and  C_14
REMARK    5  A    between atoms: C_13  and  C_15
REMARK    6  A    between atoms: C_27  and  C_28
REMARK    7  A    between atoms: C_29  and  C_31
REMARK    8  A    between atoms: C_31  and  O_32
REMARK                            x       y       z     vdW  Elec       q    Type
REMARK                         _______ _______ _______ _____ _____    ______ ____
ROOT
ATOM      1 CL   UNL     1     -40.266  48.542 -23.771  0.00  0.00    +0.000 Cl
ATOM      2  O   UNL     1     -38.485  47.266 -21.503  0.00  0.00    +0.000 OA
ATOM      3  C   UNL     1     -37.093  51.008 -23.121  0.00  0.00    +0.000 C 
ATOM      4  C   UNL     1     -36.568  50.159 -22.038  0.00  0.00    +0.000 C 
ATOM      5  C   UNL     1     -38.256  50.186 -23.492  0.00  0.00    +0.000 C 
ATOM      6  C   UNL     1     -36.853  49.032 -21.453  0.00  0.00    +0.000 C 
ATOM      7  C   UNL     1     -38.788  49.057 -23.124  0.00  0.00    +0.000 C 
ATOM      8  C   UNL     1     -38.103  48.323 -21.987  0.00  0.00    +0.000 C 
ENDROOT
BRANCH   6  10
ATOM      9  O   UNL     1     -33.968  48.652 -21.175  0.00  0.00    +0.000 OA
ATOM     10  N   UNL     1     -36.155  48.452 -20.426  0.00  0.00    +0.000 N 
ATOM     11  C   UNL     1     -34.793  48.300 -20.346  0.00  0.00    +0.000 C 
ATOM     12  H   UNL     1     -36.726  48.105 -19.657  0.00  0.00    +0.000 HD
BRANCH  11  14
ATOM     13  C   UNL     1     -33.932  47.108 -18.147  0.00  0.00    +0.000 C 
ATOM     14  C   UNL     1     -34.328  47.654 -19.141  0.00  0.00    +0.000 C 
BRANCH  13  15
ATOM     15  C   UNL     1     -33.459  46.463 -16.978  0.00  0.00    +0.000 C 
ATOM     16  C   UNL     1     -32.260  45.565 -17.100  0.00  0.00    +0.000 C 
ATOM     17  C   UNL     1     -34.061  46.559 -15.708  0.00  0.00    +0.000 C 
ATOM     18  C   UNL     1     -34.651  46.648 -14.430  0.00  0.00    +0.000 C 
ATOM     19  C   UNL     1     -35.580  47.798 -14.175  0.00  0.00    +0.000 C 
ATOM     20  C   UNL     1     -34.449  45.724 -13.391  0.00  0.00    +0.000 C 
ATOM     21  C   UNL     1     -34.270  44.874 -12.439  0.00  0.00    +0.000 C 
ATOM     22  C   UNL     1     -33.124  45.059 -11.493  0.00  0.00    +0.000 C 
ATOM     23  C   UNL     1     -34.981  43.558 -12.493  0.00  0.00    +0.000 C 
ENDBRANCH  13  15
ENDBRANCH  11  14
ENDBRANCH   6  10
BRANCH   3  24
ATOM     24  O   UNL     1     -36.172  51.021 -24.192  0.00  0.00    +0.000 OA
ATOM     25  H   UNL     1     -36.014  50.089 -24.420  0.00  0.00    +0.000 HD
ENDBRANCH   3  24
BRANCH   3  26
ATOM     26  C   UNL     1     -37.424  52.368 -22.714  0.00  0.00    +0.000 C 
ATOM     27  C   UNL     1     -37.771  53.795 -22.282  0.00  0.00    +0.000 C 
BRANCH  27  28
ATOM     28  C   UNL     1     -38.116  55.221 -21.845  0.00  0.00    +0.000 C 
ATOM     29  C   UNL     1     -38.459  56.648 -21.406  0.00  0.00    +0.000 C 
BRANCH  29  31
ATOM     30  O   UNL     1     -39.019  58.886 -21.777  0.00  0.00    +0.000 OA
ATOM     31  C   UNL     1     -38.779  57.982 -20.996  0.00  0.00    +0.000 C 
BRANCH  31  32
ATOM     32  O   UNL     1     -38.792  58.156 -19.663  0.00  0.00    +0.000 OA
ATOM     33  H   UNL     1     -38.581  59.106 -19.552  0.00  0.00    +0.000 HD
ENDBRANCH  31  32
ENDBRANCH  29  31
ENDBRANCH  27  28
ENDBRANCH   3  26
TORSDOF 8
ENDMDL
