REMARK  Name = 135403648_CalciumFolinate.pdbqt.pdb
REMARK  10 active torsions:
REMARK  status: ('A' for Active; 'I' for Inactive)
REMARK    1  A    between atoms: N_1  and  C_3
REMARK    2  A    between atoms: N_1  and  C_24
REMARK    3  A    between atoms: C_6  and  C_11
REMARK    4  A    between atoms: CA_13  and  C_15
REMARK    5  A    between atoms: CA_13  and  CB_18
REMARK    6  A    between atoms: C_15  and  O_16
REMARK    7  A    between atoms: CG_19  and  CD_21
REMARK    8  A    between atoms: CD_21  and  OE1_22
REMARK    9  A    between atoms: C_24  and  C_32
REMARK   10  A    between atoms: N_27  and  C_37
REMARK                            x       y       z     vdW  Elec       q    Type
REMARK                         _______ _______ _______ _____ _____    ______ ____
ROOT
ATOM      1  N   UNL     1      -1.359   0.549  -2.377  0.00  0.00    +0.000 N 
ATOM      2  H   UNL     1      -1.462   1.394  -2.938  0.00  0.00    +0.000 HD
ENDROOT
BRANCH   1   3
ATOM      3  C   UNL     1      -0.069   0.436  -1.817  0.00  0.00    +0.000 A 
ATOM      4  C   UNL     1       1.014   1.025  -2.477  0.00  0.00    +0.000 A 
ATOM      5  C   UNL     1       0.198  -0.394  -0.722  0.00  0.00    +0.000 A 
ATOM      6  C   UNL     1       2.564   0.059  -0.897  0.00  0.00    +0.000 A 
ATOM      7  C   UNL     1       2.318   0.853  -2.014  0.00  0.00    +0.000 A 
ATOM      8  C   UNL     1       1.498  -0.570  -0.253  0.00  0.00    +0.000 A 
BRANCH   6  11
ATOM      9  O   UNL     1       4.081  -0.877   0.611  0.00  0.00    +0.000 OA
ATOM     10  N   UNL     1       4.952   0.509  -1.028  0.00  0.00    +0.000 N 
ATOM     11  C   ACE A   0       3.934  -0.150  -0.365  0.00  0.00    +0.000 C 
ATOM     12  H   UNL     1       4.729   1.096  -1.828  0.00  0.00    +0.000 HD
ATOM     13  CA  UNL     1       6.302   0.477  -0.726  0.00  0.00    +0.000 C 
BRANCH  13  15
ATOM     14  OXT UNL     1       6.771   1.955  -2.545  0.00  0.00    +0.000 OA
ATOM     15  C   UNL     1       7.179   1.287  -1.606  0.00  0.00    +0.000 C 
BRANCH  15  16
ATOM     16  O   UNL     1       8.481   1.232  -1.287  0.00  0.00    +0.000 OA
ATOM     17  H   UNL     1       8.925   1.810  -1.942  0.00  0.00    +0.000 HD
ENDBRANCH  15  16
ENDBRANCH  13  15
BRANCH  13  18
ATOM     18  CB  UNL     1       6.819  -0.283   0.356  0.00  0.00    +0.000 C 
ATOM     19  CG  UNL     1       7.366  -1.106   1.528  0.00  0.00    +0.000 C 
BRANCH  19  21
ATOM     20  OE2 UNL     1       8.152  -1.402   3.709  0.00  0.00    +0.000 OA
ATOM     21  CD  UNL     1       7.859  -1.879   2.627  0.00  0.00    +0.000 C 
BRANCH  21  22
ATOM     22  OE1 UNL     1       7.995  -3.190   2.358  0.00  0.00    +0.000 OA
ATOM     23  HE1 UNL     1       8.323  -3.561   3.202  0.00  0.00    +0.000 HD
ENDBRANCH  21  22
ENDBRANCH  19  21
ENDBRANCH  13  18
ENDBRANCH   6  11
ENDBRANCH   1   3
BRANCH   1  24
ATOM     24  C   UNL     1      -2.510   0.182  -1.561  0.00  0.00    +0.000 C 
BRANCH  24  31
ATOM     25  O   UNL     1      -6.801   2.564   0.334  0.00  0.00    +0.000 OA
ATOM     26  N   UNL     1      -4.669   0.785  -0.526  0.00  0.00    +0.000 N 
ATOM     27  N   UNL     1      -4.986  -1.891   0.591  0.00  0.00    +0.000 N 
ATOM     28  N   UNL     1      -6.898  -1.171   1.768  0.00  0.00    +0.000 NA
ATOM     29  N   UNL     1      -7.806   0.939   1.495  0.00  0.00    +0.000 N 
ATOM     30  N   UNL     1      -8.821  -0.592   2.883  0.00  0.00    +0.000 N 
ATOM     31  C   UNL     1      -3.646  -0.126  -0.766  0.00  0.00    +0.000 C 
ATOM     32  C   UNL     1      -3.886  -1.368  -0.157  0.00  0.00    +0.000 C 
ATOM     33  C   UNL     1      -5.743   0.397   0.322  0.00  0.00    +0.000 A 
ATOM     34  C   UNL     1      -5.890  -0.853   0.883  0.00  0.00    +0.000 A 
ATOM     35  C   UNL     1      -6.803   1.391   0.694  0.00  0.00    +0.000 A 
ATOM     36  C   UNL     1      -7.807  -0.298   2.036  0.00  0.00    +0.000 A 
ATOM     37  H   UNL     1      -4.864  -2.498   1.396  0.00  0.00    +0.000 HD
ATOM     38  H   UNL     1      -8.488   1.624   1.779  0.00  0.00    +0.000 HD
ATOM     39  H   UNL     1      -8.877  -1.587   3.083  0.00  0.00    +0.000 HD
ATOM     40  H   UNL     1      -9.724  -0.187   2.674  0.00  0.00    +0.000 HD
BRANCH  26  42
ATOM     41  O   UNL     1      -4.451   3.064  -1.592  0.00  0.00    +0.000 OA
ATOM     42  C   UNL     1      -4.583   2.016  -1.076  0.00  0.00    +0.000 C 
ENDBRANCH  26  42
ENDBRANCH  24  31
ENDBRANCH   1  24
TORSDOF 10
