MODEL 1
REMARK VINA RESULT:      -7.0      0.000      0.000
REMARK  Name = 135423438_Nintedanib.pdbqt.pdb
REMARK  9 active torsions:
REMARK  status: ('A' for Active; 'I' for Inactive)
REMARK    1  A    between atoms: N_1  and  C_22
REMARK    2  A    between atoms: C_2  and  C_4
REMARK    3  A    between atoms: C_2  and  C_37
REMARK    4  A    between atoms: C_7  and  O_13
REMARK    5  A    between atoms: C_10  and  C_16
REMARK    6  A    between atoms: C_16  and  O_17
REMARK    7  A    between atoms: C_19  and  N_26
REMARK    8  A    between atoms: C_27  and  C_29
REMARK    9  A    between atoms: C_29  and  N_30
REMARK                            x       y       z     vdW  Elec       q    Type
REMARK                         _______ _______ _______ _____ _____    ______ ____
ROOT
ATOM      1  N   UNL     1     -34.513  46.647 -13.450  0.00  0.00    +0.000 NA
ATOM      2  C   UNL     1     -35.182  45.987 -12.549  0.00  0.00    +0.000 C 
ENDROOT
BRANCH   2   4
ATOM      3  N   UNL     1     -32.940  44.043 -10.400  0.00  0.00    +0.000 N 
ATOM      4  C   UNL     1     -34.398  45.348 -11.484  0.00  0.00    +0.000 A 
ATOM      5  C   UNL     1     -34.503  45.592 -10.069  0.00  0.00    +0.000 A 
ATOM      6  C   UNL     1     -33.582  44.767  -9.426  0.00  0.00    +0.000 A 
ATOM      7  C   UNL     1     -33.420  44.375 -11.642  0.00  0.00    +0.000 A 
ATOM      8  C   UNL     1     -35.296  46.447  -9.277  0.00  0.00    +0.000 A 
ATOM      9  C   UNL     1     -33.415  44.747  -8.037  0.00  0.00    +0.000 A 
ATOM     10  C   UNL     1     -34.220  45.606  -7.278  0.00  0.00    +0.000 A 
ATOM     11  C   UNL     1     -35.146  46.444  -7.889  0.00  0.00    +0.000 A 
ATOM     12  H   UNL     1     -32.221  43.361 -10.214  0.00  0.00    +0.000 HD
BRANCH   7  13
ATOM     13  O   UNL     1     -32.957  43.788 -12.740  0.00  0.00    +0.000 OA
ATOM     14  H   UNL     1     -32.837  42.833 -12.597  0.00  0.00    +0.000 HD
ENDBRANCH   7  13
BRANCH  10  16
ATOM     15  O   UNL     1     -35.012  46.075  -5.091  0.00  0.00    +0.000 OA
ATOM     16  C   UNL     1     -34.113  45.654  -5.804  0.00  0.00    +0.000 C 
BRANCH  16  17
ATOM     17  O   UNL     1     -32.893  45.166  -5.439  0.00  0.00    +0.000 OA
ATOM     18  C   UNL     1     -32.847  44.172  -4.448  0.00  0.00    +0.000 C 
ENDBRANCH  16  17
ENDBRANCH  10  16
ENDBRANCH   2   4
BRANCH   1  22
ATOM     19  C   UNL     1     -36.398  48.571 -16.713  0.00  0.00    +0.000 A 
ATOM     20  C   UNL     1     -36.291  49.186 -15.463  0.00  0.00    +0.000 A 
ATOM     21  C   UNL     1     -35.855  47.286 -16.841  0.00  0.00    +0.000 A 
ATOM     22  C   UNL     1     -35.169  47.262 -14.523  0.00  0.00    +0.000 A 
ATOM     23  C   UNL     1     -35.678  48.552 -14.383  0.00  0.00    +0.000 A 
ATOM     24  C   UNL     1     -35.239  46.641 -15.769  0.00  0.00    +0.000 A 
BRANCH  19  26
ATOM     25  O   UNL     1     -35.183  50.591 -18.392  0.00  0.00    +0.000 OA
ATOM     26  N   UNL     1     -37.039  49.222 -17.833  0.00  0.00    +0.000 N 
ATOM     27  C   UNL     1     -36.331  50.199 -18.576  0.00  0.00    +0.000 C 
ATOM     28  C   UNL     1     -38.417  48.797 -18.097  0.00  0.00    +0.000 C 
BRANCH  27  29
ATOM     29  C   UNL     1     -37.046  50.817 -19.685  0.00  0.00    +0.000 C 
BRANCH  29  30
ATOM     30  N   UNL     1     -37.756  51.412 -20.815  0.00  0.00    +0.000 N 
ATOM     31  N   UNL     1     -37.225  49.837 -23.951  0.00  0.00    +0.000 N 
ATOM     32  C   UNL     1     -36.747  51.638 -21.887  0.00  0.00    +0.000 C 
ATOM     33  C   UNL     1     -38.465  50.298 -21.504  0.00  0.00    +0.000 C 
ATOM     34  C   UNL     1     -36.512  50.946 -23.260  0.00  0.00    +0.000 C 
ATOM     35  C   UNL     1     -38.229  49.605 -22.878  0.00  0.00    +0.000 C 
ATOM     36  C   UNL     1     -36.328  48.690 -23.947  0.00  0.00    +0.000 C 
ENDBRANCH  29  30
ENDBRANCH  27  29
ENDBRANCH  19  26
ENDBRANCH   1  22
BRANCH   2  37
ATOM     37  C   UNL     1     -36.648  45.835 -12.529  0.00  0.00    +0.000 A 
ATOM     38  C   UNL     1     -37.436  46.855 -11.998  0.00  0.00    +0.000 A 
ATOM     39  C   UNL     1     -37.219  44.687 -13.074  0.00  0.00    +0.000 A 
ATOM     40  C   UNL     1     -38.820  46.715 -12.007  0.00  0.00    +0.000 A 
ATOM     41  C   UNL     1     -38.604  44.557 -13.078  0.00  0.00    +0.000 A 
ATOM     42  C   UNL     1     -39.403  45.569 -12.545  0.00  0.00    +0.000 A 
ENDBRANCH   2  37
TORSDOF 9
ENDMDL
MODEL 2
REMARK VINA RESULT:      -6.9      4.918      8.091
REMARK  Name = 135423438_Nintedanib.pdbqt.pdb
REMARK  9 active torsions:
REMARK  status: ('A' for Active; 'I' for Inactive)
REMARK    1  A    between atoms: N_1  and  C_22
REMARK    2  A    between atoms: C_2  and  C_4
REMARK    3  A    between atoms: C_2  and  C_37
REMARK    4  A    between atoms: C_7  and  O_13
REMARK    5  A    between atoms: C_10  and  C_16
REMARK    6  A    between atoms: C_16  and  O_17
REMARK    7  A    between atoms: C_19  and  N_26
REMARK    8  A    between atoms: C_27  and  C_29
REMARK    9  A    between atoms: C_29  and  N_30
REMARK                            x       y       z     vdW  Elec       q    Type
REMARK                         _______ _______ _______ _____ _____    ______ ____
ROOT
ATOM      1  N   UNL     1     -32.913  46.976 -17.905  0.00  0.00    +0.000 NA
ATOM      2  C   UNL     1     -32.816  46.093 -16.953  0.00  0.00    +0.000 C 
ENDROOT
BRANCH   2   4
ATOM      3  N   UNL     1     -29.792  44.123 -16.325  0.00  0.00    +0.000 N 
ATOM      4  C   UNL     1     -31.621  45.240 -16.966  0.00  0.00    +0.000 A 
ATOM      5  C   UNL     1     -31.057  44.559 -18.102  0.00  0.00    +0.000 A 
ATOM      6  C   UNL     1     -29.925  43.873 -17.669  0.00  0.00    +0.000 A 
ATOM      7  C   UNL     1     -30.798  44.945 -15.886  0.00  0.00    +0.000 A 
ATOM      8  C   UNL     1     -31.415  44.459 -19.462  0.00  0.00    +0.000 A 
ATOM      9  C   UNL     1     -29.129  43.099 -18.519  0.00  0.00    +0.000 A 
ATOM     10  C   UNL     1     -29.509  43.023 -19.866  0.00  0.00    +0.000 A 
ATOM     11  C   UNL     1     -30.636  43.692 -20.330  0.00  0.00    +0.000 A 
ATOM     12  H   UNL     1     -29.049  43.751 -15.753  0.00  0.00    +0.000 HD
BRANCH   7  13
ATOM     13  O   UNL     1     -30.866  45.338 -14.619  0.00  0.00    +0.000 OA
ATOM     14  H   UNL     1     -30.584  44.624 -14.021  0.00  0.00    +0.000 HD
ENDBRANCH   7  13
BRANCH  10  16
ATOM     15  O   UNL     1     -27.681  41.670 -20.545  0.00  0.00    +0.000 OA
ATOM     16  C   UNL     1     -28.729  42.227 -20.839  0.00  0.00    +0.000 C 
BRANCH  16  17
ATOM     17  O   UNL     1     -29.377  42.246 -22.038  0.00  0.00    +0.000 OA
ATOM     18  C   UNL     1     -28.604  42.228 -23.210  0.00  0.00    +0.000 C 
ENDBRANCH  16  17
ENDBRANCH  10  16
ENDBRANCH   2   4
BRANCH   1  22
ATOM     19  C   UNL     1     -36.247  49.555 -18.276  0.00  0.00    +0.000 A 
ATOM     20  C   UNL     1     -35.048  49.987 -17.705  0.00  0.00    +0.000 A 
ATOM     21  C   UNL     1     -36.301  48.227 -18.721  0.00  0.00    +0.000 A 
ATOM     22  C   UNL     1     -34.033  47.812 -17.996  0.00  0.00    +0.000 A 
ATOM     23  C   UNL     1     -33.950  49.138 -17.573  0.00  0.00    +0.000 A 
ATOM     24  C   UNL     1     -35.210  47.368 -18.595  0.00  0.00    +0.000 A 
BRANCH  19  26
ATOM     25  O   UNL     1     -36.670  51.440 -20.432  0.00  0.00    +0.000 OA
ATOM     26  N   UNL     1     -37.390  50.430 -18.408  0.00  0.00    +0.000 N 
ATOM     27  C   UNL     1     -37.476  51.311 -19.516  0.00  0.00    +0.000 C 
ATOM     28  C   UNL     1     -38.385  50.324 -17.337  0.00  0.00    +0.000 C 
BRANCH  27  29
ATOM     29  C   UNL     1     -38.652  52.167 -19.576  0.00  0.00    +0.000 C 
BRANCH  29  30
ATOM     30  N   UNL     1     -39.827  53.036 -19.608  0.00  0.00    +0.000 N 
ATOM     31  N   UNL     1     -39.282  56.290 -20.917  0.00  0.00    +0.000 N 
ATOM     32  C   UNL     1     -39.431  54.318 -18.962  0.00  0.00    +0.000 C 
ATOM     33  C   UNL     1     -39.912  53.581 -20.991  0.00  0.00    +0.000 C 
ATOM     34  C   UNL     1     -39.189  55.744 -19.536  0.00  0.00    +0.000 C 
ATOM     35  C   UNL     1     -39.670  55.008 -21.565  0.00  0.00    +0.000 C 
ATOM     36  C   UNL     1     -37.922  56.587 -21.346  0.00  0.00    +0.000 C 
ENDBRANCH  29  30
ENDBRANCH  27  29
ENDBRANCH  19  26
ENDBRANCH   1  22
BRANCH   2  37
ATOM     37  C   UNL     1     -33.810  45.893 -15.883  0.00  0.00    +0.000 A 
ATOM     38  C   UNL     1     -33.901  46.822 -14.848  0.00  0.00    +0.000 A 
ATOM     39  C   UNL     1     -34.663  44.792 -15.946  0.00  0.00    +0.000 A 
ATOM     40  C   UNL     1     -34.860  46.639 -13.857  0.00  0.00    +0.000 A 
ATOM     41  C   UNL     1     -35.618  44.618 -14.949  0.00  0.00    +0.000 A 
ATOM     42  C   UNL     1     -35.716  45.540 -13.907  0.00  0.00    +0.000 A 
ENDBRANCH   2  37
TORSDOF 9
ENDMDL
MODEL 3
REMARK VINA RESULT:      -6.7      5.048      8.282
REMARK  Name = 135423438_Nintedanib.pdbqt.pdb
REMARK  9 active torsions:
REMARK  status: ('A' for Active; 'I' for Inactive)
REMARK    1  A    between atoms: N_1  and  C_22
REMARK    2  A    between atoms: C_2  and  C_4
REMARK    3  A    between atoms: C_2  and  C_37
REMARK    4  A    between atoms: C_7  and  O_13
REMARK    5  A    between atoms: C_10  and  C_16
REMARK    6  A    between atoms: C_16  and  O_17
REMARK    7  A    between atoms: C_19  and  N_26
REMARK    8  A    between atoms: C_27  and  C_29
REMARK    9  A    between atoms: C_29  and  N_30
REMARK                            x       y       z     vdW  Elec       q    Type
REMARK                         _______ _______ _______ _____ _____    ______ ____
ROOT
ATOM      1  N   UNL     1     -32.797  46.981 -18.045  0.00  0.00    +0.000 NA
ATOM      2  C   UNL     1     -32.783  46.113 -17.074  0.00  0.00    +0.000 C 
ENDROOT
BRANCH   2   4
ATOM      3  N   UNL     1     -29.872  44.034 -16.287  0.00  0.00    +0.000 N 
ATOM      4  C   UNL     1     -31.630  45.205 -17.021  0.00  0.00    +0.000 A 
ATOM      5  C   UNL     1     -31.077  44.445 -18.111  0.00  0.00    +0.000 A 
ATOM      6  C   UNL     1     -29.988  43.728 -17.620  0.00  0.00    +0.000 A 
ATOM      7  C   UNL     1     -30.846  44.923 -15.910  0.00  0.00    +0.000 A 
ATOM      8  C   UNL     1     -31.410  44.299 -19.473  0.00  0.00    +0.000 A 
ATOM      9  C   UNL     1     -29.213  42.877 -18.415  0.00  0.00    +0.000 A 
ATOM     10  C   UNL     1     -29.568  42.756 -19.765  0.00  0.00    +0.000 A 
ATOM     11  C   UNL     1     -30.651  43.455 -20.286  0.00  0.00    +0.000 A 
ATOM     12  H   UNL     1     -29.160  43.654 -15.680  0.00  0.00    +0.000 HD
BRANCH   7  13
ATOM     13  O   UNL     1     -30.922  45.377 -14.663  0.00  0.00    +0.000 OA
ATOM     14  H   UNL     1     -31.446  46.197 -14.626  0.00  0.00    +0.000 HD
ENDBRANCH   7  13
BRANCH  10  16
ATOM     15  O   UNL     1     -29.296  40.888 -21.204  0.00  0.00    +0.000 OA
ATOM     16  C   UNL     1     -28.807  41.879 -20.682  0.00  0.00    +0.000 C 
BRANCH  16  17
ATOM     17  O   UNL     1     -27.543  42.374 -20.811  0.00  0.00    +0.000 OA
ATOM     18  C   UNL     1     -26.858  42.138 -22.014  0.00  0.00    +0.000 C 
ENDBRANCH  16  17
ENDBRANCH  10  16
ENDBRANCH   2   4
BRANCH   1  22
ATOM     19  C   UNL     1     -36.095  49.606 -18.418  0.00  0.00    +0.000 A 
ATOM     20  C   UNL     1     -36.151  48.290 -18.882  0.00  0.00    +0.000 A 
ATOM     21  C   UNL     1     -34.896  50.023 -17.823  0.00  0.00    +0.000 A 
ATOM     22  C   UNL     1     -33.870  47.867 -18.200  0.00  0.00    +0.000 A 
ATOM     23  C   UNL     1     -35.064  47.425 -18.769  0.00  0.00    +0.000 A 
ATOM     24  C   UNL     1     -33.802  49.167 -17.704  0.00  0.00    +0.000 A 
BRANCH  19  26
ATOM     25  O   UNL     1     -36.535  51.440 -20.614  0.00  0.00    +0.000 OA
ATOM     26  N   UNL     1     -37.217  50.508 -18.541  0.00  0.00    +0.000 N 
ATOM     27  C   UNL     1     -37.315  51.359 -19.670  0.00  0.00    +0.000 C 
ATOM     28  C   UNL     1     -38.181  50.460 -17.437  0.00  0.00    +0.000 C 
BRANCH  27  29
ATOM     29  C   UNL     1     -38.470  52.245 -19.719  0.00  0.00    +0.000 C 
BRANCH  29  30
ATOM     30  N   UNL     1     -39.621  53.142 -19.796  0.00  0.00    +0.000 N 
ATOM     31  N   UNL     1     -41.059  54.050 -16.680  0.00  0.00    +0.000 N 
ATOM     32  C   UNL     1     -40.702  52.525 -18.978  0.00  0.00    +0.000 C 
ATOM     33  C   UNL     1     -39.345  54.267 -18.860  0.00  0.00    +0.000 C 
ATOM     34  C   UNL     1     -41.331  52.921 -17.611  0.00  0.00    +0.000 C 
ATOM     35  C   UNL     1     -39.974  54.663 -17.492  0.00  0.00    +0.000 C 
ATOM     36  C   UNL     1     -40.432  53.479 -15.496  0.00  0.00    +0.000 C 
ENDBRANCH  29  30
ENDBRANCH  27  29
ENDBRANCH  19  26
ENDBRANCH   1  22
BRANCH   2  37
ATOM     37  C   UNL     1     -33.830  45.981 -16.046  0.00  0.00    +0.000 A 
ATOM     38  C   UNL     1     -34.715  44.905 -16.102  0.00  0.00    +0.000 A 
ATOM     39  C   UNL     1     -33.893  46.918 -15.016  0.00  0.00    +0.000 A 
ATOM     40  C   UNL     1     -35.684  44.773 -15.112  0.00  0.00    +0.000 A 
ATOM     41  C   UNL     1     -34.866  46.776 -14.031  0.00  0.00    +0.000 A 
ATOM     42  C   UNL     1     -35.759  45.706 -14.079  0.00  0.00    +0.000 A 
ENDBRANCH   2  37
TORSDOF 9
ENDMDL
MODEL 4
REMARK VINA RESULT:      -6.6     22.749     24.453
REMARK  Name = 135423438_Nintedanib.pdbqt.pdb
REMARK  9 active torsions:
REMARK  status: ('A' for Active; 'I' for Inactive)
REMARK    1  A    between atoms: N_1  and  C_22
REMARK    2  A    between atoms: C_2  and  C_4
REMARK    3  A    between atoms: C_2  and  C_37
REMARK    4  A    between atoms: C_7  and  O_13
REMARK    5  A    between atoms: C_10  and  C_16
REMARK    6  A    between atoms: C_16  and  O_17
REMARK    7  A    between atoms: C_19  and  N_26
REMARK    8  A    between atoms: C_27  and  C_29
REMARK    9  A    between atoms: C_29  and  N_30
REMARK                            x       y       z     vdW  Elec       q    Type
REMARK                         _______ _______ _______ _____ _____    ______ ____
ROOT
ATOM      1  N   UNL     1     -18.129  54.345 -27.486  0.00  0.00    +0.000 NA
ATOM      2  C   UNL     1     -16.855  54.362 -27.217  0.00  0.00    +0.000 C 
ENDROOT
BRANCH   2   4
ATOM      3  N   UNL     1     -15.753  53.757 -23.776  0.00  0.00    +0.000 N 
ATOM      4  C   UNL     1     -16.483  54.380 -25.796  0.00  0.00    +0.000 A 
ATOM      5  C   UNL     1     -16.616  55.484 -24.882  0.00  0.00    +0.000 A 
ATOM      6  C   UNL     1     -16.151  55.064 -23.637  0.00  0.00    +0.000 A 
ATOM      7  C   UNL     1     -15.949  53.328 -25.064  0.00  0.00    +0.000 A 
ATOM      8  C   UNL     1     -17.085  56.808 -25.004  0.00  0.00    +0.000 A 
ATOM      9  C   UNL     1     -16.134  55.891 -22.510  0.00  0.00    +0.000 A 
ATOM     10  C   UNL     1     -16.610  57.200 -22.663  0.00  0.00    +0.000 A 
ATOM     11  C   UNL     1     -17.077  57.652 -23.893  0.00  0.00    +0.000 A 
ATOM     12  H   UNL     1     -15.376  53.200 -23.024  0.00  0.00    +0.000 HD
BRANCH   7  13
ATOM     13  O   UNL     1     -15.650  52.086 -25.431  0.00  0.00    +0.000 OA
ATOM     14  H   UNL     1     -16.296  51.753 -26.078  0.00  0.00    +0.000 HD
ENDBRANCH   7  13
BRANCH  10  16
ATOM     15  O   UNL     1     -16.585  59.359 -21.679  0.00  0.00    +0.000 OA
ATOM     16  C   UNL     1     -16.630  58.147 -21.527  0.00  0.00    +0.000 C 
BRANCH  16  17
ATOM     17  O   UNL     1     -16.702  57.435 -20.367  0.00  0.00    +0.000 OA
ATOM     18  C   UNL     1     -16.708  58.143 -19.154  0.00  0.00    +0.000 C 
ENDBRANCH  16  17
ENDBRANCH  10  16
ENDBRANCH   2   4
BRANCH   1  22
ATOM     19  C   UNL     1     -19.611  54.379 -31.449  0.00  0.00    +0.000 A 
ATOM     20  C   UNL     1     -19.455  53.188 -30.737  0.00  0.00    +0.000 A 
ATOM     21  C   UNL     1     -19.255  55.566 -30.794  0.00  0.00    +0.000 A 
ATOM     22  C   UNL     1     -18.582  54.361 -28.810  0.00  0.00    +0.000 A 
ATOM     23  C   UNL     1     -18.958  53.172 -29.434  0.00  0.00    +0.000 A 
ATOM     24  C   UNL     1     -18.758  55.563 -29.492  0.00  0.00    +0.000 A 
BRANCH  19  26
ATOM     25  O   UNL     1     -22.407  54.524 -32.185  0.00  0.00    +0.000 OA
ATOM     26  N   UNL     1     -20.119  54.400 -32.802  0.00  0.00    +0.000 N 
ATOM     27  C   UNL     1     -21.516  54.472 -33.027  0.00  0.00    +0.000 C 
ATOM     28  C   UNL     1     -19.099  54.333 -33.853  0.00  0.00    +0.000 C 
BRANCH  27  29
ATOM     29  C   UNL     1     -21.952  54.480 -34.417  0.00  0.00    +0.000 C 
BRANCH  29  30
ATOM     30  N   UNL     1     -22.364  54.471 -35.819  0.00  0.00    +0.000 N 
ATOM     31  N   UNL     1     -24.470  51.777 -36.772  0.00  0.00    +0.000 N 
ATOM     32  C   UNL     1     -22.067  53.111 -36.346  0.00  0.00    +0.000 C 
ATOM     33  C   UNL     1     -23.846  54.316 -35.823  0.00  0.00    +0.000 C 
ATOM     34  C   UNL     1     -22.989  51.928 -36.761  0.00  0.00    +0.000 C 
ATOM     35  C   UNL     1     -24.768  53.132 -36.237  0.00  0.00    +0.000 C 
ATOM     36  C   UNL     1     -24.804  50.825 -35.721  0.00  0.00    +0.000 C 
ENDBRANCH  29  30
ENDBRANCH  27  29
ENDBRANCH  19  26
ENDBRANCH   1  22
BRANCH   2  37
ATOM     37  C   UNL     1     -15.780  54.368 -28.224  0.00  0.00    +0.000 A 
ATOM     38  C   UNL     1     -15.381  53.168 -28.809  0.00  0.00    +0.000 A 
ATOM     39  C   UNL     1     -15.206  55.582 -28.597  0.00  0.00    +0.000 A 
ATOM     40  C   UNL     1     -14.383  53.186 -29.779  0.00  0.00    +0.000 A 
ATOM     41  C   UNL     1     -14.209  55.589 -29.567  0.00  0.00    +0.000 A 
ATOM     42  C   UNL     1     -13.798  54.394 -30.157  0.00  0.00    +0.000 A 
ENDBRANCH   2  37
TORSDOF 9
ENDMDL
MODEL 5
REMARK VINA RESULT:      -6.5      5.116      7.573
REMARK  Name = 135423438_Nintedanib.pdbqt.pdb
REMARK  9 active torsions:
REMARK  status: ('A' for Active; 'I' for Inactive)
REMARK    1  A    between atoms: N_1  and  C_22
REMARK    2  A    between atoms: C_2  and  C_4
REMARK    3  A    between atoms: C_2  and  C_37
REMARK    4  A    between atoms: C_7  and  O_13
REMARK    5  A    between atoms: C_10  and  C_16
REMARK    6  A    between atoms: C_16  and  O_17
REMARK    7  A    between atoms: C_19  and  N_26
REMARK    8  A    between atoms: C_27  and  C_29
REMARK    9  A    between atoms: C_29  and  N_30
REMARK                            x       y       z     vdW  Elec       q    Type
REMARK                         _______ _______ _______ _____ _____    ______ ____
ROOT
ATOM      1  N   UNL     1     -34.787  48.494 -16.724  0.00  0.00    +0.000 NA
ATOM      2  C   UNL     1     -34.713  47.235 -17.048  0.00  0.00    +0.000 C 
ENDROOT
BRANCH   2   4
ATOM      3  N   UNL     1     -32.142  45.580 -15.031  0.00  0.00    +0.000 N 
ATOM      4  C   UNL     1     -33.595  46.474 -16.478  0.00  0.00    +0.000 A 
ATOM      5  C   UNL     1     -32.626  45.691 -17.200  0.00  0.00    +0.000 A 
ATOM      6  C   UNL     1     -31.740  45.148 -16.271  0.00  0.00    +0.000 A 
ATOM      7  C   UNL     1     -33.251  46.381 -15.136  0.00  0.00    +0.000 A 
ATOM      8  C   UNL     1     -32.427  45.389 -18.563  0.00  0.00    +0.000 A 
ATOM      9  C   UNL     1     -30.666  44.327 -16.629  0.00  0.00    +0.000 A 
ATOM     10  C   UNL     1     -30.494  44.049 -17.992  0.00  0.00    +0.000 A 
ATOM     11  C   UNL     1     -31.362  44.571 -18.944  0.00  0.00    +0.000 A 
ATOM     12  H   UNL     1     -31.673  45.339 -14.170  0.00  0.00    +0.000 HD
BRANCH   7  13
ATOM     13  O   UNL     1     -33.810  46.930 -14.063  0.00  0.00    +0.000 OA
ATOM     14  H   UNL     1     -33.174  46.975 -13.327  0.00  0.00    +0.000 HD
ENDBRANCH   7  13
BRANCH  10  16
ATOM     15  O   UNL     1     -28.720  43.457 -19.454  0.00  0.00    +0.000 OA
ATOM     16  C   UNL     1     -29.387  43.189 -18.465  0.00  0.00    +0.000 C 
BRANCH  16  17
ATOM     17  O   UNL     1     -29.277  42.119 -17.627  0.00  0.00    +0.000 OA
ATOM     18  C   UNL     1     -29.838  40.898 -18.035  0.00  0.00    +0.000 C 
ENDBRANCH  16  17
ENDBRANCH  10  16
ENDBRANCH   2   4
BRANCH   1  22
ATOM     19  C   UNL     1     -37.818  51.043 -18.212  0.00  0.00    +0.000 A 
ATOM     20  C   UNL     1     -38.012  50.267 -17.067  0.00  0.00    +0.000 A 
ATOM     21  C   UNL     1     -36.575  50.941 -18.850  0.00  0.00    +0.000 A 
ATOM     22  C   UNL     1     -35.798  49.310 -17.244  0.00  0.00    +0.000 A 
ATOM     23  C   UNL     1     -37.019  49.420 -16.579  0.00  0.00    +0.000 A 
ATOM     24  C   UNL     1     -35.574  50.098 -18.372  0.00  0.00    +0.000 A 
BRANCH  19  26
ATOM     25  O   UNL     1     -38.130  53.840 -17.533  0.00  0.00    +0.000 OA
ATOM     26  N   UNL     1     -38.848  51.918 -18.726  0.00  0.00    +0.000 N 
ATOM     27  C   UNL     1     -38.891  53.273 -18.311  0.00  0.00    +0.000 C 
ATOM     28  C   UNL     1     -39.792  51.293 -19.657  0.00  0.00    +0.000 C 
BRANCH  27  29
ATOM     29  C   UNL     1     -39.962  54.090 -18.865  0.00  0.00    +0.000 C 
BRANCH  29  30
ATOM     30  N   UNL     1     -41.032  54.896 -19.448  0.00  0.00    +0.000 N 
ATOM     31  N   UNL     1     -39.970  57.753 -21.268  0.00  0.00    +0.000 N 
ATOM     32  C   UNL     1     -40.781  56.305 -19.036  0.00  0.00    +0.000 C 
ATOM     33  C   UNL     1     -40.681  55.091 -20.882  0.00  0.00    +0.000 C 
ATOM     34  C   UNL     1     -40.313  57.557 -19.833  0.00  0.00    +0.000 C 
ATOM     35  C   UNL     1     -40.212  56.344 -21.679  0.00  0.00    +0.000 C 
ATOM     36  C   UNL     1     -38.531  57.971 -21.332  0.00  0.00    +0.000 C 
ENDBRANCH  29  30
ENDBRANCH  27  29
ENDBRANCH  19  26
ENDBRANCH   1  22
BRANCH   2  37
ATOM     37  C   UNL     1     -35.659  46.536 -17.936  0.00  0.00    +0.000 A 
ATOM     38  C   UNL     1     -35.546  46.691 -19.317  0.00  0.00    +0.000 A 
ATOM     39  C   UNL     1     -36.628  45.705 -17.377  0.00  0.00    +0.000 A 
ATOM     40  C   UNL     1     -36.426  46.006 -20.149  0.00  0.00    +0.000 A 
ATOM     41  C   UNL     1     -37.503  45.025 -18.218  0.00  0.00    +0.000 A 
ATOM     42  C   UNL     1     -37.402  45.175 -19.601  0.00  0.00    +0.000 A 
ENDBRANCH   2  37
TORSDOF 9
ENDMDL
MODEL 6
REMARK VINA RESULT:      -6.5     23.138     24.867
REMARK  Name = 135423438_Nintedanib.pdbqt.pdb
REMARK  9 active torsions:
REMARK  status: ('A' for Active; 'I' for Inactive)
REMARK    1  A    between atoms: N_1  and  C_22
REMARK    2  A    between atoms: C_2  and  C_4
REMARK    3  A    between atoms: C_2  and  C_37
REMARK    4  A    between atoms: C_7  and  O_13
REMARK    5  A    between atoms: C_10  and  C_16
REMARK    6  A    between atoms: C_16  and  O_17
REMARK    7  A    between atoms: C_19  and  N_26
REMARK    8  A    between atoms: C_27  and  C_29
REMARK    9  A    between atoms: C_29  and  N_30
REMARK                            x       y       z     vdW  Elec       q    Type
REMARK                         _______ _______ _______ _____ _____    ______ ____
ROOT
ATOM      1  N   UNL     1     -17.814  54.004 -27.296  0.00  0.00    +0.000 NA
ATOM      2  C   UNL     1     -16.538  53.885 -27.069  0.00  0.00    +0.000 C 
ENDROOT
BRANCH   2   4
ATOM      3  N   UNL     1     -15.442  52.483 -23.867  0.00  0.00    +0.000 N 
ATOM      4  C   UNL     1     -16.140  53.575 -25.690  0.00  0.00    +0.000 A 
ATOM      5  C   UNL     1     -16.144  54.475 -24.566  0.00  0.00    +0.000 A 
ATOM      6  C   UNL     1     -15.702  53.766 -23.451  0.00  0.00    +0.000 A 
ATOM      7  C   UNL     1     -15.703  52.349 -25.207  0.00  0.00    +0.000 A 
ATOM      8  C   UNL     1     -16.477  55.835 -24.400  0.00  0.00    +0.000 A 
ATOM      9  C   UNL     1     -15.581  54.338 -22.181  0.00  0.00    +0.000 A 
ATOM     10  C   UNL     1     -15.924  55.690 -22.048  0.00  0.00    +0.000 A 
ATOM     11  C   UNL     1     -16.364  56.428 -23.141  0.00  0.00    +0.000 A 
ATOM     12  H   UNL     1     -15.109  51.750 -23.259  0.00  0.00    +0.000 HD
BRANCH   7  13
ATOM     13  O   UNL     1     -15.539  51.186 -25.829  0.00  0.00    +0.000 OA
ATOM     14  H   UNL     1     -16.254  50.568 -25.599  0.00  0.00    +0.000 HD
ENDBRANCH   7  13
BRANCH  10  16
ATOM     15  O   UNL     1     -15.048  56.030 -19.869  0.00  0.00    +0.000 OA
ATOM     16  C   UNL     1     -15.826  56.381 -20.743  0.00  0.00    +0.000 C 
BRANCH  16  17
ATOM     17  O   UNL     1     -16.719  57.410 -20.727  0.00  0.00    +0.000 OA
ATOM     18  C   UNL     1     -16.685  58.300 -19.641  0.00  0.00    +0.000 C 
ENDBRANCH  16  17
ENDBRANCH  10  16
ENDBRANCH   2   4
BRANCH   1  22
ATOM     19  C   UNL     1     -19.359  54.970 -31.114  0.00  0.00    +0.000 A 
ATOM     20  C   UNL     1     -19.183  53.645 -30.710  0.00  0.00    +0.000 A 
ATOM     21  C   UNL     1     -19.002  55.970 -30.200  0.00  0.00    +0.000 A 
ATOM     22  C   UNL     1     -18.288  54.332 -28.571  0.00  0.00    +0.000 A 
ATOM     23  C   UNL     1     -18.665  53.323 -29.456  0.00  0.00    +0.000 A 
ATOM     24  C   UNL     1     -18.484  55.661 -28.943  0.00  0.00    +0.000 A 
BRANCH  19  26
ATOM     25  O   UNL     1     -22.053  54.420 -32.020  0.00  0.00    +0.000 OA
ATOM     26  N   UNL     1     -19.888  55.309 -32.416  0.00  0.00    +0.000 N 
ATOM     27  C   UNL     1     -21.230  54.981 -32.736  0.00  0.00    +0.000 C 
ATOM     28  C   UNL     1     -18.947  55.977 -33.319  0.00  0.00    +0.000 C 
BRANCH  27  29
ATOM     29  C   UNL     1     -21.689  55.346 -34.069  0.00  0.00    +0.000 C 
BRANCH  29  30
ATOM     30  N   UNL     1     -22.176  55.718 -35.396  0.00  0.00    +0.000 N 
ATOM     31  N   UNL     1     -19.761  57.162 -37.559  0.00  0.00    +0.000 N 
ATOM     32  C   UNL     1     -21.760  57.129 -35.627  0.00  0.00    +0.000 C 
ATOM     33  C   UNL     1     -21.231  55.117 -36.378  0.00  0.00    +0.000 C 
ATOM     34  C   UNL     1     -20.700  57.762 -36.573  0.00  0.00    +0.000 C 
ATOM     35  C   UNL     1     -20.169  55.751 -37.324  0.00  0.00    +0.000 C 
ATOM     36  C   UNL     1     -18.420  57.311 -37.011  0.00  0.00    +0.000 C 
ENDBRANCH  29  30
ENDBRANCH  27  29
ENDBRANCH  19  26
ENDBRANCH   1  22
BRANCH   2  37
ATOM     37  C   UNL     1     -15.482  54.041 -28.086  0.00  0.00    +0.000 A 
ATOM     38  C   UNL     1     -15.143  52.959 -28.895  0.00  0.00    +0.000 A 
ATOM     39  C   UNL     1     -14.866  55.283 -28.240  0.00  0.00    +0.000 A 
ATOM     40  C   UNL     1     -14.164  53.123 -29.870  0.00  0.00    +0.000 A 
ATOM     41  C   UNL     1     -13.888  55.436 -29.217  0.00  0.00    +0.000 A 
ATOM     42  C   UNL     1     -13.538  54.358 -30.031  0.00  0.00    +0.000 A 
ENDBRANCH   2  37
TORSDOF 9
ENDMDL
MODEL 7
REMARK VINA RESULT:      -6.4     23.231     24.772
REMARK  Name = 135423438_Nintedanib.pdbqt.pdb
REMARK  9 active torsions:
REMARK  status: ('A' for Active; 'I' for Inactive)
REMARK    1  A    between atoms: N_1  and  C_22
REMARK    2  A    between atoms: C_2  and  C_4
REMARK    3  A    between atoms: C_2  and  C_37
REMARK    4  A    between atoms: C_7  and  O_13
REMARK    5  A    between atoms: C_10  and  C_16
REMARK    6  A    between atoms: C_16  and  O_17
REMARK    7  A    between atoms: C_19  and  N_26
REMARK    8  A    between atoms: C_27  and  C_29
REMARK    9  A    between atoms: C_29  and  N_30
REMARK                            x       y       z     vdW  Elec       q    Type
REMARK                         _______ _______ _______ _____ _____    ______ ____
ROOT
ATOM      1  N   UNL     1     -18.060  54.209 -27.300  0.00  0.00    +0.000 NA
ATOM      2  C   UNL     1     -16.777  54.215 -27.078  0.00  0.00    +0.000 C 
ENDROOT
BRANCH   2   4
ATOM      3  N   UNL     1     -15.544  53.402 -23.726  0.00  0.00    +0.000 N 
ATOM      4  C   UNL     1     -16.351  54.146 -25.674  0.00  0.00    +0.000 A 
ATOM      5  C   UNL     1     -16.452  55.190 -24.688  0.00  0.00    +0.000 A 
ATOM      6  C   UNL     1     -15.939  54.695 -23.491  0.00  0.00    +0.000 A 
ATOM      7  C   UNL     1     -15.787  53.053 -25.030  0.00  0.00    +0.000 A 
ATOM      8  C   UNL     1     -16.928  56.517 -24.710  0.00  0.00    +0.000 A 
ATOM      9  C   UNL     1     -15.881  55.451 -22.315  0.00  0.00    +0.000 A 
ATOM     10  C   UNL     1     -16.366  56.765 -22.368  0.00  0.00    +0.000 A 
ATOM     11  C   UNL     1     -16.880  57.290 -23.548  0.00  0.00    +0.000 A 
ATOM     12  H   UNL     1     -15.136  52.800 -23.025  0.00  0.00    +0.000 HD
BRANCH   7  13
ATOM     13  O   UNL     1     -15.499  51.838 -25.485  0.00  0.00    +0.000 OA
ATOM     14  H   UNL     1     -16.302  51.393 -25.810  0.00  0.00    +0.000 HD
ENDBRANCH   7  13
BRANCH  10  16
ATOM     15  O   UNL     1     -16.319  57.197 -20.035  0.00  0.00    +0.000 OA
ATOM     16  C   UNL     1     -16.345  57.638 -21.175  0.00  0.00    +0.000 C 
BRANCH  16  17
ATOM     17  O   UNL     1     -16.358  58.938 -21.586  0.00  0.00    +0.000 OA
ATOM     18  C   UNL     1     -16.754  59.920 -20.663  0.00  0.00    +0.000 C 
ENDBRANCH  16  17
ENDBRANCH  10  16
ENDBRANCH   2   4
BRANCH   1  22
ATOM     19  C   UNL     1     -19.469  54.517 -31.277  0.00  0.00    +0.000 A 
ATOM     20  C   UNL     1     -19.123  55.648 -30.534  0.00  0.00    +0.000 A 
ATOM     21  C   UNL     1     -19.331  53.273 -30.649  0.00  0.00    +0.000 A 
ATOM     22  C   UNL     1     -18.563  54.305 -28.602  0.00  0.00    +0.000 A 
ATOM     23  C   UNL     1     -18.667  55.551 -29.220  0.00  0.00    +0.000 A 
ATOM     24  C   UNL     1     -18.875  53.162 -29.336  0.00  0.00    +0.000 A 
BRANCH  19  26
ATOM     25  O   UNL     1     -17.798  54.617 -33.639  0.00  0.00    +0.000 OA
ATOM     26  N   UNL     1     -19.950  54.614 -32.637  0.00  0.00    +0.000 N 
ATOM     27  C   UNL     1     -19.022  54.656 -33.708  0.00  0.00    +0.000 C 
ATOM     28  C   UNL     1     -21.407  54.671 -32.782  0.00  0.00    +0.000 C 
BRANCH  27  29
ATOM     29  C   UNL     1     -19.582  54.762 -35.049  0.00  0.00    +0.000 C 
BRANCH  29  30
ATOM     30  N   UNL     1     -20.162  54.846 -36.388  0.00  0.00    +0.000 N 
ATOM     31  N   UNL     1     -23.615  54.051 -36.605  0.00  0.00    +0.000 N 
ATOM     32  C   UNL     1     -20.878  53.562 -36.627  0.00  0.00    +0.000 C 
ATOM     33  C   UNL     1     -21.388  55.683 -36.266  0.00  0.00    +0.000 C 
ATOM     34  C   UNL     1     -22.391  53.212 -36.719  0.00  0.00    +0.000 C 
ATOM     35  C   UNL     1     -22.902  55.333 -36.357  0.00  0.00    +0.000 C 
ATOM     36  C   UNL     1     -24.265  53.681 -35.355  0.00  0.00    +0.000 C 
ENDBRANCH  29  30
ENDBRANCH  27  29
ENDBRANCH  19  26
ENDBRANCH   1  22
BRANCH   2  37
ATOM     37  C   UNL     1     -15.740  54.290 -28.124  0.00  0.00    +0.000 A 
ATOM     38  C   UNL     1     -15.137  55.515 -28.405  0.00  0.00    +0.000 A 
ATOM     39  C   UNL     1     -15.360  53.125 -28.787  0.00  0.00    +0.000 A 
ATOM     40  C   UNL     1     -14.141  55.571 -29.375  0.00  0.00    +0.000 A 
ATOM     41  C   UNL     1     -14.363  53.193 -29.755  0.00  0.00    +0.000 A 
ATOM     42  C   UNL     1     -13.755  54.413 -30.048  0.00  0.00    +0.000 A 
ENDBRANCH   2  37
TORSDOF 9
ENDMDL
MODEL 8
REMARK VINA RESULT:      -6.3      3.209      6.146
REMARK  Name = 135423438_Nintedanib.pdbqt.pdb
REMARK  9 active torsions:
REMARK  status: ('A' for Active; 'I' for Inactive)
REMARK    1  A    between atoms: N_1  and  C_22
REMARK    2  A    between atoms: C_2  and  C_4
REMARK    3  A    between atoms: C_2  and  C_37
REMARK    4  A    between atoms: C_7  and  O_13
REMARK    5  A    between atoms: C_10  and  C_16
REMARK    6  A    between atoms: C_16  and  O_17
REMARK    7  A    between atoms: C_19  and  N_26
REMARK    8  A    between atoms: C_27  and  C_29
REMARK    9  A    between atoms: C_29  and  N_30
REMARK                            x       y       z     vdW  Elec       q    Type
REMARK                         _______ _______ _______ _____ _____    ______ ____
ROOT
ATOM      1  N   UNL     1     -33.446  43.655  -8.611  0.00  0.00    +0.000 NA
ATOM      2  C   UNL     1     -34.235  44.219  -7.742  0.00  0.00    +0.000 C 
ENDROOT
BRANCH   2   4
ATOM      3  N   UNL     1     -33.165  44.141  -4.239  0.00  0.00    +0.000 N 
ATOM      4  C   UNL     1     -33.949  43.956  -6.326  0.00  0.00    +0.000 A 
ATOM      5  C   UNL     1     -34.382  42.821  -5.553  0.00  0.00    +0.000 A 
ATOM      6  C   UNL     1     -33.880  42.969  -4.262  0.00  0.00    +0.000 A 
ATOM      7  C   UNL     1     -33.191  44.745  -5.470  0.00  0.00    +0.000 A 
ATOM      8  C   UNL     1     -35.164  41.682  -5.835  0.00  0.00    +0.000 A 
ATOM      9  C   UNL     1     -34.112  42.041  -3.241  0.00  0.00    +0.000 A 
ATOM     10  C   UNL     1     -34.889  40.918  -3.555  0.00  0.00    +0.000 A 
ATOM     11  C   UNL     1     -35.409  40.743  -4.833  0.00  0.00    +0.000 A 
ATOM     12  H   UNL     1     -32.686  44.495  -3.424  0.00  0.00    +0.000 HD
BRANCH   7  13
ATOM     13  O   UNL     1     -32.552  45.888  -5.693  0.00  0.00    +0.000 OA
ATOM     14  H   UNL     1     -32.507  46.079  -6.646  0.00  0.00    +0.000 HD
ENDBRANCH   7  13
BRANCH  10  16
ATOM     15  O   UNL     1     -35.675  40.151  -1.451  0.00  0.00    +0.000 OA
ATOM     16  C   UNL     1     -35.188  39.884  -2.540  0.00  0.00    +0.000 C 
BRANCH  16  17
ATOM     17  O   UNL     1     -34.832  38.667  -3.040  0.00  0.00    +0.000 OA
ATOM     18  C   UNL     1     -35.343  37.519  -2.413  0.00  0.00    +0.000 C 
ENDBRANCH  16  17
ENDBRANCH  10  16
ENDBRANCH   2   4
BRANCH   1  22
ATOM     19  C   UNL     1     -33.984  44.096 -12.784  0.00  0.00    +0.000 A 
ATOM     20  C   UNL     1     -33.135  44.939 -12.063  0.00  0.00    +0.000 A 
ATOM     21  C   UNL     1     -34.652  43.096 -12.066  0.00  0.00    +0.000 A 
ATOM     22  C   UNL     1     -33.658  43.819  -9.985  0.00  0.00    +0.000 A 
ATOM     23  C   UNL     1     -32.962  44.802 -10.686  0.00  0.00    +0.000 A 
ATOM     24  C   UNL     1     -34.488  42.949 -10.689  0.00  0.00    +0.000 A 
BRANCH  19  26
ATOM     25  O   UNL     1     -35.266  46.341 -14.086  0.00  0.00    +0.000 OA
ATOM     26  N   UNL     1     -34.171  44.238 -14.211  0.00  0.00    +0.000 N 
ATOM     27  C   UNL     1     -34.818  45.391 -14.722  0.00  0.00    +0.000 C 
ATOM     28  C   UNL     1     -33.661  43.129 -15.022  0.00  0.00    +0.000 C 
BRANCH  27  29
ATOM     29  C   UNL     1     -34.978  45.460 -16.168  0.00  0.00    +0.000 C 
BRANCH  29  30
ATOM     30  N   UNL     1     -35.150  45.557 -17.616  0.00  0.00    +0.000 N 
ATOM     31  N   UNL     1     -34.901  48.831 -18.965  0.00  0.00    +0.000 N 
ATOM     32  C   UNL     1     -36.168  46.617 -17.858  0.00  0.00    +0.000 C 
ATOM     33  C   UNL     1     -33.990  46.340 -18.128  0.00  0.00    +0.000 C 
ATOM     34  C   UNL     1     -36.059  48.053 -18.447  0.00  0.00    +0.000 C 
ATOM     35  C   UNL     1     -33.882  47.777 -18.716  0.00  0.00    +0.000 C 
ATOM     36  C   UNL     1     -34.648  49.899 -18.008  0.00  0.00    +0.000 C 
ENDBRANCH  29  30
ENDBRANCH  27  29
ENDBRANCH  19  26
ENDBRANCH   1  22
BRANCH   2  37
ATOM     37  C   UNL     1     -35.379  45.085  -8.078  0.00  0.00    +0.000 A 
ATOM     38  C   UNL     1     -36.662  44.542  -8.120  0.00  0.00    +0.000 A 
ATOM     39  C   UNL     1     -35.158  46.441  -8.315  0.00  0.00    +0.000 A 
ATOM     40  C   UNL     1     -37.739  45.373  -8.413  0.00  0.00    +0.000 A 
ATOM     41  C   UNL     1     -36.242  47.262  -8.607  0.00  0.00    +0.000 A 
ATOM     42  C   UNL     1     -37.530  46.729  -8.656  0.00  0.00    +0.000 A 
ENDBRANCH   2  37
TORSDOF 9
ENDMDL
MODEL 9
REMARK VINA RESULT:      -6.3      5.240      7.346
REMARK  Name = 135423438_Nintedanib.pdbqt.pdb
REMARK  9 active torsions:
REMARK  status: ('A' for Active; 'I' for Inactive)
REMARK    1  A    between atoms: N_1  and  C_22
REMARK    2  A    between atoms: C_2  and  C_4
REMARK    3  A    between atoms: C_2  and  C_37
REMARK    4  A    between atoms: C_7  and  O_13
REMARK    5  A    between atoms: C_10  and  C_16
REMARK    6  A    between atoms: C_16  and  O_17
REMARK    7  A    between atoms: C_19  and  N_26
REMARK    8  A    between atoms: C_27  and  C_29
REMARK    9  A    between atoms: C_29  and  N_30
REMARK                            x       y       z     vdW  Elec       q    Type
REMARK                         _______ _______ _______ _____ _____    ______ ____
ROOT
ATOM      1  N   UNL     1     -32.126  45.629 -18.255  0.00  0.00    +0.000 NA
ATOM      2  C   UNL     1     -31.991  44.774 -17.282  0.00  0.00    +0.000 C 
ENDROOT
BRANCH   2   4
ATOM      3  N   UNL     1     -28.830  43.010 -17.845  0.00  0.00    +0.000 N 
ATOM      4  C   UNL     1     -30.836  43.870 -17.356  0.00  0.00    +0.000 A 
ATOM      5  C   UNL     1     -30.728  42.556 -16.778  0.00  0.00    +0.000 A 
ATOM      6  C   UNL     1     -29.469  42.052 -17.098  0.00  0.00    +0.000 A 
ATOM      7  C   UNL     1     -29.636  44.107 -18.014  0.00  0.00    +0.000 A 
ATOM      8  C   UNL     1     -31.589  41.751 -16.003  0.00  0.00    +0.000 A 
ATOM      9  C   UNL     1     -29.026  40.789 -16.691  0.00  0.00    +0.000 A 
ATOM     10  C   UNL     1     -29.906  40.013 -15.926  0.00  0.00    +0.000 A 
ATOM     11  C   UNL     1     -31.168  40.488 -15.585  0.00  0.00    +0.000 A 
ATOM     12  H   UNL     1     -27.897  42.907 -18.216  0.00  0.00    +0.000 HD
BRANCH   7  13
ATOM     13  O   UNL     1     -29.233  45.159 -18.719  0.00  0.00    +0.000 OA
ATOM     14  H   UNL     1     -29.996  45.675 -19.035  0.00  0.00    +0.000 HD
ENDBRANCH   7  13
BRANCH  10  16
ATOM     15  O   UNL     1     -30.342  37.776 -15.263  0.00  0.00    +0.000 OA
ATOM     16  C   UNL     1     -29.524  38.665 -15.450  0.00  0.00    +0.000 C 
BRANCH  16  17
ATOM     17  O   UNL     1     -28.172  38.630 -15.280  0.00  0.00    +0.000 OA
ATOM     18  C   UNL     1     -27.507  37.414 -15.507  0.00  0.00    +0.000 C 
ENDBRANCH  16  17
ENDBRANCH  10  16
ENDBRANCH   2   4
BRANCH   1  22
ATOM     19  C   UNL     1     -35.348  48.366 -18.424  0.00  0.00    +0.000 A 
ATOM     20  C   UNL     1     -34.299  48.526 -17.515  0.00  0.00    +0.000 A 
ATOM     21  C   UNL     1     -35.289  47.258 -19.279  0.00  0.00    +0.000 A 
ATOM     22  C   UNL     1     -33.214  46.508 -18.290  0.00  0.00    +0.000 A 
ATOM     23  C   UNL     1     -33.240  47.621 -17.450  0.00  0.00    +0.000 A 
ATOM     24  C   UNL     1     -34.236  46.346 -19.224  0.00  0.00    +0.000 A 
BRANCH  19  26
ATOM     25  O   UNL     1     -35.419  50.764 -20.044  0.00  0.00    +0.000 OA
ATOM     26  N   UNL     1     -36.451  49.298 -18.489  0.00  0.00    +0.000 N 
ATOM     27  C   UNL     1     -36.358  50.439 -19.325  0.00  0.00    +0.000 C 
ATOM     28  C   UNL     1     -37.601  48.964 -17.644  0.00  0.00    +0.000 C 
BRANCH  27  29
ATOM     29  C   UNL     1     -37.506  51.335 -19.332  0.00  0.00    +0.000 C 
BRANCH  29  30
ATOM     30  N   UNL     1     -38.639  52.259 -19.341  0.00  0.00    +0.000 N 
ATOM     31  N   UNL     1     -40.351  52.601 -16.250  0.00  0.00    +0.000 N 
ATOM     32  C   UNL     1     -39.795  51.526 -18.753  0.00  0.00    +0.000 C 
ATOM     33  C   UNL     1     -38.441  53.181 -18.188  0.00  0.00    +0.000 C 
ATOM     34  C   UNL     1     -40.544  51.674 -17.397  0.00  0.00    +0.000 C 
ATOM     35  C   UNL     1     -39.191  53.329 -16.831  0.00  0.00    +0.000 C 
ATOM     36  C   UNL     1     -39.839  51.804 -15.144  0.00  0.00    +0.000 C 
ENDBRANCH  29  30
ENDBRANCH  27  29
ENDBRANCH  19  26
ENDBRANCH   1  22
BRANCH   2  37
ATOM     37  C   UNL     1     -32.907  44.651 -16.134  0.00  0.00    +0.000 A 
ATOM     38  C   UNL     1     -34.168  44.087 -16.319  0.00  0.00    +0.000 A 
ATOM     39  C   UNL     1     -32.478  45.071 -14.876  0.00  0.00    +0.000 A 
ATOM     40  C   UNL     1     -35.016  43.950 -15.224  0.00  0.00    +0.000 A 
ATOM     41  C   UNL     1     -33.334  44.930 -13.788  0.00  0.00    +0.000 A 
ATOM     42  C   UNL     1     -34.600  44.371 -13.962  0.00  0.00    +0.000 A 
ENDBRANCH   2  37
TORSDOF 9
ENDMDL
