MODEL 1
REMARK VINA RESULT:      -6.7      0.000      0.000
REMARK  Name = 135403648_CalciumFolinate.pdbqt.pdb
REMARK  10 active torsions:
REMARK  status: ('A' for Active; 'I' for Inactive)
REMARK    1  A    between atoms: N_1  and  C_3
REMARK    2  A    between atoms: N_1  and  C_24
REMARK    3  A    between atoms: C_6  and  C_11
REMARK    4  A    between atoms: CA_13  and  C_15
REMARK    5  A    between atoms: CA_13  and  CB_18
REMARK    6  A    between atoms: C_15  and  O_16
REMARK    7  A    between atoms: CG_19  and  CD_21
REMARK    8  A    between atoms: CD_21  and  OE1_22
REMARK    9  A    between atoms: C_24  and  C_32
REMARK   10  A    between atoms: N_27  and  C_37
REMARK                            x       y       z     vdW  Elec       q    Type
REMARK                         _______ _______ _______ _____ _____    ______ ____
ROOT
ATOM      1  N   UNL     1     -37.301  45.684  -9.853  0.00  0.00    +0.000 N 
ATOM      2  H   UNL     1     -38.157  46.143  -9.545  0.00  0.00    +0.000 HD
ENDROOT
BRANCH   1   3
ATOM      3  C   UNL     1     -36.823  46.211 -11.072  0.00  0.00    +0.000 A 
ATOM      4  C   UNL     1     -37.669  47.014 -11.844  0.00  0.00    +0.000 A 
ATOM      5  C   UNL     1     -35.600  45.817 -11.626  0.00  0.00    +0.000 A 
ATOM      6  C   UNL     1     -36.036  47.107 -13.621  0.00  0.00    +0.000 A 
ATOM      7  C   UNL     1     -37.275  47.472 -13.101  0.00  0.00    +0.000 A 
ATOM      8  C   UNL     1     -35.199  46.271 -12.881  0.00  0.00    +0.000 A 
BRANCH   6  11
ATOM      9  O   UNL     1     -36.139  48.528 -15.471  0.00  0.00    +0.000 OA
ATOM     10  N   UNL     1     -34.516  46.876 -15.508  0.00  0.00    +0.000 N 
ATOM     11  C   ACE A   0     -35.572  47.573 -14.952  0.00  0.00    +0.000 C 
ATOM     12  H   UNL     1     -34.113  46.092 -15.000  0.00  0.00    +0.000 HD
ATOM     13  CA  UNL     1     -33.910  47.113 -16.729  0.00  0.00    +0.000 C 
BRANCH  13  15
ATOM     14  OXT UNL     1     -32.333  46.097 -18.209  0.00  0.00    +0.000 OA
ATOM     15  C   UNL     1     -32.794  46.203 -17.082  0.00  0.00    +0.000 C 
BRANCH  15  16
ATOM     16  O   UNL     1     -32.317  45.490 -16.051  0.00  0.00    +0.000 OA
ATOM     17  H   UNL     1     -31.486  45.942 -15.795  0.00  0.00    +0.000 HD
ENDBRANCH  15  16
ENDBRANCH  13  15
BRANCH  13  18
ATOM     18  CB  UNL     1     -34.326  48.162 -17.590  0.00  0.00    +0.000 C 
ATOM     19  CG  UNL     1     -34.763  49.298 -18.522  0.00  0.00    +0.000 C 
BRANCH  19  21
ATOM     20  OE2 UNL     1     -36.210  50.963 -19.295  0.00  0.00    +0.000 OA
ATOM     21  CD  UNL     1     -35.154  50.363 -19.394  0.00  0.00    +0.000 C 
BRANCH  21  22
ATOM     22  OE1 UNL     1     -34.258  50.638 -20.359  0.00  0.00    +0.000 OA
ATOM     23  HE1 UNL     1     -33.402  50.617 -19.885  0.00  0.00    +0.000 HD
ENDBRANCH  21  22
ENDBRANCH  19  21
ENDBRANCH  13  18
ENDBRANCH   6  11
ENDBRANCH   1   3
BRANCH   1  24
ATOM     24  C   UNL     1     -36.338  45.360  -8.807  0.00  0.00    +0.000 C 
BRANCH  24  31
ATOM     25  O   UNL     1     -35.628  42.046  -4.784  0.00  0.00    +0.000 OA
ATOM     26  N   UNL     1     -35.498  44.028  -6.906  0.00  0.00    +0.000 N 
ATOM     27  N   UNL     1     -33.101  45.677  -6.691  0.00  0.00    +0.000 N 
ATOM     28  N   UNL     1     -32.493  44.533  -4.721  0.00  0.00    +0.000 NA
ATOM     29  N   UNL     1     -33.669  42.704  -3.931  0.00  0.00    +0.000 N 
ATOM     30  N   UNL     1     -31.769  43.421  -2.846  0.00  0.00    +0.000 N 
ATOM     31  C   UNL     1     -35.380  45.092  -7.793  0.00  0.00    +0.000 C 
ATOM     32  C   UNL     1     -34.209  45.836  -7.580  0.00  0.00    +0.000 C 
ATOM     33  C   UNL     1     -34.509  43.870  -5.896  0.00  0.00    +0.000 A 
ATOM     34  C   UNL     1     -33.388  44.660  -5.761  0.00  0.00    +0.000 A 
ATOM     35  C   UNL     1     -34.665  42.803  -4.853  0.00  0.00    +0.000 A 
ATOM     36  C   UNL     1     -32.646  43.583  -3.864  0.00  0.00    +0.000 A 
ATOM     37  H   UNL     1     -32.645  46.462  -6.235  0.00  0.00    +0.000 HD
ATOM     38  H   UNL     1     -33.804  42.017  -3.206  0.00  0.00    +0.000 HD
ATOM     39  H   UNL     1     -30.925  43.972  -2.976  0.00  0.00    +0.000 HD
ATOM     40  H   UNL     1     -31.571  42.471  -2.559  0.00  0.00    +0.000 HD
BRANCH  26  42
ATOM     41  O   UNL     1     -37.499  42.512  -7.179  0.00  0.00    +0.000 OA
ATOM     42  C   UNL     1     -36.566  43.209  -7.014  0.00  0.00    +0.000 C 
ENDBRANCH  26  42
ENDBRANCH  24  31
ENDBRANCH   1  24
TORSDOF 10
ENDMDL
MODEL 2
REMARK VINA RESULT:      -6.6      8.954     14.812
REMARK  Name = 135403648_CalciumFolinate.pdbqt.pdb
REMARK  10 active torsions:
REMARK  status: ('A' for Active; 'I' for Inactive)
REMARK    1  A    between atoms: N_1  and  C_3
REMARK    2  A    between atoms: N_1  and  C_24
REMARK    3  A    between atoms: C_6  and  C_11
REMARK    4  A    between atoms: CA_13  and  C_15
REMARK    5  A    between atoms: CA_13  and  CB_18
REMARK    6  A    between atoms: C_15  and  O_16
REMARK    7  A    between atoms: CG_19  and  CD_21
REMARK    8  A    between atoms: CD_21  and  OE1_22
REMARK    9  A    between atoms: C_24  and  C_32
REMARK   10  A    between atoms: N_27  and  C_37
REMARK                            x       y       z     vdW  Elec       q    Type
REMARK                         _______ _______ _______ _____ _____    ______ ____
ROOT
ATOM      1  N   UNL     1     -37.195  52.328 -23.915  0.00  0.00    +0.000 N 
ATOM      2  H   UNL     1     -37.928  51.858 -24.445  0.00  0.00    +0.000 HD
ENDROOT
BRANCH   1   3
ATOM      3  C   UNL     1     -37.430  53.714 -23.796  0.00  0.00    +0.000 A 
ATOM      4  C   UNL     1     -37.833  54.233 -22.562  0.00  0.00    +0.000 A 
ATOM      5  C   UNL     1     -37.449  54.565 -24.907  0.00  0.00    +0.000 A 
ATOM      6  C   UNL     1     -38.146  56.423 -23.530  0.00  0.00    +0.000 A 
ATOM      7  C   UNL     1     -38.174  55.578 -22.424  0.00  0.00    +0.000 A 
ATOM      8  C   UNL     1     -37.787  55.910 -24.777  0.00  0.00    +0.000 A 
BRANCH   6  11
ATOM      9  O   UNL     1     -38.068  58.631 -24.285  0.00  0.00    +0.000 OA
ATOM     10  N   UNL     1     -39.290  58.224 -22.360  0.00  0.00    +0.000 N 
ATOM     11  C   ACE A   0     -38.496  57.862 -23.431  0.00  0.00    +0.000 C 
ATOM     12  H   UNL     1     -39.592  57.512 -21.699  0.00  0.00    +0.000 HD
ATOM     13  CA  UNL     1     -39.746  59.493 -22.050  0.00  0.00    +0.000 C 
BRANCH  13  15
ATOM     14  OXT UNL     1     -41.271  58.685 -20.397  0.00  0.00    +0.000 OA
ATOM     15  C   UNL     1     -40.585  59.598 -20.832  0.00  0.00    +0.000 C 
BRANCH  15  16
ATOM     16  O   UNL     1     -40.531  60.795 -20.227  0.00  0.00    +0.000 OA
ATOM     17  H   UNL     1     -41.250  61.317 -20.641  0.00  0.00    +0.000 HD
ENDBRANCH  15  16
ENDBRANCH  13  15
BRANCH  13  18
ATOM     18  CB  UNL     1     -39.434  60.626 -22.847  0.00  0.00    +0.000 C 
ATOM     19  CG  UNL     1     -39.085  61.847 -23.706  0.00  0.00    +0.000 C 
BRANCH  19  21
ATOM     20  OE2 UNL     1     -39.547  63.823 -24.866  0.00  0.00    +0.000 OA
ATOM     21  CD  UNL     1     -38.741  62.982 -24.508  0.00  0.00    +0.000 C 
BRANCH  21  22
ATOM     22  OE1 UNL     1     -37.443  63.034 -24.856  0.00  0.00    +0.000 OA
ATOM     23  HE1 UNL     1     -37.267  62.137 -25.205  0.00  0.00    +0.000 HD
ENDBRANCH  21  22
ENDBRANCH  19  21
ENDBRANCH  13  18
ENDBRANCH   6  11
ENDBRANCH   1   3
BRANCH   1  24
ATOM     24  C   UNL     1     -36.681  51.604 -22.759  0.00  0.00    +0.000 C 
BRANCH  24  31
ATOM     25  O   UNL     1     -38.014  50.793 -17.734  0.00  0.00    +0.000 OA
ATOM     26  N   UNL     1     -36.878  50.872 -20.409  0.00  0.00    +0.000 N 
ATOM     27  N   UNL     1     -34.310  49.492 -20.527  0.00  0.00    +0.000 N 
ATOM     28  N   UNL     1     -34.439  49.058 -18.213  0.00  0.00    +0.000 NA
ATOM     29  N   UNL     1     -36.306  49.580 -16.951  0.00  0.00    +0.000 N 
ATOM     30  N   UNL     1     -34.514  48.507 -15.984  0.00  0.00    +0.000 N 
ATOM     31  C   UNL     1     -36.175  50.944 -21.607  0.00  0.00    +0.000 C 
ATOM     32  C   UNL     1     -34.943  50.275 -21.542  0.00  0.00    +0.000 C 
ATOM     33  C   UNL     1     -36.267  50.228 -19.298  0.00  0.00    +0.000 A 
ATOM     34  C   UNL     1     -35.041  49.600 -19.329  0.00  0.00    +0.000 A 
ATOM     35  C   UNL     1     -36.946  50.232 -17.960  0.00  0.00    +0.000 A 
ATOM     36  C   UNL     1     -35.071  49.054 -17.090  0.00  0.00    +0.000 A 
ATOM     37  H   UNL     1     -33.312  49.533 -20.344  0.00  0.00    +0.000 HD
ATOM     38  H   UNL     1     -36.745  49.628 -16.046  0.00  0.00    +0.000 HD
ATOM     39  H   UNL     1     -33.691  47.952 -16.204  0.00  0.00    +0.000 HD
ATOM     40  H   UNL     1     -35.138  48.038 -15.341  0.00  0.00    +0.000 HD
BRANCH  26  42
ATOM     41  O   UNL     1     -39.129  52.012 -20.306  0.00  0.00    +0.000 OA
ATOM     42  C   UNL     1     -38.096  51.450 -20.336  0.00  0.00    +0.000 C 
ENDBRANCH  26  42
ENDBRANCH  24  31
ENDBRANCH   1  24
TORSDOF 10
ENDMDL
MODEL 3
REMARK VINA RESULT:      -6.6     24.473     27.083
REMARK  Name = 135403648_CalciumFolinate.pdbqt.pdb
REMARK  10 active torsions:
REMARK  status: ('A' for Active; 'I' for Inactive)
REMARK    1  A    between atoms: N_1  and  C_3
REMARK    2  A    between atoms: N_1  and  C_24
REMARK    3  A    between atoms: C_6  and  C_11
REMARK    4  A    between atoms: CA_13  and  C_15
REMARK    5  A    between atoms: CA_13  and  CB_18
REMARK    6  A    between atoms: C_15  and  O_16
REMARK    7  A    between atoms: CG_19  and  CD_21
REMARK    8  A    between atoms: CD_21  and  OE1_22
REMARK    9  A    between atoms: C_24  and  C_32
REMARK   10  A    between atoms: N_27  and  C_37
REMARK                            x       y       z     vdW  Elec       q    Type
REMARK                         _______ _______ _______ _____ _____    ______ ____
ROOT
ATOM      1  N   UNL     1     -20.211  54.311 -32.555  0.00  0.00    +0.000 N 
ATOM      2  H   UNL     1     -20.054  55.170 -33.082  0.00  0.00    +0.000 HD
ENDROOT
BRANCH   1   3
ATOM      3  C   UNL     1     -19.664  54.377 -31.256  0.00  0.00    +0.000 A 
ATOM      4  C   UNL     1     -19.234  55.612 -30.760  0.00  0.00    +0.000 A 
ATOM      5  C   UNL     1     -19.369  53.228 -30.513  0.00  0.00    +0.000 A 
ATOM      6  C   UNL     1     -18.348  54.559 -28.775  0.00  0.00    +0.000 A 
ATOM      7  C   UNL     1     -18.596  55.707 -29.524  0.00  0.00    +0.000 A 
ATOM      8  C   UNL     1     -18.733  53.315 -29.277  0.00  0.00    +0.000 A 
BRANCH   6  11
ATOM      9  O   UNL     1     -17.396  53.556 -26.894  0.00  0.00    +0.000 OA
ATOM     10  N   UNL     1     -17.416  55.872 -26.950  0.00  0.00    +0.000 N 
ATOM     11  C   ACE A   0     -17.675  54.611 -27.453  0.00  0.00    +0.000 C 
ATOM     12  H   UNL     1     -17.691  56.690 -27.488  0.00  0.00    +0.000 HD
ATOM     13  CA  UNL     1     -16.807  56.181 -25.747  0.00  0.00    +0.000 C 
BRANCH  13  15
ATOM     14  OXT UNL     1     -16.432  58.475 -26.305  0.00  0.00    +0.000 OA
ATOM     15  C   UNL     1     -16.657  57.627 -25.453  0.00  0.00    +0.000 C 
BRANCH  15  16
ATOM     16  O   UNL     1     -16.791  57.942 -24.156  0.00  0.00    +0.000 OA
ATOM     17  H   UNL     1     -17.409  57.272 -23.797  0.00  0.00    +0.000 HD
ENDBRANCH  15  16
ENDBRANCH  13  15
BRANCH  13  18
ATOM     18  CB  UNL     1     -16.350  55.181 -24.849  0.00  0.00    +0.000 C 
ATOM     19  CG  UNL     1     -15.856  54.093 -23.888  0.00  0.00    +0.000 C 
BRANCH  19  21
ATOM     20  OE2 UNL     1     -15.168  51.923 -23.362  0.00  0.00    +0.000 OA
ATOM     21  CD  UNL     1     -15.392  53.066 -23.006  0.00  0.00    +0.000 C 
BRANCH  21  22
ATOM     22  OE1 UNL     1     -15.241  53.466 -21.731  0.00  0.00    +0.000 OA
ATOM     23  HE1 UNL     1     -14.517  52.897 -21.400  0.00  0.00    +0.000 HD
ENDBRANCH  21  22
ENDBRANCH  19  21
ENDBRANCH  13  18
ENDBRANCH   6  11
ENDBRANCH   1   3
BRANCH   1  24
ATOM     24  C   UNL     1     -21.515  53.684 -32.734  0.00  0.00    +0.000 C 
BRANCH  24  31
ATOM     25  O   UNL     1     -24.193  50.760 -36.191  0.00  0.00    +0.000 OA
ATOM     26  N   UNL     1     -23.133  52.260 -33.939  0.00  0.00    +0.000 N 
ATOM     27  N   UNL     1     -25.110  52.549 -31.813  0.00  0.00    +0.000 N 
ATOM     28  N   UNL     1     -26.695  51.408 -33.135  0.00  0.00    +0.000 NA
ATOM     29  N   UNL     1     -26.157  50.447 -35.170  0.00  0.00    +0.000 N 
ATOM     30  N   UNL     1     -28.281  50.231 -34.307  0.00  0.00    +0.000 N 
ATOM     31  C   UNL     1     -22.786  53.062 -32.857  0.00  0.00    +0.000 C 
ATOM     32  C   UNL     1     -23.821  53.157 -31.912  0.00  0.00    +0.000 C 
ATOM     33  C   UNL     1     -24.447  51.720 -33.994  0.00  0.00    +0.000 A 
ATOM     34  C   UNL     1     -25.403  51.874 -33.013  0.00  0.00    +0.000 A 
ATOM     35  C   UNL     1     -24.891  50.946 -35.200  0.00  0.00    +0.000 A 
ATOM     36  C   UNL     1     -27.026  50.720 -34.173  0.00  0.00    +0.000 A 
ATOM     37  H   UNL     1     -25.927  53.046 -31.472  0.00  0.00    +0.000 HD
ATOM     38  H   UNL     1     -26.464  49.969 -36.002  0.00  0.00    +0.000 HD
ATOM     39  H   UNL     1     -28.810  50.291 -33.442  0.00  0.00    +0.000 HD
ATOM     40  H   UNL     1     -28.375  49.330 -34.758  0.00  0.00    +0.000 HD
BRANCH  26  42
ATOM     41  O   UNL     1     -21.384  51.930 -35.730  0.00  0.00    +0.000 OA
ATOM     42  C   UNL     1     -22.220  52.057 -34.914  0.00  0.00    +0.000 C 
ENDBRANCH  26  42
ENDBRANCH  24  31
ENDBRANCH   1  24
TORSDOF 10
ENDMDL
MODEL 4
REMARK VINA RESULT:      -6.5      1.531      2.092
REMARK  Name = 135403648_CalciumFolinate.pdbqt.pdb
REMARK  10 active torsions:
REMARK  status: ('A' for Active; 'I' for Inactive)
REMARK    1  A    between atoms: N_1  and  C_3
REMARK    2  A    between atoms: N_1  and  C_24
REMARK    3  A    between atoms: C_6  and  C_11
REMARK    4  A    between atoms: CA_13  and  C_15
REMARK    5  A    between atoms: CA_13  and  CB_18
REMARK    6  A    between atoms: C_15  and  O_16
REMARK    7  A    between atoms: CG_19  and  CD_21
REMARK    8  A    between atoms: CD_21  and  OE1_22
REMARK    9  A    between atoms: C_24  and  C_32
REMARK   10  A    between atoms: N_27  and  C_37
REMARK                            x       y       z     vdW  Elec       q    Type
REMARK                         _______ _______ _______ _____ _____    ______ ____
ROOT
ATOM      1  N   UNL     1     -37.827  44.639  -9.792  0.00  0.00    +0.000 N 
ATOM      2  H   UNL     1     -38.728  45.049  -9.550  0.00  0.00    +0.000 HD
ENDROOT
BRANCH   1   3
ATOM      3  C   UNL     1     -37.239  45.270 -10.909  0.00  0.00    +0.000 A 
ATOM      4  C   UNL     1     -37.783  46.469 -11.379  0.00  0.00    +0.000 A 
ATOM      5  C   UNL     1     -36.245  44.651 -11.676  0.00  0.00    +0.000 A 
ATOM      6  C   UNL     1     -36.278  46.468 -13.267  0.00  0.00    +0.000 A 
ATOM      7  C   UNL     1     -37.298  47.073 -12.538  0.00  0.00    +0.000 A 
ATOM      8  C   UNL     1     -35.754  45.249 -12.835  0.00  0.00    +0.000 A 
BRANCH   6  11
ATOM      9  O   UNL     1     -36.308  48.035 -14.998  0.00  0.00    +0.000 OA
ATOM     10  N   UNL     1     -34.580  46.492 -15.011  0.00  0.00    +0.000 N 
ATOM     11  C   ACE A   0     -35.727  47.075 -14.505  0.00  0.00    +0.000 C 
ATOM     12  H   UNL     1     -34.173  45.692 -14.531  0.00  0.00    +0.000 HD
ATOM     13  CA  UNL     1     -33.882  46.870 -16.144  0.00  0.00    +0.000 C 
BRANCH  13  15
ATOM     14  OXT UNL     1     -32.064  45.405 -15.634  0.00  0.00    +0.000 OA
ATOM     15  C   UNL     1     -32.679  46.062 -16.460  0.00  0.00    +0.000 C 
BRANCH  15  16
ATOM     16  O   UNL     1     -32.310  46.106 -17.749  0.00  0.00    +0.000 OA
ATOM     17  H   UNL     1     -32.440  47.040 -18.016  0.00  0.00    +0.000 HD
ENDBRANCH  15  16
ENDBRANCH  13  15
BRANCH  13  18
ATOM     18  CB  UNL     1     -34.288  47.963 -16.955  0.00  0.00    +0.000 C 
ATOM     19  CG  UNL     1     -34.714  49.148 -17.829  0.00  0.00    +0.000 C 
BRANCH  19  21
ATOM     20  OE2 UNL     1     -36.082  50.943 -18.436  0.00  0.00    +0.000 OA
ATOM     21  CD  UNL     1     -35.095  50.260 -18.645  0.00  0.00    +0.000 C 
BRANCH  21  22
ATOM     22  OE1 UNL     1     -34.275  50.481 -19.688  0.00  0.00    +0.000 OA
ATOM     23  HE1 UNL     1     -33.428  50.086 -19.398  0.00  0.00    +0.000 HD
ENDBRANCH  21  22
ENDBRANCH  19  21
ENDBRANCH  13  18
ENDBRANCH   6  11
ENDBRANCH   1   3
BRANCH   1  24
ATOM     24  C   UNL     1     -36.974  44.268  -8.669  0.00  0.00    +0.000 C 
BRANCH  24  31
ATOM     25  O   UNL     1     -32.951  46.364  -6.004  0.00  0.00    +0.000 OA
ATOM     26  N   UNL     1     -35.182  44.833  -7.067  0.00  0.00    +0.000 N 
ATOM     27  N   UNL     1     -35.521  42.304  -5.654  0.00  0.00    +0.000 N 
ATOM     28  N   UNL     1     -33.630  42.791  -4.333  0.00  0.00    +0.000 NA
ATOM     29  N   UNL     1     -32.521  44.818  -4.447  0.00  0.00    +0.000 N 
ATOM     30  N   UNL     1     -31.857  43.213  -2.936  0.00  0.00    +0.000 N 
ATOM     31  C   UNL     1     -36.141  43.956  -7.562  0.00  0.00    +0.000 C 
ATOM     32  C   UNL     1     -36.197  42.760  -6.828  0.00  0.00    +0.000 C 
ATOM     33  C   UNL     1     -34.365  44.410  -5.983  0.00  0.00    +0.000 A 
ATOM     34  C   UNL     1     -34.492  43.206  -5.326  0.00  0.00    +0.000 A 
ATOM     35  C   UNL     1     -33.246  45.285  -5.499  0.00  0.00    +0.000 A 
ATOM     36  C   UNL     1     -32.702  43.586  -3.925  0.00  0.00    +0.000 A 
ATOM     37  H   UNL     1     -35.209  41.345  -5.538  0.00  0.00    +0.000 HD
ATOM     38  H   UNL     1     -31.742  45.388  -4.159  0.00  0.00    +0.000 HD
ATOM     39  H   UNL     1     -32.176  42.377  -2.453  0.00  0.00    +0.000 HD
ATOM     40  H   UNL     1     -31.551  43.936  -2.298  0.00  0.00    +0.000 HD
BRANCH  26  42
ATOM     41  O   UNL     1     -34.954  47.114  -8.128  0.00  0.00    +0.000 OA
ATOM     42  C   UNL     1     -35.037  46.038  -7.662  0.00  0.00    +0.000 C 
ENDBRANCH  26  42
ENDBRANCH  24  31
ENDBRANCH   1  24
TORSDOF 10
ENDMDL
MODEL 5
REMARK VINA RESULT:      -6.4     23.288     25.623
REMARK  Name = 135403648_CalciumFolinate.pdbqt.pdb
REMARK  10 active torsions:
REMARK  status: ('A' for Active; 'I' for Inactive)
REMARK    1  A    between atoms: N_1  and  C_3
REMARK    2  A    between atoms: N_1  and  C_24
REMARK    3  A    between atoms: C_6  and  C_11
REMARK    4  A    between atoms: CA_13  and  C_15
REMARK    5  A    between atoms: CA_13  and  CB_18
REMARK    6  A    between atoms: C_15  and  O_16
REMARK    7  A    between atoms: CG_19  and  CD_21
REMARK    8  A    between atoms: CD_21  and  OE1_22
REMARK    9  A    between atoms: C_24  and  C_32
REMARK   10  A    between atoms: N_27  and  C_37
REMARK                            x       y       z     vdW  Elec       q    Type
REMARK                         _______ _______ _______ _____ _____    ______ ____
ROOT
ATOM      1  N   UNL     1     -17.272  54.761 -30.548  0.00  0.00    +0.000 N 
ATOM      2  H   UNL     1     -16.553  54.416 -31.183  0.00  0.00    +0.000 HD
ENDROOT
BRANCH   1   3
ATOM      3  C   UNL     1     -18.573  54.537 -31.046  0.00  0.00    +0.000 A 
ATOM      4  C   UNL     1     -19.066  53.230 -31.101  0.00  0.00    +0.000 A 
ATOM      5  C   UNL     1     -19.322  55.551 -31.654  0.00  0.00    +0.000 A 
ATOM      6  C   UNL     1     -21.059  53.978 -32.241  0.00  0.00    +0.000 A 
ATOM      7  C   UNL     1     -20.305  52.952 -31.678  0.00  0.00    +0.000 A 
ATOM      8  C   UNL     1     -20.561  55.282 -32.232  0.00  0.00    +0.000 A 
BRANCH   6  11
ATOM      9  O   UNL     1     -22.636  54.261 -33.939  0.00  0.00    +0.000 OA
ATOM     10  N   UNL     1     -23.244  52.911 -32.158  0.00  0.00    +0.000 N 
ATOM     11  C   ACE A   0     -22.384  53.732 -32.862  0.00  0.00    +0.000 C 
ATOM     12  H   UNL     1     -22.946  52.521 -31.268  0.00  0.00    +0.000 HD
ATOM     13  CA  UNL     1     -24.525  52.535 -32.523  0.00  0.00    +0.000 C 
BRANCH  13  15
ATOM     14  OXT UNL     1     -25.929  50.699 -31.915  0.00  0.00    +0.000 OA
ATOM     15  C   UNL     1     -25.231  51.642 -31.572  0.00  0.00    +0.000 C 
BRANCH  15  16
ATOM     16  O   UNL     1     -25.041  51.953 -30.281  0.00  0.00    +0.000 OA
ATOM     17  H   UNL     1     -25.912  52.277 -29.970  0.00  0.00    +0.000 HD
ENDBRANCH  15  16
ENDBRANCH  13  15
BRANCH  13  18
ATOM     18  CB  UNL     1     -25.128  52.973 -33.732  0.00  0.00    +0.000 C 
ATOM     19  CG  UNL     1     -25.790  53.443 -35.032  0.00  0.00    +0.000 C 
BRANCH  19  21
ATOM     20  OE2 UNL     1     -27.457  53.396 -36.670  0.00  0.00    +0.000 OA
ATOM     21  CD  UNL     1     -26.426  53.880 -36.238  0.00  0.00    +0.000 C 
BRANCH  21  22
ATOM     22  OE1 UNL     1     -25.771  54.867 -36.876  0.00  0.00    +0.000 OA
ATOM     23  HE1 UNL     1     -26.356  55.642 -36.752  0.00  0.00    +0.000 HD
ENDBRANCH  21  22
ENDBRANCH  19  21
ENDBRANCH  13  18
ENDBRANCH   6  11
ENDBRANCH   1   3
BRANCH   1  24
ATOM     24  C   UNL     1     -17.021  54.550 -29.127  0.00  0.00    +0.000 C 
BRANCH  24  31
ATOM     25  O   UNL     1     -16.985  57.291 -24.636  0.00  0.00    +0.000 OA
ATOM     26  N   UNL     1     -16.919  55.339 -26.790  0.00  0.00    +0.000 N 
ATOM     27  N   UNL     1     -15.972  52.742 -25.858  0.00  0.00    +0.000 N 
ATOM     28  N   UNL     1     -15.644  53.638 -23.701  0.00  0.00    +0.000 NA
ATOM     29  N   UNL     1     -16.282  55.788 -23.137  0.00  0.00    +0.000 N 
ATOM     30  N   UNL     1     -15.376  54.391 -21.548  0.00  0.00    +0.000 N 
ATOM     31  C   UNL     1     -16.727  54.353 -27.752  0.00  0.00    +0.000 C 
ATOM     32  C   UNL     1     -16.240  53.158 -27.199  0.00  0.00    +0.000 C 
ATOM     33  C   UNL     1     -16.550  55.060 -25.444  0.00  0.00    +0.000 A 
ATOM     34  C   UNL     1     -16.071  53.849 -24.995  0.00  0.00    +0.000 A 
ATOM     35  C   UNL     1     -16.636  56.137 -24.404  0.00  0.00    +0.000 A 
ATOM     36  C   UNL     1     -15.765  54.579 -22.830  0.00  0.00    +0.000 A 
ATOM     37  H   UNL     1     -15.174  52.165 -25.611  0.00  0.00    +0.000 HD
ATOM     38  H   UNL     1     -16.297  56.529 -22.454  0.00  0.00    +0.000 HD
ATOM     39  H   UNL     1     -15.198  53.411 -21.342  0.00  0.00    +0.000 HD
ATOM     40  H   UNL     1     -15.926  54.844 -20.831  0.00  0.00    +0.000 HD
BRANCH  26  42
ATOM     41  O   UNL     1     -17.797  57.573 -27.573  0.00  0.00    +0.000 OA
ATOM     42  C   UNL     1     -17.411  56.536 -27.178  0.00  0.00    +0.000 C 
ENDBRANCH  26  42
ENDBRANCH  24  31
ENDBRANCH   1  24
TORSDOF 10
ENDMDL
MODEL 6
REMARK VINA RESULT:      -6.4      7.775     13.772
REMARK  Name = 135403648_CalciumFolinate.pdbqt.pdb
REMARK  10 active torsions:
REMARK  status: ('A' for Active; 'I' for Inactive)
REMARK    1  A    between atoms: N_1  and  C_3
REMARK    2  A    between atoms: N_1  and  C_24
REMARK    3  A    between atoms: C_6  and  C_11
REMARK    4  A    between atoms: CA_13  and  C_15
REMARK    5  A    between atoms: CA_13  and  CB_18
REMARK    6  A    between atoms: C_15  and  O_16
REMARK    7  A    between atoms: CG_19  and  CD_21
REMARK    8  A    between atoms: CD_21  and  OE1_22
REMARK    9  A    between atoms: C_24  and  C_32
REMARK   10  A    between atoms: N_27  and  C_37
REMARK                            x       y       z     vdW  Elec       q    Type
REMARK                         _______ _______ _______ _____ _____    ______ ____
ROOT
ATOM      1  N   UNL     1     -37.624  51.810 -22.093  0.00  0.00    +0.000 N 
ATOM      2  H   UNL     1     -38.353  51.293 -22.584  0.00  0.00    +0.000 HD
ENDROOT
BRANCH   1   3
ATOM      3  C   UNL     1     -37.812  53.205 -22.176  0.00  0.00    +0.000 A 
ATOM      4  C   UNL     1     -38.359  53.886 -21.084  0.00  0.00    +0.000 A 
ATOM      5  C   UNL     1     -37.640  53.910 -23.373  0.00  0.00    +0.000 A 
ATOM      6  C   UNL     1     -38.439  55.944 -22.344  0.00  0.00    +0.000 A 
ATOM      7  C   UNL     1     -38.656  55.246 -21.159  0.00  0.00    +0.000 A 
ATOM      8  C   UNL     1     -37.933  55.269 -23.456  0.00  0.00    +0.000 A 
BRANCH   6  11
ATOM      9  O   UNL     1     -38.319  57.994 -23.455  0.00  0.00    +0.000 OA
ATOM     10  N   UNL     1     -39.470  57.956 -21.445  0.00  0.00    +0.000 N 
ATOM     11  C   ACE A   0     -38.735  57.393 -22.471  0.00  0.00    +0.000 C 
ATOM     12  H   UNL     1     -39.767  57.375 -20.665  0.00  0.00    +0.000 HD
ATOM     13  CA  UNL     1     -39.869  59.277 -21.332  0.00  0.00    +0.000 C 
BRANCH  13  15
ATOM     14  OXT UNL     1     -40.332  59.271 -18.987  0.00  0.00    +0.000 OA
ATOM     15  C   UNL     1     -40.650  59.612 -20.117  0.00  0.00    +0.000 C 
BRANCH  15  16
ATOM     16  O   UNL     1     -41.755  60.335 -20.355  0.00  0.00    +0.000 OA
ATOM     17  H   UNL     1     -41.591  60.768 -21.218  0.00  0.00    +0.000 HD
ENDBRANCH  15  16
ENDBRANCH  13  15
BRANCH  13  18
ATOM     18  CB  UNL     1     -39.553  60.251 -22.315  0.00  0.00    +0.000 C 
ATOM     19  CG  UNL     1     -39.213  61.311 -23.368  0.00  0.00    +0.000 C 
BRANCH  19  21
ATOM     20  OE2 UNL     1     -38.075  63.197 -24.152  0.00  0.00    +0.000 OA
ATOM     21  CD  UNL     1     -38.895  62.315 -24.338  0.00  0.00    +0.000 C 
BRANCH  21  22
ATOM     22  OE1 UNL     1     -39.599  62.216 -25.480  0.00  0.00    +0.000 OA
ATOM     23  HE1 UNL     1     -39.182  61.458 -25.938  0.00  0.00    +0.000 HD
ENDBRANCH  21  22
ENDBRANCH  19  21
ENDBRANCH  13  18
ENDBRANCH   6  11
ENDBRANCH   1   3
BRANCH   1  24
ATOM     24  C   UNL     1     -37.182  51.238 -20.826  0.00  0.00    +0.000 C 
BRANCH  24  31
ATOM     25  O   UNL     1     -33.514  47.893 -19.083  0.00  0.00    +0.000 OA
ATOM     26  N   UNL     1     -35.648  49.821 -19.509  0.00  0.00    +0.000 N 
ATOM     27  N   UNL     1     -37.113  50.365 -17.046  0.00  0.00    +0.000 N 
ATOM     28  N   UNL     1     -35.776  48.792 -15.906  0.00  0.00    +0.000 NA
ATOM     29  N   UNL     1     -33.971  47.740 -16.900  0.00  0.00    +0.000 N 
ATOM     30  N   UNL     1     -34.471  47.347 -14.687  0.00  0.00    +0.000 N 
ATOM     31  C   UNL     1     -36.770  50.636 -19.607  0.00  0.00    +0.000 C 
ATOM     32  C   UNL     1     -37.416  50.804 -18.372  0.00  0.00    +0.000 C 
ATOM     33  C   UNL     1     -35.344  49.227 -18.253  0.00  0.00    +0.000 A 
ATOM     34  C   UNL     1     -36.046  49.449 -17.088  0.00  0.00    +0.000 A 
ATOM     35  C   UNL     1     -34.209  48.253 -18.138  0.00  0.00    +0.000 A 
ATOM     36  C   UNL     1     -34.772  47.987 -15.841  0.00  0.00    +0.000 A 
ATOM     37  H   UNL     1     -37.826  50.055 -16.393  0.00  0.00    +0.000 HD
ATOM     38  H   UNL     1     -33.238  47.052 -16.840  0.00  0.00    +0.000 HD
ATOM     39  H   UNL     1     -34.974  47.733 -13.893  0.00  0.00    +0.000 HD
ATOM     40  H   UNL     1     -33.491  47.197 -14.489  0.00  0.00    +0.000 HD
BRANCH  26  42
ATOM     41  O   UNL     1     -34.282  49.466 -21.603  0.00  0.00    +0.000 OA
ATOM     42  C   UNL     1     -34.912  49.594 -20.619  0.00  0.00    +0.000 C 
ENDBRANCH  26  42
ENDBRANCH  24  31
ENDBRANCH   1  24
TORSDOF 10
ENDMDL
MODEL 7
REMARK VINA RESULT:      -6.4     23.243     25.556
REMARK  Name = 135403648_CalciumFolinate.pdbqt.pdb
REMARK  10 active torsions:
REMARK  status: ('A' for Active; 'I' for Inactive)
REMARK    1  A    between atoms: N_1  and  C_3
REMARK    2  A    between atoms: N_1  and  C_24
REMARK    3  A    between atoms: C_6  and  C_11
REMARK    4  A    between atoms: CA_13  and  C_15
REMARK    5  A    between atoms: CA_13  and  CB_18
REMARK    6  A    between atoms: C_15  and  O_16
REMARK    7  A    between atoms: CG_19  and  CD_21
REMARK    8  A    between atoms: CD_21  and  OE1_22
REMARK    9  A    between atoms: C_24  and  C_32
REMARK   10  A    between atoms: N_27  and  C_37
REMARK                            x       y       z     vdW  Elec       q    Type
REMARK                         _______ _______ _______ _____ _____    ______ ____
ROOT
ATOM      1  N   UNL     1     -17.253  54.809 -30.401  0.00  0.00    +0.000 N 
ATOM      2  H   UNL     1     -16.558  54.184 -30.806  0.00  0.00    +0.000 HD
ENDROOT
BRANCH   1   3
ATOM      3  C   UNL     1     -18.543  54.582 -30.926  0.00  0.00    +0.000 A 
ATOM      4  C   UNL     1     -19.053  53.280 -30.940  0.00  0.00    +0.000 A 
ATOM      5  C   UNL     1     -19.261  55.579 -31.598  0.00  0.00    +0.000 A 
ATOM      6  C   UNL     1     -21.003  54.006 -32.167  0.00  0.00    +0.000 A 
ATOM      7  C   UNL     1     -20.280  52.995 -31.539  0.00  0.00    +0.000 A 
ATOM      8  C   UNL     1     -20.487  55.302 -32.199  0.00  0.00    +0.000 A 
BRANCH   6  11
ATOM      9  O   UNL     1     -22.539  54.261 -33.906  0.00  0.00    +0.000 OA
ATOM     10  N   UNL     1     -23.192  52.943 -32.116  0.00  0.00    +0.000 N 
ATOM     11  C   ACE A   0     -22.314  53.751 -32.815  0.00  0.00    +0.000 C 
ATOM     12  H   UNL     1     -22.915  52.569 -31.212  0.00  0.00    +0.000 HD
ATOM     13  CA  UNL     1     -24.464  52.563 -32.505  0.00  0.00    +0.000 C 
BRANCH  13  15
ATOM     14  OXT UNL     1     -25.923  50.769 -31.899  0.00  0.00    +0.000 OA
ATOM     15  C   UNL     1     -25.194  51.688 -31.555  0.00  0.00    +0.000 C 
BRANCH  15  16
ATOM     16  O   UNL     1     -24.988  51.986 -30.263  0.00  0.00    +0.000 OA
ATOM     17  H   UNL     1     -25.472  51.294 -29.766  0.00  0.00    +0.000 HD
ENDBRANCH  15  16
ENDBRANCH  13  15
BRANCH  13  18
ATOM     18  CB  UNL     1     -25.038  52.981 -33.734  0.00  0.00    +0.000 C 
ATOM     19  CG  UNL     1     -25.664  53.441 -35.056  0.00  0.00    +0.000 C 
BRANCH  19  21
ATOM     20  OE2 UNL     1     -25.666  53.902 -37.347  0.00  0.00    +0.000 OA
ATOM     21  CD  UNL     1     -26.255  53.886 -36.281  0.00  0.00    +0.000 C 
BRANCH  21  22
ATOM     22  OE1 UNL     1     -27.525  54.310 -36.155  0.00  0.00    +0.000 OA
ATOM     23  HE1 UNL     1     -28.028  53.689 -36.719  0.00  0.00    +0.000 HD
ENDBRANCH  21  22
ENDBRANCH  19  21
ENDBRANCH  13  18
ENDBRANCH   6  11
ENDBRANCH   1   3
BRANCH   1  24
ATOM     24  C   UNL     1     -17.116  55.076 -28.975  0.00  0.00    +0.000 C 
BRANCH  24  31
ATOM     25  O   UNL     1     -15.530  52.544 -24.645  0.00  0.00    +0.000 OA
ATOM     26  N   UNL     1     -16.391  54.393 -26.716  0.00  0.00    +0.000 N 
ATOM     27  N   UNL     1     -17.051  57.012 -25.612  0.00  0.00    +0.000 N 
ATOM     28  N   UNL     1     -16.595  56.210 -23.442  0.00  0.00    +0.000 NA
ATOM     29  N   UNL     1     -15.731  54.100 -23.051  0.00  0.00    +0.000 N 
ATOM     30  N   UNL     1     -16.089  55.551 -21.300  0.00  0.00    +0.000 N 
ATOM     31  C   UNL     1     -16.931  55.331 -27.590  0.00  0.00    +0.000 C 
ATOM     32  C   UNL     1     -17.241  56.540 -26.948  0.00  0.00    +0.000 C 
ATOM     33  C   UNL     1     -16.289  54.726 -25.337  0.00  0.00    +0.000 A 
ATOM     34  C   UNL     1     -16.626  55.947 -24.795  0.00  0.00    +0.000 A 
ATOM     35  C   UNL     1     -15.818  53.700 -24.349  0.00  0.00    +0.000 A 
ATOM     36  C   UNL     1     -16.153  55.311 -22.631  0.00  0.00    +0.000 A 
ATOM     37  H   UNL     1     -17.736  57.584 -25.129  0.00  0.00    +0.000 HD
ATOM     38  H   UNL     1     -15.459  53.392 -22.388  0.00  0.00    +0.000 HD
ATOM     39  H   UNL     1     -16.219  56.535 -21.082  0.00  0.00    +0.000 HD
ATOM     40  H   UNL     1     -15.312  55.141 -20.798  0.00  0.00    +0.000 HD
BRANCH  26  42
ATOM     41  O   UNL     1     -15.766  52.131 -27.648  0.00  0.00    +0.000 OA
ATOM     42  C   UNL     1     -16.020  53.190 -27.204  0.00  0.00    +0.000 C 
ENDBRANCH  26  42
ENDBRANCH  24  31
ENDBRANCH   1  24
TORSDOF 10
ENDMDL
MODEL 8
REMARK VINA RESULT:      -6.3     24.579     26.953
REMARK  Name = 135403648_CalciumFolinate.pdbqt.pdb
REMARK  10 active torsions:
REMARK  status: ('A' for Active; 'I' for Inactive)
REMARK    1  A    between atoms: N_1  and  C_3
REMARK    2  A    between atoms: N_1  and  C_24
REMARK    3  A    between atoms: C_6  and  C_11
REMARK    4  A    between atoms: CA_13  and  C_15
REMARK    5  A    between atoms: CA_13  and  CB_18
REMARK    6  A    between atoms: C_15  and  O_16
REMARK    7  A    between atoms: CG_19  and  CD_21
REMARK    8  A    between atoms: CD_21  and  OE1_22
REMARK    9  A    between atoms: C_24  and  C_32
REMARK   10  A    between atoms: N_27  and  C_37
REMARK                            x       y       z     vdW  Elec       q    Type
REMARK                         _______ _______ _______ _____ _____    ______ ____
ROOT
ATOM      1  N   UNL     1     -20.379  54.408 -32.870  0.00  0.00    +0.000 N 
ATOM      2  H   UNL     1     -20.368  55.319 -33.327  0.00  0.00    +0.000 HD
ENDROOT
BRANCH   1   3
ATOM      3  C   UNL     1     -19.665  54.415 -31.653  0.00  0.00    +0.000 A 
ATOM      4  C   UNL     1     -19.532  53.223 -30.934  0.00  0.00    +0.000 A 
ATOM      5  C   UNL     1     -19.236  55.602 -31.048  0.00  0.00    +0.000 A 
ATOM      6  C   UNL     1     -18.462  54.388 -29.109  0.00  0.00    +0.000 A 
ATOM      7  C   UNL     1     -18.923  53.204 -29.680  0.00  0.00    +0.000 A 
ATOM      8  C   UNL     1     -18.625  55.591 -29.796  0.00  0.00    +0.000 A 
BRANCH   6  11
ATOM      9  O   UNL     1     -17.976  55.393 -27.058  0.00  0.00    +0.000 OA
ATOM     10  N   UNL     1     -17.031  53.316 -27.458  0.00  0.00    +0.000 N 
ATOM     11  C   ACE A   0     -17.803  54.416 -27.779  0.00  0.00    +0.000 C 
ATOM     12  H   UNL     1     -16.944  52.555 -28.127  0.00  0.00    +0.000 HD
ATOM     13  CA  UNL     1     -16.319  53.108 -26.289  0.00  0.00    +0.000 C 
BRANCH  13  15
ATOM     14  OXT UNL     1     -15.383  51.214 -25.172  0.00  0.00    +0.000 OA
ATOM     15  C   UNL     1     -15.567  51.832 -26.210  0.00  0.00    +0.000 C 
BRANCH  15  16
ATOM     16  O   UNL     1     -15.097  51.397 -27.389  0.00  0.00    +0.000 OA
ATOM     17  H   UNL     1     -15.710  50.681 -27.656  0.00  0.00    +0.000 HD
ENDBRANCH  15  16
ENDBRANCH  13  15
BRANCH  13  18
ATOM     18  CB  UNL     1     -16.309  54.054 -25.230  0.00  0.00    +0.000 C 
ATOM     19  CG  UNL     1     -16.298  55.083 -24.095  0.00  0.00    +0.000 C 
BRANCH  19  21
ATOM     20  OE2 UNL     1     -16.512  57.243 -23.226  0.00  0.00    +0.000 OA
ATOM     21  CD  UNL     1     -16.289  56.058 -23.047  0.00  0.00    +0.000 C 
BRANCH  21  22
ATOM     22  OE1 UNL     1     -15.990  55.558 -21.835  0.00  0.00    +0.000 OA
ATOM     23  HE1 UNL     1     -15.184  56.051 -21.580  0.00  0.00    +0.000 HD
ENDBRANCH  21  22
ENDBRANCH  19  21
ENDBRANCH  13  18
ENDBRANCH   6  11
ENDBRANCH   1   3
BRANCH   1  24
ATOM     24  C   UNL     1     -21.638  53.676 -32.937  0.00  0.00    +0.000 C 
BRANCH  24  31
ATOM     25  O   UNL     1     -24.388  50.587 -36.188  0.00  0.00    +0.000 OA
ATOM     26  N   UNL     1     -23.263  52.168 -34.024  0.00  0.00    +0.000 N 
ATOM     27  N   UNL     1     -25.124  52.413 -31.792  0.00  0.00    +0.000 N 
ATOM     28  N   UNL     1     -26.734  51.187 -33.002  0.00  0.00    +0.000 NA
ATOM     29  N   UNL     1     -26.275  50.213 -35.049  0.00  0.00    +0.000 N 
ATOM     30  N   UNL     1     -28.335  49.926 -34.062  0.00  0.00    +0.000 N 
ATOM     31  C   UNL     1     -22.888  53.002 -32.976  0.00  0.00    +0.000 C 
ATOM     32  C   UNL     1     -23.869  53.071 -31.974  0.00  0.00    +0.000 C 
ATOM     33  C   UNL     1     -24.555  51.574 -33.994  0.00  0.00    +0.000 A 
ATOM     34  C   UNL     1     -25.458  51.706 -32.962  0.00  0.00    +0.000 A 
ATOM     35  C   UNL     1     -25.035  50.762 -35.160  0.00  0.00    +0.000 A 
ATOM     36  C   UNL     1     -27.096  50.468 -34.008  0.00  0.00    +0.000 A 
ATOM     37  H   UNL     1     -25.940  52.882 -31.411  0.00  0.00    +0.000 HD
ATOM     38  H   UNL     1     -26.610  49.709 -35.855  0.00  0.00    +0.000 HD
ATOM     39  H   UNL     1     -28.816  49.980 -33.168  0.00  0.00    +0.000 HD
ATOM     40  H   UNL     1     -28.418  49.014 -34.492  0.00  0.00    +0.000 HD
BRANCH  26  42
ATOM     41  O   UNL     1     -21.678  51.885 -35.970  0.00  0.00    +0.000 OA
ATOM     42  C   UNL     1     -22.400  51.985 -35.048  0.00  0.00    +0.000 C 
ENDBRANCH  26  42
ENDBRANCH  24  31
ENDBRANCH   1  24
TORSDOF 10
ENDMDL
MODEL 9
REMARK VINA RESULT:      -6.3      7.588     11.606
REMARK  Name = 135403648_CalciumFolinate.pdbqt.pdb
REMARK  10 active torsions:
REMARK  status: ('A' for Active; 'I' for Inactive)
REMARK    1  A    between atoms: N_1  and  C_3
REMARK    2  A    between atoms: N_1  and  C_24
REMARK    3  A    between atoms: C_6  and  C_11
REMARK    4  A    between atoms: CA_13  and  C_15
REMARK    5  A    between atoms: CA_13  and  CB_18
REMARK    6  A    between atoms: C_15  and  O_16
REMARK    7  A    between atoms: CG_19  and  CD_21
REMARK    8  A    between atoms: CD_21  and  OE1_22
REMARK    9  A    between atoms: C_24  and  C_32
REMARK   10  A    between atoms: N_27  and  C_37
REMARK                            x       y       z     vdW  Elec       q    Type
REMARK                         _______ _______ _______ _____ _____    ______ ____
ROOT
ATOM      1  N   UNL     1     -39.204  51.238 -16.297  0.00  0.00    +0.000 N 
ATOM      2  H   UNL     1     -39.684  51.507 -15.438  0.00  0.00    +0.000 HD
ENDROOT
BRANCH   1   3
ATOM      3  C   UNL     1     -39.059  52.321 -17.188  0.00  0.00    +0.000 A 
ATOM      4  C   UNL     1     -39.045  53.624 -16.680  0.00  0.00    +0.000 A 
ATOM      5  C   UNL     1     -39.108  52.156 -18.577  0.00  0.00    +0.000 A 
ATOM      6  C   UNL     1     -39.011  54.546 -18.912  0.00  0.00    +0.000 A 
ATOM      7  C   UNL     1     -39.005  54.728 -17.531  0.00  0.00    +0.000 A 
ATOM      8  C   UNL     1     -39.068  53.253 -19.434  0.00  0.00    +0.000 A 
BRANCH   6  11
ATOM      9  O   UNL     1     -38.428  55.529 -20.948  0.00  0.00    +0.000 OA
ATOM     10  N   UNL     1     -39.544  56.865 -19.419  0.00  0.00    +0.000 N 
ATOM     11  C   ACE A   0     -38.965  55.689 -19.858  0.00  0.00    +0.000 C 
ATOM     12  H   UNL     1     -39.962  56.901 -18.493  0.00  0.00    +0.000 HD
ATOM     13  CA  UNL     1     -39.626  58.062 -20.109  0.00  0.00    +0.000 C 
BRANCH  13  15
ATOM     14  OXT UNL     1     -40.425  60.300 -19.852  0.00  0.00    +0.000 OA
ATOM     15  C   UNL     1     -40.301  59.173 -19.395  0.00  0.00    +0.000 C 
BRANCH  15  16
ATOM     16  O   UNL     1     -40.778  58.841 -18.186  0.00  0.00    +0.000 OA
ATOM     17  H   UNL     1     -40.245  59.366 -17.553  0.00  0.00    +0.000 HD
ENDBRANCH  15  16
ENDBRANCH  13  15
BRANCH  13  18
ATOM     18  CB  UNL     1     -39.100  58.220 -21.419  0.00  0.00    +0.000 C 
ATOM     19  CG  UNL     1     -38.534  58.402 -22.832  0.00  0.00    +0.000 C 
BRANCH  19  21
ATOM     20  OE2 UNL     1     -37.803  57.680 -24.931  0.00  0.00    +0.000 OA
ATOM     21  CD  UNL     1     -38.008  58.592 -24.149  0.00  0.00    +0.000 C 
BRANCH  21  22
ATOM     22  OE1 UNL     1     -37.734  59.873 -24.452  0.00  0.00    +0.000 OA
ATOM     23  HE1 UNL     1     -37.289  60.205 -23.646  0.00  0.00    +0.000 HD
ENDBRANCH  21  22
ENDBRANCH  19  21
ENDBRANCH  13  18
ENDBRANCH   6  11
ENDBRANCH   1   3
BRANCH   1  24
ATOM     24  C   UNL     1     -38.093  50.307 -16.140  0.00  0.00    +0.000 C 
BRANCH  24  31
ATOM     25  O   UNL     1     -34.358  48.158 -19.158  0.00  0.00    +0.000 OA
ATOM     26  N   UNL     1     -36.127  49.138 -17.070  0.00  0.00    +0.000 N 
ATOM     27  N   UNL     1     -35.478  47.971 -14.476  0.00  0.00    +0.000 N 
ATOM     28  N   UNL     1     -33.784  46.678 -15.484  0.00  0.00    +0.000 NA
ATOM     29  N   UNL     1     -33.195  46.914 -17.709  0.00  0.00    +0.000 N 
ATOM     30  N   UNL     1     -32.053  45.444 -16.354  0.00  0.00    +0.000 N 
ATOM     31  C   UNL     1     -36.979  49.435 -16.012  0.00  0.00    +0.000 C 
ATOM     32  C   UNL     1     -36.593  48.797 -14.823  0.00  0.00    +0.000 C 
ATOM     33  C   UNL     1     -35.066  48.215 -16.854  0.00  0.00    +0.000 A 
ATOM     34  C   UNL     1     -34.767  47.632 -15.642  0.00  0.00    +0.000 A 
ATOM     35  C   UNL     1     -34.199  47.785 -18.000  0.00  0.00    +0.000 A 
ATOM     36  C   UNL     1     -33.041  46.360 -16.487  0.00  0.00    +0.000 A 
ATOM     37  H   UNL     1     -35.560  47.169 -13.859  0.00  0.00    +0.000 HD
ATOM     38  H   UNL     1     -32.648  46.593 -18.491  0.00  0.00    +0.000 HD
ATOM     39  H   UNL     1     -31.858  45.229 -15.380  0.00  0.00    +0.000 HD
ATOM     40  H   UNL     1     -31.211  45.597 -16.894  0.00  0.00    +0.000 HD
BRANCH  26  42
ATOM     41  O   UNL     1     -36.548  50.140 -19.350  0.00  0.00    +0.000 OA
ATOM     42  C   UNL     1     -36.364  49.706 -18.273  0.00  0.00    +0.000 C 
ENDBRANCH  26  42
ENDBRANCH  24  31
ENDBRANCH   1  24
TORSDOF 10
ENDMDL
