MODEL 1
REMARK VINA RESULT:      -7.6      0.000      0.000
REMARK  Name = 14132199_RiccardinD.pdbqt.pdb
REMARK  3 active torsions:
REMARK  status: ('A' for Active; 'I' for Inactive)
REMARK    1  A    between atoms: C_11  and  O_30
REMARK    2  A    between atoms: C_16  and  O_32
REMARK    3  A    between atoms: C_28  and  O_34
REMARK                            x       y       z     vdW  Elec       q    Type
REMARK                         _______ _______ _______ _____ _____    ______ ____
ROOT
ATOM      1  O   UNL     1     -17.133  53.467   4.032  0.00  0.00    +0.000 OA
ATOM      2  C   UNL     1     -14.790  47.462   1.422  0.00  0.00    +0.000 C 
ATOM      3  C   UNL     1     -14.483  46.060   1.425  0.00  0.00    +0.000 A 
ATOM      4  C   UNL     1     -14.690  45.256   2.576  0.00  0.00    +0.000 A 
ATOM      5  C   UNL     1     -15.196  48.937   1.576  0.00  0.00    +0.000 C 
ATOM      6  C   UNL     1     -16.555  48.444   6.822  0.00  0.00    +0.000 C 
ATOM      7  C   UNL     1     -15.111  45.862   3.859  0.00  0.00    +0.000 A 
ATOM      8  C   UNL     1     -15.986  47.379   6.064  0.00  0.00    +0.000 A 
ATOM      9  C   UNL     1     -17.083  49.837   7.175  0.00  0.00    +0.000 C 
ATOM     10  C   UNL     1     -15.640  50.248   1.921  0.00  0.00    +0.000 A 
ATOM     11  C   UNL     1     -16.353  45.617   4.464  0.00  0.00    +0.000 A 
ATOM     12  C   UNL     1     -17.408  51.203   6.956  0.00  0.00    +0.000 A 
ATOM     13  C   UNL     1     -14.273  46.807   4.468  0.00  0.00    +0.000 A 
ATOM     14  C   UNL     1     -16.802  46.380   5.543  0.00  0.00    +0.000 A 
ATOM     15  C   UNL     1     -14.705  47.565   5.552  0.00  0.00    +0.000 A 
ATOM     16  C   UNL     1     -14.458  43.875   2.438  0.00  0.00    +0.000 A 
ATOM     17  C   UNL     1     -14.020  45.502   0.231  0.00  0.00    +0.000 A 
ATOM     18  C   UNL     1     -13.977  43.326   1.250  0.00  0.00    +0.000 A 
ATOM     19  C   UNL     1     -13.749  44.142   0.148  0.00  0.00    +0.000 A 
ATOM     20  C   UNL     1     -17.146  51.676   5.675  0.00  0.00    +0.000 A 
ATOM     21  C   UNL     1     -14.756  51.135   2.536  0.00  0.00    +0.000 A 
ATOM     22  C   UNL     1     -16.999  50.554   1.840  0.00  0.00    +0.000 A 
ATOM     23  C   UNL     1     -17.396  52.993   5.307  0.00  0.00    +0.000 A 
ATOM     24  C   UNL     1     -17.939  52.057   7.911  0.00  0.00    +0.000 A 
ATOM     25  C   UNL     1     -16.616  52.527   3.159  0.00  0.00    +0.000 A 
ATOM     26  C   UNL     1     -15.241  52.288   3.150  0.00  0.00    +0.000 A 
ATOM     27  C   UNL     1     -17.493  51.704   2.451  0.00  0.00    +0.000 A 
ATOM     28  C   UNL     1     -17.929  53.848   6.265  0.00  0.00    +0.000 A 
ATOM     29  C   UNL     1     -18.200  53.387   7.558  0.00  0.00    +0.000 A 
ENDROOT
BRANCH  11  30
ATOM     30  O   UNL     1     -17.153  44.618   3.974  0.00  0.00    +0.000 OA
ATOM     31  H   UNL     1     -18.068  44.956   3.930  0.00  0.00    +0.000 HD
ENDBRANCH  11  30
BRANCH  16  32
ATOM     32  O   UNL     1     -14.708  42.987   3.451  0.00  0.00    +0.000 OA
ATOM     33  H   UNL     1     -14.226  42.168   3.232  0.00  0.00    +0.000 HD
ENDBRANCH  16  32
BRANCH  28  34
ATOM     34  O   UNL     1     -18.202  55.155   5.977  0.00  0.00    +0.000 OA
ATOM     35  H   UNL     1     -19.099  55.344   6.307  0.00  0.00    +0.000 HD
ENDBRANCH  28  34
TORSDOF 3
ENDMDL
MODEL 2
REMARK VINA RESULT:      -7.6      2.037      7.340
REMARK  Name = 14132199_RiccardinD.pdbqt.pdb
REMARK  3 active torsions:
REMARK  status: ('A' for Active; 'I' for Inactive)
REMARK    1  A    between atoms: C_11  and  O_30
REMARK    2  A    between atoms: C_16  and  O_32
REMARK    3  A    between atoms: C_28  and  O_34
REMARK                            x       y       z     vdW  Elec       q    Type
REMARK                         _______ _______ _______ _____ _____    ______ ____
ROOT
ATOM      1  O   UNL     1     -15.843  45.001   3.989  0.00  0.00    +0.000 OA
ATOM      2  C   UNL     1     -14.959  51.390   1.388  0.00  0.00    +0.000 C 
ATOM      3  C   UNL     1     -14.894  52.823   1.420  0.00  0.00    +0.000 A 
ATOM      4  C   UNL     1     -15.176  53.554   2.603  0.00  0.00    +0.000 A 
ATOM      5  C   UNL     1     -15.046  49.862   1.529  0.00  0.00    +0.000 C 
ATOM      6  C   UNL     1     -16.709  50.022   6.708  0.00  0.00    +0.000 C 
ATOM      7  C   UNL     1     -15.674  52.869   3.817  0.00  0.00    +0.000 A 
ATOM      8  C   UNL     1     -16.515  51.193   5.919  0.00  0.00    +0.000 A 
ATOM      9  C   UNL     1     -16.789  48.542   7.092  0.00  0.00    +0.000 C 
ATOM     10  C   UNL     1     -15.171  48.483   1.873  0.00  0.00    +0.000 A 
ATOM     11  C   UNL     1     -14.948  52.784   5.015  0.00  0.00    +0.000 A 
ATOM     12  C   UNL     1     -16.713  47.137   6.894  0.00  0.00    +0.000 A 
ATOM     13  C   UNL     1     -16.895  52.182   3.754  0.00  0.00    +0.000 A 
ATOM     14  C   UNL     1     -15.347  51.938   6.052  0.00  0.00    +0.000 A 
ATOM     15  C   UNL     1     -17.310  51.346   4.786  0.00  0.00    +0.000 A 
ATOM     16  C   UNL     1     -14.978  54.946   2.555  0.00  0.00    +0.000 A 
ATOM     17  C   UNL     1     -14.489  53.474   0.252  0.00  0.00    +0.000 A 
ATOM     18  C   UNL     1     -14.593  55.593   1.381  0.00  0.00    +0.000 A 
ATOM     19  C   UNL     1     -14.357  54.857   0.226  0.00  0.00    +0.000 A 
ATOM     20  C   UNL     1     -16.330  46.739   5.617  0.00  0.00    +0.000 A 
ATOM     21  C   UNL     1     -16.419  47.864   1.798  0.00  0.00    +0.000 A 
ATOM     22  C   UNL     1     -14.099  47.830   2.483  0.00  0.00    +0.000 A 
ATOM     23  C   UNL     1     -16.221  45.400   5.261  0.00  0.00    +0.000 A 
ATOM     24  C   UNL     1     -16.998  46.181   7.857  0.00  0.00    +0.000 A 
ATOM     25  C   UNL     1     -15.571  46.037   3.114  0.00  0.00    +0.000 A 
ATOM     26  C   UNL     1     -16.622  46.629   2.410  0.00  0.00    +0.000 A 
ATOM     27  C   UNL     1     -14.293  46.595   3.098  0.00  0.00    +0.000 A 
ATOM     28  C   UNL     1     -16.508  44.443   6.227  0.00  0.00    +0.000 A 
ATOM     29  C   UNL     1     -16.893  44.826   7.517  0.00  0.00    +0.000 A 
ENDROOT
BRANCH  11  30
ATOM     30  O   UNL     1     -13.812  53.534   5.166  0.00  0.00    +0.000 OA
ATOM     31  H   UNL     1     -13.917  54.087   5.963  0.00  0.00    +0.000 HD
ENDBRANCH  11  30
BRANCH  16  32
ATOM     32  O   UNL     1     -15.131  55.745   3.657  0.00  0.00    +0.000 OA
ATOM     33  H   UNL     1     -14.323  56.289   3.725  0.00  0.00    +0.000 HD
ENDBRANCH  16  32
BRANCH  28  34
ATOM     34  O   UNL     1     -16.423  43.107   5.951  0.00  0.00    +0.000 OA
ATOM     35  H   UNL     1     -15.493  42.845   6.073  0.00  0.00    +0.000 HD
ENDBRANCH  28  34
TORSDOF 3
ENDMDL
MODEL 3
REMARK VINA RESULT:      -7.5     30.783     33.561
REMARK  Name = 14132199_RiccardinD.pdbqt.pdb
REMARK  3 active torsions:
REMARK  status: ('A' for Active; 'I' for Inactive)
REMARK    1  A    between atoms: C_11  and  O_30
REMARK    2  A    between atoms: C_16  and  O_32
REMARK    3  A    between atoms: C_28  and  O_34
REMARK                            x       y       z     vdW  Elec       q    Type
REMARK                         _______ _______ _______ _____ _____    ______ ____
ROOT
ATOM      1  O   UNL     1     -15.605  51.633 -25.467  0.00  0.00    +0.000 OA
ATOM      2  C   UNL     1     -17.649  54.818 -31.301  0.00  0.00    +0.000 C 
ATOM      3  C   UNL     1     -18.023  55.929 -32.128  0.00  0.00    +0.000 A 
ATOM      4  C   UNL     1     -18.110  57.247 -31.608  0.00  0.00    +0.000 A 
ATOM      5  C   UNL     1     -17.209  53.747 -30.291  0.00  0.00    +0.000 C 
ATOM      6  C   UNL     1     -17.030  57.195 -26.086  0.00  0.00    +0.000 C 
ATOM      7  C   UNL     1     -17.941  57.504 -30.161  0.00  0.00    +0.000 A 
ATOM      8  C   UNL     1     -17.479  57.577 -27.384  0.00  0.00    +0.000 A 
ATOM      9  C   UNL     1     -16.517  56.319 -24.940  0.00  0.00    +0.000 C 
ATOM     10  C   UNL     1     -16.780  52.920 -29.210  0.00  0.00    +0.000 A 
ATOM     11  C   UNL     1     -16.872  58.234 -29.620  0.00  0.00    +0.000 A 
ATOM     12  C   UNL     1     -16.081  55.124 -24.306  0.00  0.00    +0.000 A 
ATOM     13  C   UNL     1     -18.839  56.914 -29.260  0.00  0.00    +0.000 A 
ATOM     14  C   UNL     1     -16.624  58.256 -28.246  0.00  0.00    +0.000 A 
ATOM     15  C   UNL     1     -18.609  56.939 -27.887  0.00  0.00    +0.000 A 
ATOM     16  C   UNL     1     -18.379  58.278 -32.527  0.00  0.00    +0.000 A 
ATOM     17  C   UNL     1     -18.249  55.674 -33.483  0.00  0.00    +0.000 A 
ATOM     18  C   UNL     1     -18.623  58.015 -33.875  0.00  0.00    +0.000 A 
ATOM     19  C   UNL     1     -18.567  56.711 -34.351  0.00  0.00    +0.000 A 
ATOM     20  C   UNL     1     -16.038  54.001 -25.126  0.00  0.00    +0.000 A 
ATOM     21  C   UNL     1     -17.727  52.372 -28.343  0.00  0.00    +0.000 A 
ATOM     22  C   UNL     1     -15.421  52.843 -28.904  0.00  0.00    +0.000 A 
ATOM     23  C   UNL     1     -15.646  52.754 -24.653  0.00  0.00    +0.000 A 
ATOM     24  C   UNL     1     -15.722  55.017 -22.971  0.00  0.00    +0.000 A 
ATOM     25  C   UNL     1     -15.972  51.858 -26.781  0.00  0.00    +0.000 A 
ATOM     26  C   UNL     1     -17.324  51.827 -27.126  0.00  0.00    +0.000 A 
ATOM     27  C   UNL     1     -15.009  52.300 -27.688  0.00  0.00    +0.000 A 
ATOM     28  C   UNL     1     -15.286  52.648 -23.314  0.00  0.00    +0.000 A 
ATOM     29  C   UNL     1     -15.322  53.769 -22.477  0.00  0.00    +0.000 A 
ENDROOT
BRANCH  11  30
ATOM     30  O   UNL     1     -16.040  58.927 -30.459  0.00  0.00    +0.000 OA
ATOM     31  H   UNL     1     -16.265  59.875 -30.395  0.00  0.00    +0.000 HD
ENDBRANCH  11  30
BRANCH  16  32
ATOM     32  O   UNL     1     -18.398  59.598 -32.161  0.00  0.00    +0.000 OA
ATOM     33  H   UNL     1     -17.529  59.791 -31.762  0.00  0.00    +0.000 HD
ENDBRANCH  16  32
BRANCH  28  34
ATOM     34  O   UNL     1     -14.889  51.456 -22.777  0.00  0.00    +0.000 OA
ATOM     35  H   UNL     1     -14.467  51.650 -21.921  0.00  0.00    +0.000 HD
ENDBRANCH  28  34
TORSDOF 3
ENDMDL
MODEL 4
REMARK VINA RESULT:      -7.4      2.276      4.830
REMARK  Name = 14132199_RiccardinD.pdbqt.pdb
REMARK  3 active torsions:
REMARK  status: ('A' for Active; 'I' for Inactive)
REMARK    1  A    between atoms: C_11  and  O_30
REMARK    2  A    between atoms: C_16  and  O_32
REMARK    3  A    between atoms: C_28  and  O_34
REMARK                            x       y       z     vdW  Elec       q    Type
REMARK                         _______ _______ _______ _____ _____    ______ ____
ROOT
ATOM      1  O   UNL     1     -16.301  55.375   5.770  0.00  0.00    +0.000 OA
ATOM      2  C   UNL     1     -16.623  48.429   5.653  0.00  0.00    +0.000 C 
ATOM      3  C   UNL     1     -16.437  47.116   5.107  0.00  0.00    +0.000 A 
ATOM      4  C   UNL     1     -15.901  46.920   3.808  0.00  0.00    +0.000 A 
ATOM      5  C   UNL     1     -16.733  49.897   6.099  0.00  0.00    +0.000 C 
ATOM      6  C   UNL     1     -14.975  51.898   1.354  0.00  0.00    +0.000 C 
ATOM      7  C   UNL     1     -15.634  48.070   2.917  0.00  0.00    +0.000 A 
ATOM      8  C   UNL     1     -15.193  50.508   1.576  0.00  0.00    +0.000 A 
ATOM      9  C   UNL     1     -14.929  53.407   1.610  0.00  0.00    +0.000 C 
ATOM     10  C   UNL     1     -16.739  51.306   6.318  0.00  0.00    +0.000 A 
ATOM     11  C   UNL     1     -14.349  48.451   2.503  0.00  0.00    +0.000 A 
ATOM     12  C   UNL     1     -15.100  54.611   2.345  0.00  0.00    +0.000 A 
ATOM     13  C   UNL     1     -16.704  48.890   2.530  0.00  0.00    +0.000 A 
ATOM     14  C   UNL     1     -14.120  49.669   1.858  0.00  0.00    +0.000 A 
ATOM     15  C   UNL     1     -16.490  50.099   1.876  0.00  0.00    +0.000 A 
ATOM     16  C   UNL     1     -15.659  45.591   3.412  0.00  0.00    +0.000 A 
ATOM     17  C   UNL     1     -16.754  46.030   5.926  0.00  0.00    +0.000 A 
ATOM     18  C   UNL     1     -15.996  44.510   4.226  0.00  0.00    +0.000 A 
ATOM     19  C   UNL     1     -16.553  44.729   5.480  0.00  0.00    +0.000 A 
ATOM     20  C   UNL     1     -15.583  54.451   3.639  0.00  0.00    +0.000 A 
ATOM     21  C   UNL     1     -17.833  52.065   5.898  0.00  0.00    +0.000 A 
ATOM     22  C   UNL     1     -15.571  51.937   6.750  0.00  0.00    +0.000 A 
ATOM     23  C   UNL     1     -15.816  55.532   4.482  0.00  0.00    +0.000 A 
ATOM     24  C   UNL     1     -14.833  55.883   1.862  0.00  0.00    +0.000 A 
ATOM     25  C   UNL     1     -16.520  54.064   6.151  0.00  0.00    +0.000 A 
ATOM     26  C   UNL     1     -17.731  53.452   5.824  0.00  0.00    +0.000 A 
ATOM     27  C   UNL     1     -15.461  53.324   6.678  0.00  0.00    +0.000 A 
ATOM     28  C   UNL     1     -15.549  56.807   3.996  0.00  0.00    +0.000 A 
ATOM     29  C   UNL     1     -15.060  56.985   2.697  0.00  0.00    +0.000 A 
ENDROOT
BRANCH  11  30
ATOM     30  O   UNL     1     -13.289  47.620   2.754  0.00  0.00    +0.000 OA
ATOM     31  H   UNL     1     -13.641  46.761   3.057  0.00  0.00    +0.000 HD
ENDBRANCH  11  30
BRANCH  16  32
ATOM     32  O   UNL     1     -15.063  45.281   2.219  0.00  0.00    +0.000 OA
ATOM     33  H   UNL     1     -15.744  44.853   1.667  0.00  0.00    +0.000 HD
ENDBRANCH  16  32
BRANCH  28  34
ATOM     34  O   UNL     1     -15.752  57.918   4.765  0.00  0.00    +0.000 OA
ATOM     35  H   UNL     1     -16.624  58.280   4.525  0.00  0.00    +0.000 HD
ENDBRANCH  28  34
TORSDOF 3
ENDMDL
MODEL 5
REMARK VINA RESULT:      -7.2     27.297     29.494
REMARK  Name = 14132199_RiccardinD.pdbqt.pdb
REMARK  3 active torsions:
REMARK  status: ('A' for Active; 'I' for Inactive)
REMARK    1  A    between atoms: C_11  and  O_30
REMARK    2  A    between atoms: C_16  and  O_32
REMARK    3  A    between atoms: C_28  and  O_34
REMARK                            x       y       z     vdW  Elec       q    Type
REMARK                         _______ _______ _______ _____ _____    ______ ____
ROOT
ATOM      1  O   UNL     1     -38.658  47.792 -12.434  0.00  0.00    +0.000 OA
ATOM      2  C   UNL     1     -37.589  50.416 -18.784  0.00  0.00    +0.000 C 
ATOM      3  C   UNL     1     -36.887  50.620 -20.019  0.00  0.00    +0.000 A 
ATOM      4  C   UNL     1     -35.617  50.034 -20.259  0.00  0.00    +0.000 A 
ATOM      5  C   UNL     1     -38.217  50.076 -17.423  0.00  0.00    +0.000 C 
ATOM      6  C   UNL     1     -33.928  47.209 -15.695  0.00  0.00    +0.000 C 
ATOM      7  C   UNL     1     -34.910  49.294 -19.190  0.00  0.00    +0.000 A 
ATOM      8  C   UNL     1     -33.945  47.906 -16.938  0.00  0.00    +0.000 A 
ATOM      9  C   UNL     1     -34.386  46.689 -14.330  0.00  0.00    +0.000 C 
ATOM     10  C   UNL     1     -38.622  49.634 -16.129  0.00  0.00    +0.000 A 
ATOM     11  C   UNL     1     -34.649  47.916 -19.241  0.00  0.00    +0.000 A 
ATOM     12  C   UNL     1     -35.261  46.528 -13.222  0.00  0.00    +0.000 A 
ATOM     13  C   UNL     1     -34.558  49.973 -18.016  0.00  0.00    +0.000 A 
ATOM     14  C   UNL     1     -34.192  47.218 -18.121  0.00  0.00    +0.000 A 
ATOM     15  C   UNL     1     -34.089  49.291 -16.897  0.00  0.00    +0.000 A 
ATOM     16  C   UNL     1     -35.067  50.209 -21.542  0.00  0.00    +0.000 A 
ATOM     17  C   UNL     1     -37.528  51.377 -21.003  0.00  0.00    +0.000 A 
ATOM     18  C   UNL     1     -35.701  50.982 -22.514  0.00  0.00    +0.000 A 
ATOM     19  C   UNL     1     -36.928  51.575 -22.241  0.00  0.00    +0.000 A 
ATOM     20  C   UNL     1     -36.482  47.184 -13.332  0.00  0.00    +0.000 A 
ATOM     21  C   UNL     1     -38.227  50.352 -14.999  0.00  0.00    +0.000 A 
ATOM     22  C   UNL     1     -39.220  48.381 -15.990  0.00  0.00    +0.000 A 
ATOM     23  C   UNL     1     -37.442  47.136 -12.327  0.00  0.00    +0.000 A 
ATOM     24  C   UNL     1     -34.973  45.795 -12.080  0.00  0.00    +0.000 A 
ATOM     25  C   UNL     1     -38.842  48.482 -13.618  0.00  0.00    +0.000 A 
ATOM     26  C   UNL     1     -38.346  49.782 -13.734  0.00  0.00    +0.000 A 
ATOM     27  C   UNL     1     -39.343  47.802 -14.728  0.00  0.00    +0.000 A 
ATOM     28  C   UNL     1     -37.152  46.401 -11.183  0.00  0.00    +0.000 A 
ATOM     29  C   UNL     1     -35.929  45.734 -11.058  0.00  0.00    +0.000 A 
ENDROOT
BRANCH  11  30
ATOM     30  O   UNL     1     -34.865  47.235 -20.409  0.00  0.00    +0.000 OA
ATOM     31  H   UNL     1     -35.769  47.437 -20.717  0.00  0.00    +0.000 HD
ENDBRANCH  11  30
BRANCH  16  32
ATOM     32  O   UNL     1     -33.890  49.617 -21.920  0.00  0.00    +0.000 OA
ATOM     33  H   UNL     1     -33.956  48.677 -21.668  0.00  0.00    +0.000 HD
ENDBRANCH  16  32
BRANCH  28  34
ATOM     34  O   UNL     1     -38.045  46.307 -10.154  0.00  0.00    +0.000 OA
ATOM     35  H   UNL     1     -38.908  46.610 -10.490  0.00  0.00    +0.000 HD
ENDBRANCH  28  34
TORSDOF 3
ENDMDL
MODEL 6
REMARK VINA RESULT:      -6.8     29.168     31.244
REMARK  Name = 14132199_RiccardinD.pdbqt.pdb
REMARK  3 active torsions:
REMARK  status: ('A' for Active; 'I' for Inactive)
REMARK    1  A    between atoms: C_11  and  O_30
REMARK    2  A    between atoms: C_16  and  O_32
REMARK    3  A    between atoms: C_28  and  O_34
REMARK                            x       y       z     vdW  Elec       q    Type
REMARK                         _______ _______ _______ _____ _____    ______ ____
ROOT
ATOM      1  O   UNL     1     -37.376  49.896 -24.060  0.00  0.00    +0.000 OA
ATOM      2  C   UNL     1     -33.601  46.616 -19.229  0.00  0.00    +0.000 C 
ATOM      3  C   UNL     1     -33.168  46.287 -17.901  0.00  0.00    +0.000 A 
ATOM      4  C   UNL     1     -33.701  46.943 -16.761  0.00  0.00    +0.000 A 
ATOM      5  C   UNL     1     -34.190  47.066 -20.575  0.00  0.00    +0.000 C 
ATOM      6  C   UNL     1     -37.343  50.917 -18.376  0.00  0.00    +0.000 C 
ATOM      7  C   UNL     1     -34.632  48.084 -16.909  0.00  0.00    +0.000 A 
ATOM      8  C   UNL     1     -36.423  50.140 -17.615  0.00  0.00    +0.000 A 
ATOM      9  C   UNL     1     -38.111  51.467 -19.581  0.00  0.00    +0.000 C 
ATOM     10  C   UNL     1     -34.869  47.614 -21.704  0.00  0.00    +0.000 A 
ATOM     11  C   UNL     1     -35.975  48.048 -16.507  0.00  0.00    +0.000 A 
ATOM     12  C   UNL     1     -38.476  51.591 -20.949  0.00  0.00    +0.000 A 
ATOM     13  C   UNL     1     -34.188  49.239 -17.570  0.00  0.00    +0.000 A 
ATOM     14  C   UNL     1     -36.874  49.053 -16.873  0.00  0.00    +0.000 A 
ATOM     15  C   UNL     1     -35.071  50.253 -17.929  0.00  0.00    +0.000 A 
ATOM     16  C   UNL     1     -33.288  46.470 -15.502  0.00  0.00    +0.000 A 
ATOM     17  C   UNL     1     -32.237  45.255 -17.767  0.00  0.00    +0.000 A 
ATOM     18  C   UNL     1     -32.343  45.452 -15.374  0.00  0.00    +0.000 A 
ATOM     19  C   UNL     1     -31.810  44.850 -16.508  0.00  0.00    +0.000 A 
ATOM     20  C   UNL     1     -37.808  50.736 -21.820  0.00  0.00    +0.000 A 
ATOM     21  C   UNL     1     -34.378  48.773 -22.308  0.00  0.00    +0.000 A 
ATOM     22  C   UNL     1     -36.124  47.117 -22.056  0.00  0.00    +0.000 A 
ATOM     23  C   UNL     1     -38.043  50.744 -23.190  0.00  0.00    +0.000 A 
ATOM     24  C   UNL     1     -39.413  52.485 -21.445  0.00  0.00    +0.000 A 
ATOM     25  C   UNL     1     -36.474  49.040 -23.456  0.00  0.00    +0.000 A 
ATOM     26  C   UNL     1     -35.177  49.486 -23.198  0.00  0.00    +0.000 A 
ATOM     27  C   UNL     1     -36.930  47.824 -22.945  0.00  0.00    +0.000 A 
ATOM     28  C   UNL     1     -38.982  51.642 -23.686  0.00  0.00    +0.000 A 
ATOM     29  C   UNL     1     -39.664  52.506 -22.823  0.00  0.00    +0.000 A 
ENDROOT
BRANCH  11  30
ATOM     30  O   UNL     1     -36.423  46.995 -15.755  0.00  0.00    +0.000 OA
ATOM     31  H   UNL     1     -36.885  46.372 -16.348  0.00  0.00    +0.000 HD
ENDBRANCH  11  30
BRANCH  16  32
ATOM     32  O   UNL     1     -33.800  46.963 -14.331  0.00  0.00    +0.000 OA
ATOM     33  H   UNL     1     -33.139  46.782 -13.637  0.00  0.00    +0.000 HD
ENDBRANCH  16  32
BRANCH  28  34
ATOM     34  O   UNL     1     -39.267  51.707 -25.020  0.00  0.00    +0.000 OA
ATOM     35  H   UNL     1     -39.148  50.812 -25.386  0.00  0.00    +0.000 HD
ENDBRANCH  28  34
TORSDOF 3
ENDMDL
MODEL 7
REMARK VINA RESULT:      -6.7     29.265     32.301
REMARK  Name = 14132199_RiccardinD.pdbqt.pdb
REMARK  3 active torsions:
REMARK  status: ('A' for Active; 'I' for Inactive)
REMARK    1  A    between atoms: C_11  and  O_30
REMARK    2  A    between atoms: C_16  and  O_32
REMARK    3  A    between atoms: C_28  and  O_34
REMARK                            x       y       z     vdW  Elec       q    Type
REMARK                         _______ _______ _______ _____ _____    ______ ____
ROOT
ATOM      1  O   UNL     1     -14.901  53.438 -22.980  0.00  0.00    +0.000 OA
ATOM      2  C   UNL     1     -16.579  59.315 -26.296  0.00  0.00    +0.000 C 
ATOM      3  C   UNL     1     -17.104  60.115 -27.366  0.00  0.00    +0.000 A 
ATOM      4  C   UNL     1     -17.599  59.529 -28.559  0.00  0.00    +0.000 A 
ATOM      5  C   UNL     1     -16.078  58.318 -25.239  0.00  0.00    +0.000 C 
ATOM      6  C   UNL     1     -16.919  53.946 -28.367  0.00  0.00    +0.000 C 
ATOM      7  C   UNL     1     -17.475  58.073 -28.797  0.00  0.00    +0.000 A 
ATOM      8  C   UNL     1     -17.121  55.280 -28.827  0.00  0.00    +0.000 A 
ATOM      9  C   UNL     1     -16.543  52.783 -27.445  0.00  0.00    +0.000 C 
ATOM     10  C   UNL     1     -15.680  57.236 -24.399  0.00  0.00    +0.000 A 
ATOM     11  C   UNL     1     -18.571  57.202 -28.877  0.00  0.00    +0.000 A 
ATOM     12  C   UNL     1     -16.076  52.158 -26.257  0.00  0.00    +0.000 A 
ATOM     13  C   UNL     1     -16.194  57.504 -28.855  0.00  0.00    +0.000 A 
ATOM     14  C   UNL     1     -18.404  55.816 -28.870  0.00  0.00    +0.000 A 
ATOM     15  C   UNL     1     -16.015  56.124 -28.860  0.00  0.00    +0.000 A 
ATOM     16  C   UNL     1     -18.189  60.395 -29.498  0.00  0.00    +0.000 A 
ATOM     17  C   UNL     1     -17.158  61.497 -27.167  0.00  0.00    +0.000 A 
ATOM     18  C   UNL     1     -18.223  61.776 -29.303  0.00  0.00    +0.000 A 
ATOM     19  C   UNL     1     -17.698  62.328 -28.141  0.00  0.00    +0.000 A 
ATOM     20  C   UNL     1     -15.733  53.028 -25.227  0.00  0.00    +0.000 A 
ATOM     21  C   UNL     1     -14.393  56.710 -24.516  0.00  0.00    +0.000 A 
ATOM     22  C   UNL     1     -16.640  56.579 -23.628  0.00  0.00    +0.000 A 
ATOM     23  C   UNL     1     -15.247  52.574 -24.006  0.00  0.00    +0.000 A 
ATOM     24  C   UNL     1     -15.939  50.790 -26.078  0.00  0.00    +0.000 A 
ATOM     25  C   UNL     1     -15.089  54.778 -23.263  0.00  0.00    +0.000 A 
ATOM     26  C   UNL     1     -14.088  55.480 -23.937  0.00  0.00    +0.000 A 
ATOM     27  C   UNL     1     -16.344  55.349 -23.046  0.00  0.00    +0.000 A 
ATOM     28  C   UNL     1     -15.110  51.202 -23.828  0.00  0.00    +0.000 A 
ATOM     29  C   UNL     1     -15.453  50.314 -24.854  0.00  0.00    +0.000 A 
ENDROOT
BRANCH  11  30
ATOM     30  O   UNL     1     -19.837  57.721 -28.946  0.00  0.00    +0.000 OA
ATOM     31  H   UNL     1     -20.212  57.728 -28.044  0.00  0.00    +0.000 HD
ENDBRANCH  11  30
BRANCH  16  32
ATOM     32  O   UNL     1     -18.782  59.937 -30.645  0.00  0.00    +0.000 OA
ATOM     33  H   UNL     1     -18.081  59.509 -31.171  0.00  0.00    +0.000 HD
ENDBRANCH  16  32
BRANCH  28  34
ATOM     34  O   UNL     1     -14.640  50.681 -22.656  0.00  0.00    +0.000 OA
ATOM     35  H   UNL     1     -14.516  51.423 -22.038  0.00  0.00    +0.000 HD
ENDBRANCH  28  34
TORSDOF 3
ENDMDL
MODEL 8
REMARK VINA RESULT:      -6.6      1.947      4.815
REMARK  Name = 14132199_RiccardinD.pdbqt.pdb
REMARK  3 active torsions:
REMARK  status: ('A' for Active; 'I' for Inactive)
REMARK    1  A    between atoms: C_11  and  O_30
REMARK    2  A    between atoms: C_16  and  O_32
REMARK    3  A    between atoms: C_28  and  O_34
REMARK                            x       y       z     vdW  Elec       q    Type
REMARK                         _______ _______ _______ _____ _____    ______ ____
ROOT
ATOM      1  O   UNL     1     -15.491  52.910   5.202  0.00  0.00    +0.000 OA
ATOM      2  C   UNL     1     -16.270  46.228   6.966  0.00  0.00    +0.000 C 
ATOM      3  C   UNL     1     -16.261  44.808   6.764  0.00  0.00    +0.000 A 
ATOM      4  C   UNL     1     -15.964  44.238   5.499  0.00  0.00    +0.000 A 
ATOM      5  C   UNL     1     -16.209  47.763   7.020  0.00  0.00    +0.000 C 
ATOM      6  C   UNL     1     -15.145  48.321   1.713  0.00  0.00    +0.000 C 
ATOM      7  C   UNL     1     -15.776  45.095   4.307  0.00  0.00    +0.000 A 
ATOM      8  C   UNL     1     -15.412  47.060   2.322  0.00  0.00    +0.000 A 
ATOM      9  C   UNL     1     -14.962  49.832   1.553  0.00  0.00    +0.000 C 
ATOM     10  C   UNL     1     -16.090  49.176   6.859  0.00  0.00    +0.000 A 
ATOM     11  C   UNL     1     -14.557  45.224   3.626  0.00  0.00    +0.000 A 
ATOM     12  C   UNL     1     -14.930  51.193   1.962  0.00  0.00    +0.000 A 
ATOM     13  C   UNL     1     -16.842  45.899   3.877  0.00  0.00    +0.000 A 
ATOM     14  C   UNL     1     -14.362  46.211   2.657  0.00  0.00    +0.000 A 
ATOM     15  C   UNL     1     -16.664  46.878   2.904  0.00  0.00    +0.000 A 
ATOM     16  C   UNL     1     -15.877  42.835   5.436  0.00  0.00    +0.000 A 
ATOM     17  C   UNL     1     -16.506  44.000   7.877  0.00  0.00    +0.000 A 
ATOM     18  C   UNL     1     -16.141  42.033   6.546  0.00  0.00    +0.000 A 
ATOM     19  C   UNL     1     -16.465  42.616   7.765  0.00  0.00    +0.000 A 
ATOM     20  C   UNL     1     -15.199  51.412   3.308  0.00  0.00    +0.000 A 
ATOM     21  C   UNL     1     -17.188  49.915   6.417  0.00  0.00    +0.000 A 
ATOM     22  C   UNL     1     -14.828  49.769   6.935  0.00  0.00    +0.000 A 
ATOM     23  C   UNL     1     -15.219  52.688   3.861  0.00  0.00    +0.000 A 
ATOM     24  C   UNL     1     -14.667  52.268   1.127  0.00  0.00    +0.000 A 
ATOM     25  C   UNL     1     -15.726  51.766   5.942  0.00  0.00    +0.000 A 
ATOM     26  C   UNL     1     -17.011  51.221   5.966  0.00  0.00    +0.000 A 
ATOM     27  C   UNL     1     -14.643  51.074   6.486  0.00  0.00    +0.000 A 
ATOM     28  C   UNL     1     -14.956  53.766   3.023  0.00  0.00    +0.000 A 
ATOM     29  C   UNL     1     -14.681  53.561   1.666  0.00  0.00    +0.000 A 
ENDROOT
BRANCH  11  30
ATOM     30  O   UNL     1     -13.525  44.376   3.930  0.00  0.00    +0.000 OA
ATOM     31  H   UNL     1     -12.733  44.673   3.441  0.00  0.00    +0.000 HD
ENDBRANCH  11  30
BRANCH  16  32
ATOM     32  O   UNL     1     -15.509  42.176   4.293  0.00  0.00    +0.000 OA
ATOM     33  H   UNL     1     -16.326  41.810   3.905  0.00  0.00    +0.000 HD
ENDBRANCH  16  32
BRANCH  28  34
ATOM     34  O   UNL     1     -14.957  55.048   3.493  0.00  0.00    +0.000 OA
ATOM     35  H   UNL     1     -15.886  55.339   3.542  0.00  0.00    +0.000 HD
ENDBRANCH  28  34
TORSDOF 3
ENDMDL
MODEL 9
REMARK VINA RESULT:      -6.6     25.538     27.196
REMARK  Name = 14132199_RiccardinD.pdbqt.pdb
REMARK  3 active torsions:
REMARK  status: ('A' for Active; 'I' for Inactive)
REMARK    1  A    between atoms: C_11  and  O_30
REMARK    2  A    between atoms: C_16  and  O_32
REMARK    3  A    between atoms: C_28  and  O_34
REMARK                            x       y       z     vdW  Elec       q    Type
REMARK                         _______ _______ _______ _____ _____    ______ ____
ROOT
ATOM      1  O   UNL     1     -36.978  49.296 -17.047  0.00  0.00    +0.000 OA
ATOM      2  C   UNL     1     -31.774  44.864 -18.331  0.00  0.00    +0.000 C 
ATOM      3  C   UNL     1     -30.874  43.782 -18.055  0.00  0.00    +0.000 A 
ATOM      4  C   UNL     1     -30.887  43.102 -16.809  0.00  0.00    +0.000 A 
ATOM      5  C   UNL     1     -32.821  45.980 -18.476  0.00  0.00    +0.000 C 
ATOM      6  C   UNL     1     -34.678  45.466 -13.387  0.00  0.00    +0.000 C 
ATOM      7  C   UNL     1     -31.747  43.571 -15.700  0.00  0.00    +0.000 A 
ATOM      8  C   UNL     1     -33.571  44.720 -13.888  0.00  0.00    +0.000 A 
ATOM      9  C   UNL     1     -35.829  46.474 -13.335  0.00  0.00    +0.000 C 
ATOM     10  C   UNL     1     -33.860  46.956 -18.409  0.00  0.00    +0.000 A 
ATOM     11  C   UNL     1     -32.827  42.835 -15.189  0.00  0.00    +0.000 A 
ATOM     12  C   UNL     1     -36.693  47.494 -13.818  0.00  0.00    +0.000 A 
ATOM     13  C   UNL     1     -31.542  44.857 -15.181  0.00  0.00    +0.000 A 
ATOM     14  C   UNL     1     -33.748  43.406 -14.308  0.00  0.00    +0.000 A 
ATOM     15  C   UNL     1     -32.446  45.433 -14.294  0.00  0.00    +0.000 A 
ATOM     16  C   UNL     1     -30.038  41.988 -16.682  0.00  0.00    +0.000 A 
ATOM     17  C   UNL     1     -30.014  43.385 -19.082  0.00  0.00    +0.000 A 
ATOM     18  C   UNL     1     -29.168  41.607 -17.704  0.00  0.00    +0.000 A 
ATOM     19  C   UNL     1     -29.149  42.312 -18.901  0.00  0.00    +0.000 A 
ATOM     20  C   UNL     1     -36.460  47.895 -15.129  0.00  0.00    +0.000 A 
ATOM     21  C   UNL     1     -33.589  48.215 -17.871  0.00  0.00    +0.000 A 
ATOM     22  C   UNL     1     -35.175  46.575 -18.678  0.00  0.00    +0.000 A 
ATOM     23  C   UNL     1     -37.210  48.891 -15.743  0.00  0.00    +0.000 A 
ATOM     24  C   UNL     1     -37.705  48.093 -13.084  0.00  0.00    +0.000 A 
ATOM     25  C   UNL     1     -35.953  48.623 -17.688  0.00  0.00    +0.000 A 
ATOM     26  C   UNL     1     -34.638  49.061 -17.518  0.00  0.00    +0.000 A 
ATOM     27  C   UNL     1     -36.230  47.415 -18.328  0.00  0.00    +0.000 A 
ATOM     28  C   UNL     1     -38.225  49.491 -15.005  0.00  0.00    +0.000 A 
ATOM     29  C   UNL     1     -38.474  49.097 -13.686  0.00  0.00    +0.000 A 
ENDROOT
BRANCH  11  30
ATOM     30  O   UNL     1     -32.994  41.532 -15.576  0.00  0.00    +0.000 OA
ATOM     31  H   UNL     1     -32.479  41.389 -16.393  0.00  0.00    +0.000 HD
ENDBRANCH  11  30
BRANCH  16  32
ATOM     32  O   UNL     1     -30.028  41.199 -15.562  0.00  0.00    +0.000 OA
ATOM     33  H   UNL     1     -29.471  41.655 -14.902  0.00  0.00    +0.000 HD
ENDBRANCH  16  32
BRANCH  28  34
ATOM     34  O   UNL     1     -39.005  50.477 -15.541  0.00  0.00    +0.000 OA
ATOM     35  H   UNL     1     -38.722  51.320 -15.142  0.00  0.00    +0.000 HD
ENDBRANCH  28  34
TORSDOF 3
ENDMDL
