MODEL 1
REMARK VINA RESULT:      -4.3      0.000      0.000
REMARK  Name = 146026348_FluorouracilMononitrate.pdbqt.pdb
REMARK  2 active torsions:
REMARK  status: ('A' for Active; 'I' for Inactive)
REMARK    1  A    between atoms: N_4  and  O_10
REMARK    2  A    between atoms: O_10  and  N_13
REMARK                            x       y       z     vdW  Elec       q    Type
REMARK                         _______ _______ _______ _____ _____    ______ ____
ROOT
ATOM      1  F   UNL     1     -36.425  46.638 -10.741  0.00  0.00    +0.000 F 
ATOM      2  O   UNL     1     -36.155  47.580  -8.124  0.00  0.00    +0.000 OA
ATOM      3  O   UNL     1     -32.568  44.616  -7.651  0.00  0.00    +0.000 OA
ATOM      4  N   UNL     1     -34.460  46.001  -7.790  0.00  0.00    +0.000 N 
ATOM      5  N   UNL     1     -35.580  46.090  -9.854  0.00  0.00    +0.000 N 
ATOM      6  C   UNL     1     -35.478  46.646  -8.546  0.00  0.00    +0.000 A 
ATOM      7  C   UNL     1     -33.538  45.057  -8.245  0.00  0.00    +0.000 A 
ATOM      8  C   UNL     1     -33.844  44.667  -9.602  0.00  0.00    +0.000 A 
ATOM      9  C   UNL     1     -34.725  45.131 -10.260  0.00  0.00    +0.000 A 
ENDROOT
BRANCH   4  10
ATOM     10  O   UNL     1     -34.217  46.540  -6.513  0.00  0.00    +0.000 OA
BRANCH  10  13
ATOM     11  O   UNL     1     -36.016  45.848  -5.354  0.00  0.00    +0.000 OA
ATOM     12  O   UNL     1     -33.958  45.195  -4.771  0.00  0.00    +0.000 OA
ATOM     13  N   UNL     1     -34.787  45.798  -5.449  0.00  0.00    +0.000 N 
ENDBRANCH  10  13
ENDBRANCH   4  10
TORSDOF 2
ENDMDL
MODEL 2
REMARK VINA RESULT:      -4.2      2.663      3.874
REMARK  Name = 146026348_FluorouracilMononitrate.pdbqt.pdb
REMARK  2 active torsions:
REMARK  status: ('A' for Active; 'I' for Inactive)
REMARK    1  A    between atoms: N_4  and  O_10
REMARK    2  A    between atoms: O_10  and  N_13
REMARK                            x       y       z     vdW  Elec       q    Type
REMARK                         _______ _______ _______ _____ _____    ______ ____
ROOT
ATOM      1  F   UNL     1     -33.780  43.025  -9.068  0.00  0.00    +0.000 F 
ATOM      2  O   UNL     1     -33.959  41.881  -6.525  0.00  0.00    +0.000 OA
ATOM      3  O   UNL     1     -34.614  46.202  -4.858  0.00  0.00    +0.000 OA
ATOM      4  N   UNL     1     -34.129  44.036  -5.628  0.00  0.00    +0.000 N 
ATOM      5  N   UNL     1     -33.846  43.756  -7.945  0.00  0.00    +0.000 N 
ATOM      6  C   UNL     1     -33.965  43.098  -6.686  0.00  0.00    +0.000 A 
ATOM      7  C   UNL     1     -34.317  45.415  -5.742  0.00  0.00    +0.000 A 
ATOM      8  C   UNL     1     -34.165  45.833  -7.116  0.00  0.00    +0.000 A 
ATOM      9  C   UNL     1     -33.964  45.095  -8.032  0.00  0.00    +0.000 A 
ENDROOT
BRANCH   4  10
ATOM     10  O   UNL     1     -34.348  43.483  -4.354  0.00  0.00    +0.000 OA
BRANCH  10  13
ATOM     11  O   UNL     1     -32.109  43.379  -4.172  0.00  0.00    +0.000 OA
ATOM     12  O   UNL     1     -33.411  43.274  -2.357  0.00  0.00    +0.000 OA
ATOM     13  N   UNL     1     -33.180  43.365  -3.560  0.00  0.00    +0.000 N 
ENDBRANCH  10  13
ENDBRANCH   4  10
TORSDOF 2
ENDMDL
MODEL 3
REMARK VINA RESULT:      -3.9     16.879     18.379
REMARK  Name = 146026348_FluorouracilMononitrate.pdbqt.pdb
REMARK  2 active torsions:
REMARK  status: ('A' for Active; 'I' for Inactive)
REMARK    1  A    between atoms: N_4  and  O_10
REMARK    2  A    between atoms: O_10  and  N_13
REMARK                            x       y       z     vdW  Elec       q    Type
REMARK                         _______ _______ _______ _____ _____    ______ ____
ROOT
ATOM      1  F   UNL     1     -23.823  41.788   9.845  0.00  0.00    +0.000 F 
ATOM      2  O   UNL     1     -26.607  41.982   9.691  0.00  0.00    +0.000 OA
ATOM      3  O   UNL     1     -26.205  41.098   5.116  0.00  0.00    +0.000 OA
ATOM      4  N   UNL     1     -26.442  41.703   7.373  0.00  0.00    +0.000 N 
ATOM      5  N   UNL     1     -24.490  41.769   8.681  0.00  0.00    +0.000 N 
ATOM      6  C   UNL     1     -25.914  41.844   8.687  0.00  0.00    +0.000 A 
ATOM      7  C   UNL     1     -25.743  41.374   6.211  0.00  0.00    +0.000 A 
ATOM      8  C   UNL     1     -24.322  41.343   6.469  0.00  0.00    +0.000 A 
ATOM      9  C   UNL     1     -23.823  41.516   7.539  0.00  0.00    +0.000 A 
ENDROOT
BRANCH   4  10
ATOM     10  O   UNL     1     -27.846  41.670   7.283  0.00  0.00    +0.000 OA
BRANCH  10  13
ATOM     11  O   UNL     1     -28.804  42.959   5.709  0.00  0.00    +0.000 OA
ATOM     12  O   UNL     1     -28.497  43.728   7.787  0.00  0.00    +0.000 OA
ATOM     13  N   UNL     1     -28.434  42.896   6.884  0.00  0.00    +0.000 N 
ENDBRANCH  10  13
ENDBRANCH   4  10
TORSDOF 2
ENDMDL
MODEL 4
REMARK VINA RESULT:      -3.7      3.064      3.905
REMARK  Name = 146026348_FluorouracilMononitrate.pdbqt.pdb
REMARK  2 active torsions:
REMARK  status: ('A' for Active; 'I' for Inactive)
REMARK    1  A    between atoms: N_4  and  O_10
REMARK    2  A    between atoms: O_10  and  N_13
REMARK                            x       y       z     vdW  Elec       q    Type
REMARK                         _______ _______ _______ _____ _____    ______ ____
ROOT
ATOM      1  F   UNL     1     -33.754  41.439  -9.024  0.00  0.00    +0.000 F 
ATOM      2  O   UNL     1     -33.187  44.137  -8.569  0.00  0.00    +0.000 OA
ATOM      3  O   UNL     1     -33.931  43.311  -4.026  0.00  0.00    +0.000 OA
ATOM      4  N   UNL     1     -33.706  43.808  -6.311  0.00  0.00    +0.000 N 
ATOM      5  N   UNL     1     -33.912  42.023  -7.826  0.00  0.00    +0.000 N 
ATOM      6  C   UNL     1     -33.573  43.399  -7.667  0.00  0.00    +0.000 A 
ATOM      7  C   UNL     1     -33.970  42.998  -5.205  0.00  0.00    +0.000 A 
ATOM      8  C   UNL     1     -34.265  41.649  -5.627  0.00  0.00    +0.000 A 
ATOM      9  C   UNL     1     -34.230  41.268  -6.758  0.00  0.00    +0.000 A 
ENDROOT
BRANCH   4  10
ATOM     10  O   UNL     1     -33.305  45.127  -6.033  0.00  0.00    +0.000 OA
BRANCH  10  13
ATOM     11  O   UNL     1     -34.568  46.639  -7.118  0.00  0.00    +0.000 OA
ATOM     12  O   UNL     1     -34.931  46.183  -4.959  0.00  0.00    +0.000 OA
ATOM     13  N   UNL     1     -34.361  46.072  -6.042  0.00  0.00    +0.000 N 
ENDBRANCH  10  13
ENDBRANCH   4  10
TORSDOF 2
ENDMDL
MODEL 5
REMARK VINA RESULT:      -3.7      8.487     10.123
REMARK  Name = 146026348_FluorouracilMononitrate.pdbqt.pdb
REMARK  2 active torsions:
REMARK  status: ('A' for Active; 'I' for Inactive)
REMARK    1  A    between atoms: N_4  and  O_10
REMARK    2  A    between atoms: O_10  and  N_13
REMARK                            x       y       z     vdW  Elec       q    Type
REMARK                         _______ _______ _______ _____ _____    ______ ____
ROOT
ATOM      1  F   UNL     1     -31.097  43.180 -16.746  0.00  0.00    +0.000 F 
ATOM      2  O   UNL     1     -31.546  45.202 -18.621  0.00  0.00    +0.000 OA
ATOM      3  O   UNL     1     -33.796  47.537 -15.250  0.00  0.00    +0.000 OA
ATOM      4  N   UNL     1     -32.817  46.333 -17.014  0.00  0.00    +0.000 N 
ATOM      5  N   UNL     1     -31.882  44.239 -16.498  0.00  0.00    +0.000 N 
ATOM      6  C   UNL     1     -32.038  45.244 -17.497  0.00  0.00    +0.000 A 
ATOM      7  C   UNL     1     -33.266  46.538 -15.708  0.00  0.00    +0.000 A 
ATOM      8  C   UNL     1     -32.973  45.386 -14.887  0.00  0.00    +0.000 A 
ATOM      9  C   UNL     1     -32.378  44.421 -15.260  0.00  0.00    +0.000 A 
ENDROOT
BRANCH   4  10
ATOM     10  O   UNL     1     -32.952  47.422 -17.894  0.00  0.00    +0.000 OA
BRANCH  10  13
ATOM     11  O   UNL     1     -34.692  46.549 -19.020  0.00  0.00    +0.000 OA
ATOM     12  O   UNL     1     -34.736  48.669 -18.311  0.00  0.00    +0.000 OA
ATOM     13  N   UNL     1     -34.242  47.554 -18.465  0.00  0.00    +0.000 N 
ENDBRANCH  10  13
ENDBRANCH   4  10
TORSDOF 2
ENDMDL
MODEL 6
REMARK VINA RESULT:      -3.7     11.093     12.558
REMARK  Name = 146026348_FluorouracilMononitrate.pdbqt.pdb
REMARK  2 active torsions:
REMARK  status: ('A' for Active; 'I' for Inactive)
REMARK    1  A    between atoms: N_4  and  O_10
REMARK    2  A    between atoms: O_10  and  N_13
REMARK                            x       y       z     vdW  Elec       q    Type
REMARK                         _______ _______ _______ _____ _____    ______ ____
ROOT
ATOM      1  F   UNL     1     -34.761  47.665 -23.200  0.00  0.00    +0.000 F 
ATOM      2  O   UNL     1     -34.856  46.409 -20.706  0.00  0.00    +0.000 OA
ATOM      3  O   UNL     1     -35.200  50.671 -18.809  0.00  0.00    +0.000 OA
ATOM      4  N   UNL     1     -34.868  48.525 -19.704  0.00  0.00    +0.000 N 
ATOM      5  N   UNL     1     -34.728  48.344 -22.043  0.00  0.00    +0.000 N 
ATOM      6  C   UNL     1     -34.810  47.632 -20.811  0.00  0.00    +0.000 A 
ATOM      7  C   UNL     1     -34.993  49.914 -19.743  0.00  0.00    +0.000 A 
ATOM      8  C   UNL     1     -34.896  50.391 -21.104  0.00  0.00    +0.000 A 
ATOM      9  C   UNL     1     -34.783  49.689 -22.062  0.00  0.00    +0.000 A 
ENDROOT
BRANCH   4  10
ATOM     10  O   UNL     1     -35.045  47.921 -18.445  0.00  0.00    +0.000 OA
BRANCH  10  13
ATOM     11  O   UNL     1     -32.853  47.509 -18.153  0.00  0.00    +0.000 OA
ATOM     12  O   UNL     1     -34.087  48.369 -16.498  0.00  0.00    +0.000 OA
ATOM     13  N   UNL     1     -33.888  47.929 -17.627  0.00  0.00    +0.000 N 
ENDBRANCH  10  13
ENDBRANCH   4  10
TORSDOF 2
ENDMDL
MODEL 7
REMARK VINA RESULT:      -3.6     14.469     15.622
REMARK  Name = 146026348_FluorouracilMononitrate.pdbqt.pdb
REMARK  2 active torsions:
REMARK  status: ('A' for Active; 'I' for Inactive)
REMARK    1  A    between atoms: N_4  and  O_10
REMARK    2  A    between atoms: O_10  and  N_13
REMARK                            x       y       z     vdW  Elec       q    Type
REMARK                         _______ _______ _______ _____ _____    ______ ____
ROOT
ATOM      1  F   UNL     1     -36.795  63.094  -3.555  0.00  0.00    +0.000 F 
ATOM      2  O   UNL     1     -35.503  60.678  -4.106  0.00  0.00    +0.000 OA
ATOM      3  O   UNL     1     -37.090  61.072  -8.488  0.00  0.00    +0.000 OA
ATOM      4  N   UNL     1     -36.408  60.751  -6.264  0.00  0.00    +0.000 N 
ATOM      5  N   UNL     1     -36.933  62.445  -4.722  0.00  0.00    +0.000 N 
ATOM      6  C   UNL     1     -36.217  61.231  -4.938  0.00  0.00    +0.000 A 
ATOM      7  C   UNL     1     -37.058  61.401  -7.314  0.00  0.00    +0.000 A 
ATOM      8  C   UNL     1     -37.687  62.613  -6.844  0.00  0.00    +0.000 A 
ATOM      9  C   UNL     1     -37.612  63.029  -5.727  0.00  0.00    +0.000 A 
ENDROOT
BRANCH   4  10
ATOM     10  O   UNL     1     -35.667  59.605  -6.607  0.00  0.00    +0.000 OA
BRANCH  10  13
ATOM     11  O   UNL     1     -37.553  58.447  -6.207  0.00  0.00    +0.000 OA
ATOM     12  O   UNL     1     -35.569  57.416  -6.275  0.00  0.00    +0.000 OA
ATOM     13  N   UNL     1     -36.328  58.381  -6.335  0.00  0.00    +0.000 N 
ENDBRANCH  10  13
ENDBRANCH   4  10
TORSDOF 2
ENDMDL
MODEL 8
REMARK VINA RESULT:      -3.6      8.017      9.798
REMARK  Name = 146026348_FluorouracilMononitrate.pdbqt.pdb
REMARK  2 active torsions:
REMARK  status: ('A' for Active; 'I' for Inactive)
REMARK    1  A    between atoms: N_4  and  O_10
REMARK    2  A    between atoms: O_10  and  N_13
REMARK                            x       y       z     vdW  Elec       q    Type
REMARK                         _______ _______ _______ _____ _____    ______ ____
ROOT
ATOM      1  F   UNL     1     -31.931  45.515 -17.366  0.00  0.00    +0.000 F 
ATOM      2  O   UNL     1     -33.184  47.730 -18.520  0.00  0.00    +0.000 OA
ATOM      3  O   UNL     1     -35.320  48.397 -14.413  0.00  0.00    +0.000 OA
ATOM      4  N   UNL     1     -34.396  48.007 -16.537  0.00  0.00    +0.000 N 
ATOM      5  N   UNL     1     -32.898  46.208 -16.745  0.00  0.00    +0.000 N 
ATOM      6  C   UNL     1     -33.469  47.345 -17.389  0.00  0.00    +0.000 A 
ATOM      7  C   UNL     1     -34.647  47.739 -15.190  0.00  0.00    +0.000 A 
ATOM      8  C   UNL     1     -33.941  46.551 -14.772  0.00  0.00    +0.000 A 
ATOM      9  C   UNL     1     -33.200  45.922 -15.465  0.00  0.00    +0.000 A 
ENDROOT
BRANCH   4  10
ATOM     10  O   UNL     1     -34.946  49.197 -17.046  0.00  0.00    +0.000 OA
BRANCH  10  13
ATOM     11  O   UNL     1     -35.991  49.523 -19.011  0.00  0.00    +0.000 OA
ATOM     12  O   UNL     1     -36.959  48.334 -17.384  0.00  0.00    +0.000 OA
ATOM     13  N   UNL     1     -36.066  49.006 -17.893  0.00  0.00    +0.000 N 
ENDBRANCH  10  13
ENDBRANCH   4  10
TORSDOF 2
ENDMDL
MODEL 9
REMARK VINA RESULT:      -3.6      1.500      2.721
REMARK  Name = 146026348_FluorouracilMononitrate.pdbqt.pdb
REMARK  2 active torsions:
REMARK  status: ('A' for Active; 'I' for Inactive)
REMARK    1  A    between atoms: N_4  and  O_10
REMARK    2  A    between atoms: O_10  and  N_13
REMARK                            x       y       z     vdW  Elec       q    Type
REMARK                         _______ _______ _______ _____ _____    ______ ____
ROOT
ATOM      1  F   UNL     1     -34.808  44.672 -11.581  0.00  0.00    +0.000 F 
ATOM      2  O   UNL     1     -33.492  44.936  -9.130  0.00  0.00    +0.000 OA
ATOM      3  O   UNL     1     -37.028  47.677  -7.766  0.00  0.00    +0.000 OA
ATOM      4  N   UNL     1     -35.156  46.440  -8.462  0.00  0.00    +0.000 N 
ATOM      5  N   UNL     1     -35.220  45.515 -10.622  0.00  0.00    +0.000 N 
ATOM      6  C   UNL     1     -34.511  45.572  -9.386  0.00  0.00    +0.000 A 
ATOM      7  C   UNL     1     -36.398  47.061  -8.610  0.00  0.00    +0.000 A 
ATOM      8  C   UNL     1     -36.916  46.841  -9.940  0.00  0.00    +0.000 A 
ATOM      9  C   UNL     1     -36.385  46.173 -10.774  0.00  0.00    +0.000 A 
ENDROOT
BRANCH   4  10
ATOM     10  O   UNL     1     -34.585  46.493  -7.178  0.00  0.00    +0.000 OA
BRANCH  10  13
ATOM     11  O   UNL     1     -35.301  44.455  -6.554  0.00  0.00    +0.000 OA
ATOM     12  O   UNL     1     -35.547  46.218  -5.200  0.00  0.00    +0.000 OA
ATOM     13  N   UNL     1     -35.202  45.641  -6.229  0.00  0.00    +0.000 N 
ENDBRANCH  10  13
ENDBRANCH   4  10
TORSDOF 2
ENDMDL
