MODEL 1
REMARK VINA RESULT:      -7.3      0.000      0.000
REMARK  Name = 179268_Nortopsentin.pdbqt.pdb
REMARK  2 active torsions:
REMARK  status: ('A' for Active; 'I' for Inactive)
REMARK    1  A    between atoms: C_3  and  C_9
REMARK    2  A    between atoms: C_4  and  C_20
REMARK                            x       y       z     vdW  Elec       q    Type
REMARK                         _______ _______ _______ _____ _____    ______ ____
ROOT
ATOM      1  N   UNL     1     -17.318  54.911 -26.897  0.00  0.00    +0.000 N 
ATOM      2  N   UNL     1     -15.496  53.698 -27.215  0.00  0.00    +0.000 NA
ATOM      3  C   UNL     1     -17.210  54.750 -28.251  0.00  0.00    +0.000 A 
ATOM      4  C   UNL     1     -16.264  54.262 -26.306  0.00  0.00    +0.000 A 
ATOM      5  C   UNL     1     -16.073  53.994 -28.426  0.00  0.00    +0.000 A 
ATOM      6  H   UNL     1     -18.040  55.416 -26.406  0.00  0.00    +0.000 HD
ENDROOT
BRANCH   3   9
ATOM      7 BR   UNL     1     -21.972  53.269 -33.522  0.00  0.00    +0.000 Br
ATOM      8  N   UNL     1     -19.204  56.746 -30.549  0.00  0.00    +0.000 N 
ATOM      9  C   UNL     1     -18.121  55.276 -29.287  0.00  0.00    +0.000 A 
ATOM     10  C   UNL     1     -18.952  54.555 -30.191  0.00  0.00    +0.000 A 
ATOM     11  C   UNL     1     -19.620  55.505 -30.971  0.00  0.00    +0.000 A 
ATOM     12  C   UNL     1     -18.299  56.618 -29.533  0.00  0.00    +0.000 A 
ATOM     13  C   UNL     1     -19.209  53.191 -30.431  0.00  0.00    +0.000 A 
ATOM     14  C   UNL     1     -20.530  55.161 -31.977  0.00  0.00    +0.000 A 
ATOM     15  C   UNL     1     -20.113  52.826 -31.429  0.00  0.00    +0.000 A 
ATOM     16  C   UNL     1     -20.756  53.800 -32.182  0.00  0.00    +0.000 A 
ATOM     17  H   UNL     1     -19.520  57.627 -30.933  0.00  0.00    +0.000 HD
ENDBRANCH   3   9
BRANCH   4  20
ATOM     18 BR   UNL     1     -16.538  57.806 -19.992  0.00  0.00    +0.000 Br
ATOM     19  N   UNL     1     -15.464  53.414 -22.847  0.00  0.00    +0.000 N 
ATOM     20  C   UNL     1     -16.028  54.204 -24.842  0.00  0.00    +0.000 A 
ATOM     21  C   UNL     1     -16.237  55.235 -23.884  0.00  0.00    +0.000 A 
ATOM     22  C   UNL     1     -15.875  54.711 -22.640  0.00  0.00    +0.000 A 
ATOM     23  C   UNL     1     -15.552  53.098 -24.175  0.00  0.00    +0.000 A 
ATOM     24  C   UNL     1     -16.699  56.564 -23.947  0.00  0.00    +0.000 A 
ATOM     25  C   UNL     1     -15.950  55.446 -21.454  0.00  0.00    +0.000 A 
ATOM     26  C   UNL     1     -16.782  57.317 -22.774  0.00  0.00    +0.000 A 
ATOM     27  C   UNL     1     -16.412  56.759 -21.557  0.00  0.00    +0.000 A 
ATOM     28  H   UNL     1     -15.144  52.787 -22.120  0.00  0.00    +0.000 HD
ENDBRANCH   4  20
TORSDOF 2
ENDMDL
MODEL 2
REMARK VINA RESULT:      -7.2      0.559      8.830
REMARK  Name = 179268_Nortopsentin.pdbqt.pdb
REMARK  2 active torsions:
REMARK  status: ('A' for Active; 'I' for Inactive)
REMARK    1  A    between atoms: C_3  and  C_9
REMARK    2  A    between atoms: C_4  and  C_20
REMARK                            x       y       z     vdW  Elec       q    Type
REMARK                         _______ _______ _______ _____ _____    ______ ____
ROOT
ATOM      1  N   UNL     1     -17.350  55.224 -26.796  0.00  0.00    +0.000 N 
ATOM      2  N   UNL     1     -16.282  53.978 -28.280  0.00  0.00    +0.000 NA
ATOM      3  C   UNL     1     -16.404  54.533 -26.090  0.00  0.00    +0.000 A 
ATOM      4  C   UNL     1     -17.245  54.861 -28.115  0.00  0.00    +0.000 A 
ATOM      5  C   UNL     1     -15.754  53.766 -27.030  0.00  0.00    +0.000 A 
ATOM      6  H   UNL     1     -18.014  55.887 -26.426  0.00  0.00    +0.000 HD
ENDROOT
BRANCH   3   9
ATOM      7 BR   UNL     1     -16.577  58.539 -20.043  0.00  0.00    +0.000 Br
ATOM      8  N   UNL     1     -15.541  53.959 -22.602  0.00  0.00    +0.000 N 
ATOM      9  C   UNL     1     -16.148  54.603 -24.637  0.00  0.00    +0.000 A 
ATOM     10  C   UNL     1     -16.343  55.700 -23.751  0.00  0.00    +0.000 A 
ATOM     11  C   UNL     1     -15.954  55.266 -22.480  0.00  0.00    +0.000 A 
ATOM     12  C   UNL     1     -15.656  53.551 -23.901  0.00  0.00    +0.000 A 
ATOM     13  C   UNL     1     -16.811  57.021 -23.894  0.00  0.00    +0.000 A 
ATOM     14  C   UNL     1     -16.008  56.084 -21.345  0.00  0.00    +0.000 A 
ATOM     15  C   UNL     1     -16.874  57.853 -22.777  0.00  0.00    +0.000 A 
ATOM     16  C   UNL     1     -16.478  57.385 -21.530  0.00  0.00    +0.000 A 
ATOM     17  H   UNL     1     -15.203  53.383 -21.843  0.00  0.00    +0.000 HD
ENDBRANCH   3   9
BRANCH   4  20
ATOM     18 BR   UNL     1     -21.760  53.323 -33.569  0.00  0.00    +0.000 Br
ATOM     19  N   UNL     1     -19.112  56.848 -30.543  0.00  0.00    +0.000 N 
ATOM     20  C   UNL     1     -18.100  55.397 -29.204  0.00  0.00    +0.000 A 
ATOM     21  C   UNL     1     -18.893  54.663 -30.131  0.00  0.00    +0.000 A 
ATOM     22  C   UNL     1     -19.516  55.599 -30.959  0.00  0.00    +0.000 A 
ATOM     23  C   UNL     1     -18.255  56.736 -29.482  0.00  0.00    +0.000 A 
ATOM     24  C   UNL     1     -19.144  53.295 -30.350  0.00  0.00    +0.000 A 
ATOM     25  C   UNL     1     -20.380  55.240 -31.998  0.00  0.00    +0.000 A 
ATOM     26  C   UNL     1     -20.003  52.913 -31.382  0.00  0.00    +0.000 A 
ATOM     27  C   UNL     1     -20.604  53.875 -32.184  0.00  0.00    +0.000 A 
ATOM     28  H   UNL     1     -19.407  57.719 -30.963  0.00  0.00    +0.000 HD
ENDBRANCH   4  20
TORSDOF 2
ENDMDL
MODEL 3
REMARK VINA RESULT:      -6.8     13.497     14.873
REMARK  Name = 179268_Nortopsentin.pdbqt.pdb
REMARK  2 active torsions:
REMARK  status: ('A' for Active; 'I' for Inactive)
REMARK    1  A    between atoms: C_3  and  C_9
REMARK    2  A    between atoms: C_4  and  C_20
REMARK                            x       y       z     vdW  Elec       q    Type
REMARK                         _______ _______ _______ _____ _____    ______ ____
ROOT
ATOM      1  N   UNL     1     -29.592  62.800 -24.257  0.00  0.00    +0.000 N 
ATOM      2  N   UNL     1     -31.481  61.710 -23.883  0.00  0.00    +0.000 NA
ATOM      3  C   UNL     1     -29.573  61.724 -25.100  0.00  0.00    +0.000 A 
ATOM      4  C   UNL     1     -30.760  62.757 -23.538  0.00  0.00    +0.000 A 
ATOM      5  C   UNL     1     -30.754  61.061 -24.851  0.00  0.00    +0.000 A 
ATOM      6  H   UNL     1     -28.881  63.509 -24.167  0.00  0.00    +0.000 HD
ENDROOT
BRANCH   3   9
ATOM      7 BR   UNL     1     -27.907  59.409 -31.772  0.00  0.00    +0.000 Br
ATOM      8  N   UNL     1     -26.477  61.018 -26.877  0.00  0.00    +0.000 N 
ATOM      9  C   UNL     1     -28.513  61.363 -26.061  0.00  0.00    +0.000 A 
ATOM     10  C   UNL     1     -28.646  60.912 -27.406  0.00  0.00    +0.000 A 
ATOM     11  C   UNL     1     -27.351  60.704 -27.892  0.00  0.00    +0.000 A 
ATOM     12  C   UNL     1     -27.170  61.417 -25.769  0.00  0.00    +0.000 A 
ATOM     13  C   UNL     1     -29.733  60.658 -28.264  0.00  0.00    +0.000 A 
ATOM     14  C   UNL     1     -27.088  60.255 -29.191  0.00  0.00    +0.000 A 
ATOM     15  C   UNL     1     -29.494  60.210 -29.564  0.00  0.00    +0.000 A 
ATOM     16  C   UNL     1     -28.192  60.015 -30.009  0.00  0.00    +0.000 A 
ATOM     17  H   UNL     1     -25.469  60.964 -26.939  0.00  0.00    +0.000 HD
ENDBRANCH   3   9
BRANCH   4  20
ATOM     18 BR   UNL     1     -28.958  66.156 -17.397  0.00  0.00    +0.000 Br
ATOM     19  N   UNL     1     -32.346  65.292 -21.443  0.00  0.00    +0.000 N 
ATOM     20  C   UNL     1     -31.154  63.757 -22.514  0.00  0.00    +0.000 A 
ATOM     21  C   UNL     1     -30.426  64.154 -21.358  0.00  0.00    +0.000 A 
ATOM     22  C   UNL     1     -31.198  65.118 -20.704  0.00  0.00    +0.000 A 
ATOM     23  C   UNL     1     -32.329  64.473 -22.539  0.00  0.00    +0.000 A 
ATOM     24  C   UNL     1     -29.185  63.791 -20.798  0.00  0.00    +0.000 A 
ATOM     25  C   UNL     1     -30.795  65.740 -19.519  0.00  0.00    +0.000 A 
ATOM     26  C   UNL     1     -28.763  64.399 -19.614  0.00  0.00    +0.000 A 
ATOM     27  C   UNL     1     -29.560  65.354 -18.996  0.00  0.00    +0.000 A 
ATOM     28  H   UNL     1     -33.092  65.932 -21.207  0.00  0.00    +0.000 HD
ENDBRANCH   4  20
TORSDOF 2
ENDMDL
MODEL 4
REMARK VINA RESULT:      -6.7     13.609     16.702
REMARK  Name = 179268_Nortopsentin.pdbqt.pdb
REMARK  2 active torsions:
REMARK  status: ('A' for Active; 'I' for Inactive)
REMARK    1  A    between atoms: C_3  and  C_9
REMARK    2  A    between atoms: C_4  and  C_20
REMARK                            x       y       z     vdW  Elec       q    Type
REMARK                         _______ _______ _______ _____ _____    ______ ____
ROOT
ATOM      1  N   UNL     1     -29.591  62.850 -24.144  0.00  0.00    +0.000 N 
ATOM      2  N   UNL     1     -30.716  61.046 -24.754  0.00  0.00    +0.000 NA
ATOM      3  C   UNL     1     -30.738  62.859 -23.400  0.00  0.00    +0.000 A 
ATOM      4  C   UNL     1     -29.614  61.740 -24.950  0.00  0.00    +0.000 A 
ATOM      5  C   UNL     1     -31.422  61.731 -23.795  0.00  0.00    +0.000 A 
ATOM      6  H   UNL     1     -28.849  63.533 -24.116  0.00  0.00    +0.000 HD
ENDROOT
BRANCH   3   9
ATOM      7 BR   UNL     1     -29.257  66.142 -17.102  0.00  0.00    +0.000 Br
ATOM      8  N   UNL     1     -32.343  65.450 -21.413  0.00  0.00    +0.000 N 
ATOM      9  C   UNL     1     -31.143  63.863 -22.397  0.00  0.00    +0.000 A 
ATOM     10  C   UNL     1     -30.492  64.221 -21.182  0.00  0.00    +0.000 A 
ATOM     11  C   UNL     1     -31.268  65.220 -20.586  0.00  0.00    +0.000 A 
ATOM     12  C   UNL     1     -32.276  64.636 -22.508  0.00  0.00    +0.000 A 
ATOM     13  C   UNL     1     -29.320  63.801 -20.523  0.00  0.00    +0.000 A 
ATOM     14  C   UNL     1     -30.934  65.820 -19.367  0.00  0.00    +0.000 A 
ATOM     15  C   UNL     1     -28.967  64.386 -19.306  0.00  0.00    +0.000 A 
ATOM     16  C   UNL     1     -29.766  65.376 -18.747  0.00  0.00    +0.000 A 
ATOM     17  H   UNL     1     -33.077  66.124 -21.239  0.00  0.00    +0.000 HD
ENDBRANCH   3   9
BRANCH   4  20
ATOM     18 BR   UNL     1     -27.995  59.433 -31.626  0.00  0.00    +0.000 Br
ATOM     19  N   UNL     1     -26.514  61.018 -26.738  0.00  0.00    +0.000 N 
ATOM     20  C   UNL     1     -28.541  61.376 -25.909  0.00  0.00    +0.000 A 
ATOM     21  C   UNL     1     -28.686  60.930 -27.252  0.00  0.00    +0.000 A 
ATOM     22  C   UNL     1     -27.398  60.713 -27.748  0.00  0.00    +0.000 A 
ATOM     23  C   UNL     1     -27.196  61.420 -25.621  0.00  0.00    +0.000 A 
ATOM     24  C   UNL     1     -29.785  60.688 -28.100  0.00  0.00    +0.000 A 
ATOM     25  C   UNL     1     -27.149  60.266 -29.049  0.00  0.00    +0.000 A 
ATOM     26  C   UNL     1     -29.559  60.241 -29.403  0.00  0.00    +0.000 A 
ATOM     27  C   UNL     1     -28.263  60.037 -29.858  0.00  0.00    +0.000 A 
ATOM     28  H   UNL     1     -25.508  60.954 -26.813  0.00  0.00    +0.000 HD
ENDBRANCH   4  20
TORSDOF 2
ENDMDL
MODEL 5
REMARK VINA RESULT:      -6.6     24.027     25.549
REMARK  Name = 179268_Nortopsentin.pdbqt.pdb
REMARK  2 active torsions:
REMARK  status: ('A' for Active; 'I' for Inactive)
REMARK    1  A    between atoms: C_3  and  C_9
REMARK    2  A    between atoms: C_4  and  C_20
REMARK                            x       y       z     vdW  Elec       q    Type
REMARK                         _______ _______ _______ _____ _____    ______ ____
ROOT
ATOM      1  N   UNL     1     -33.261  45.175 -10.445  0.00  0.00    +0.000 N 
ATOM      2  N   UNL     1     -34.491  43.479  -9.734  0.00  0.00    +0.000 NA
ATOM      3  C   UNL     1     -33.770  44.587 -11.570  0.00  0.00    +0.000 A 
ATOM      4  C   UNL     1     -33.719  44.477  -9.357  0.00  0.00    +0.000 A 
ATOM      5  C   UNL     1     -34.530  43.538 -11.106  0.00  0.00    +0.000 A 
ATOM      6  H   UNL     1     -32.654  45.980 -10.407  0.00  0.00    +0.000 HD
ENDROOT
BRANCH   3   9
ATOM      7 BR   UNL     1     -35.572  49.071 -16.983  0.00  0.00    +0.000 Br
ATOM      8  N   UNL     1     -32.686  45.022 -15.017  0.00  0.00    +0.000 N 
ATOM      9  C   UNL     1     -33.546  44.999 -12.971  0.00  0.00    +0.000 A 
ATOM     10  C   UNL     1     -34.185  46.036 -13.707  0.00  0.00    +0.000 A 
ATOM     11  C   UNL     1     -33.625  46.027 -14.988  0.00  0.00    +0.000 A 
ATOM     12  C   UNL     1     -32.631  44.397 -13.803  0.00  0.00    +0.000 A 
ATOM     13  C   UNL     1     -35.185  46.986 -13.420  0.00  0.00    +0.000 A 
ATOM     14  C   UNL     1     -34.012  46.918 -15.996  0.00  0.00    +0.000 A 
ATOM     15  C   UNL     1     -35.586  47.884 -14.410  0.00  0.00    +0.000 A 
ATOM     16  C   UNL     1     -35.005  47.842 -15.671  0.00  0.00    +0.000 A 
ATOM     17  H   UNL     1     -32.117  44.780 -15.817  0.00  0.00    +0.000 HD
ENDBRANCH   3   9
BRANCH   4  20
ATOM     18 BR   UNL     1     -33.776  42.270  -2.455  0.00  0.00    +0.000 Br
ATOM     19  N   UNL     1     -32.656  45.936  -6.183  0.00  0.00    +0.000 N 
ATOM     20  C   UNL     1     -33.388  44.807  -7.948  0.00  0.00    +0.000 A 
ATOM     21  C   UNL     1     -33.589  44.001  -6.793  0.00  0.00    +0.000 A 
ATOM     22  C   UNL     1     -33.122  44.734  -5.700  0.00  0.00    +0.000 A 
ATOM     23  C   UNL     1     -32.813  45.990  -7.542  0.00  0.00    +0.000 A 
ATOM     24  C   UNL     1     -34.124  42.717  -6.565  0.00  0.00    +0.000 A 
ATOM     25  C   UNL     1     -33.159  44.253  -4.388  0.00  0.00    +0.000 A 
ATOM     26  C   UNL     1     -34.172  42.218  -5.262  0.00  0.00    +0.000 A 
ATOM     27  C   UNL     1     -33.696  42.978  -4.202  0.00  0.00    +0.000 A 
ATOM     28  H   UNL     1     -32.257  46.671  -5.615  0.00  0.00    +0.000 HD
ENDBRANCH   4  20
TORSDOF 2
ENDMDL
MODEL 6
REMARK VINA RESULT:      -6.6      3.173      9.877
REMARK  Name = 179268_Nortopsentin.pdbqt.pdb
REMARK  2 active torsions:
REMARK  status: ('A' for Active; 'I' for Inactive)
REMARK    1  A    between atoms: C_3  and  C_9
REMARK    2  A    between atoms: C_4  and  C_20
REMARK                            x       y       z     vdW  Elec       q    Type
REMARK                         _______ _______ _______ _____ _____    ______ ____
ROOT
ATOM      1  N   UNL     1     -20.422  55.226 -31.472  0.00  0.00    +0.000 N 
ATOM      2  N   UNL     1     -19.587  53.380 -32.361  0.00  0.00    +0.000 NA
ATOM      3  C   UNL     1     -19.322  54.917 -30.722  0.00  0.00    +0.000 A 
ATOM      4  C   UNL     1     -20.549  54.274 -32.452  0.00  0.00    +0.000 A 
ATOM      5  C   UNL     1     -18.819  53.768 -31.290  0.00  0.00    +0.000 A 
ATOM      6  H   UNL     1     -21.041  56.011 -31.341  0.00  0.00    +0.000 HD
ENDROOT
BRANCH   3   9
ATOM      7 BR   UNL     1     -15.947  54.631 -24.305  0.00  0.00    +0.000 Br
ATOM      8  N   UNL     1     -18.303  57.377 -28.241  0.00  0.00    +0.000 N 
ATOM      9  C   UNL     1     -18.799  55.660 -29.558  0.00  0.00    +0.000 A 
ATOM     10  C   UNL     1     -18.140  55.154 -28.401  0.00  0.00    +0.000 A 
ATOM     11  C   UNL     1     -17.841  56.256 -27.593  0.00  0.00    +0.000 A 
ATOM     12  C   UNL     1     -18.883  57.027 -29.428  0.00  0.00    +0.000 A 
ATOM     13  C   UNL     1     -17.764  53.873 -27.954  0.00  0.00    +0.000 A 
ATOM     14  C   UNL     1     -17.187  56.141 -26.360  0.00  0.00    +0.000 A 
ATOM     15  C   UNL     1     -17.110  53.736 -26.729  0.00  0.00    +0.000 A 
ATOM     16  C   UNL     1     -16.832  54.855 -25.955  0.00  0.00    +0.000 A 
ATOM     17  H   UNL     1     -18.227  58.323 -27.893  0.00  0.00    +0.000 HD
ENDBRANCH   3   9
BRANCH   4  20
ATOM     18 BR   UNL     1     -27.174  51.936 -34.227  0.00  0.00    +0.000 Br
ATOM     19  N   UNL     1     -22.720  54.668 -35.361  0.00  0.00    +0.000 N 
ATOM     20  C   UNL     1     -21.625  54.259 -33.475  0.00  0.00    +0.000 A 
ATOM     21  C   UNL     1     -22.889  53.609 -33.402  0.00  0.00    +0.000 A 
ATOM     22  C   UNL     1     -23.554  53.882 -34.600  0.00  0.00    +0.000 A 
ATOM     23  C   UNL     1     -21.550  54.902 -34.690  0.00  0.00    +0.000 A 
ATOM     24  C   UNL     1     -23.536  52.813 -32.437  0.00  0.00    +0.000 A 
ATOM     25  C   UNL     1     -24.836  53.401 -34.885  0.00  0.00    +0.000 A 
ATOM     26  C   UNL     1     -24.816  52.321 -32.701  0.00  0.00    +0.000 A 
ATOM     27  C   UNL     1     -25.444  52.616 -33.904  0.00  0.00    +0.000 A 
ATOM     28  H   UNL     1     -22.941  55.020 -36.283  0.00  0.00    +0.000 HD
ENDBRANCH   4  20
TORSDOF 2
ENDMDL
MODEL 7
REMARK VINA RESULT:      -6.6     18.968     19.596
REMARK  Name = 179268_Nortopsentin.pdbqt.pdb
REMARK  2 active torsions:
REMARK  status: ('A' for Active; 'I' for Inactive)
REMARK    1  A    between atoms: C_3  and  C_9
REMARK    2  A    between atoms: C_4  and  C_20
REMARK                            x       y       z     vdW  Elec       q    Type
REMARK                         _______ _______ _______ _____ _____    ______ ____
ROOT
ATOM      1  N   UNL     1     -33.853  47.697 -19.133  0.00  0.00    +0.000 N 
ATOM      2  N   UNL     1     -35.655  46.949 -18.091  0.00  0.00    +0.000 NA
ATOM      3  C   UNL     1     -34.910  48.029 -19.934  0.00  0.00    +0.000 A 
ATOM      4  C   UNL     1     -34.343  47.046 -18.029  0.00  0.00    +0.000 A 
ATOM      5  C   UNL     1     -36.018  47.556 -19.268  0.00  0.00    +0.000 A 
ATOM      6  H   UNL     1     -32.878  47.890 -19.309  0.00  0.00    +0.000 HD
ENDROOT
BRANCH   3   9
ATOM      7 BR   UNL     1     -35.095  47.561 -27.172  0.00  0.00    +0.000 Br
ATOM      8  N   UNL     1     -34.713  50.420 -22.670  0.00  0.00    +0.000 N 
ATOM      9  C   UNL     1     -34.860  48.740 -21.227  0.00  0.00    +0.000 A 
ATOM     10  C   UNL     1     -34.941  48.201 -22.543  0.00  0.00    +0.000 A 
ATOM     11  C   UNL     1     -34.846  49.280 -23.428  0.00  0.00    +0.000 A 
ATOM     12  C   UNL     1     -34.721  50.104 -21.341  0.00  0.00    +0.000 A 
ATOM     13  C   UNL     1     -35.086  46.906 -23.078  0.00  0.00    +0.000 A 
ATOM     14  C   UNL     1     -34.887  49.130 -24.819  0.00  0.00    +0.000 A 
ATOM     15  C   UNL     1     -35.130  46.734 -24.461  0.00  0.00    +0.000 A 
ATOM     16  C   UNL     1     -35.032  47.832 -25.307  0.00  0.00    +0.000 A 
ATOM     17  H   UNL     1     -34.623  51.357 -23.040  0.00  0.00    +0.000 HD
ENDBRANCH   3   9
BRANCH   4  20
ATOM     18 BR   UNL     1     -28.757  42.839 -16.132  0.00  0.00    +0.000 Br
ATOM     19  N   UNL     1     -32.733  46.183 -14.868  0.00  0.00    +0.000 N 
ATOM     20  C   UNL     1     -33.505  46.524 -16.921  0.00  0.00    +0.000 A 
ATOM     21  C   UNL     1     -32.401  45.631 -17.007  0.00  0.00    +0.000 A 
ATOM     22  C   UNL     1     -31.936  45.434 -15.705  0.00  0.00    +0.000 A 
ATOM     23  C   UNL     1     -33.685  46.846 -15.594  0.00  0.00    +0.000 A 
ATOM     24  C   UNL     1     -31.747  44.968 -18.064  0.00  0.00    +0.000 A 
ATOM     25  C   UNL     1     -30.850  44.608 -15.401  0.00  0.00    +0.000 A 
ATOM     26  C   UNL     1     -30.661  44.137 -17.783  0.00  0.00    +0.000 A 
ATOM     27  C   UNL     1     -30.229  43.968 -16.474  0.00  0.00    +0.000 A 
ATOM     28  H   UNL     1     -32.628  46.234 -13.864  0.00  0.00    +0.000 HD
ENDBRANCH   4  20
TORSDOF 2
ENDMDL
MODEL 8
REMARK VINA RESULT:      -6.5     22.599     23.709
REMARK  Name = 179268_Nortopsentin.pdbqt.pdb
REMARK  2 active torsions:
REMARK  status: ('A' for Active; 'I' for Inactive)
REMARK    1  A    between atoms: C_3  and  C_9
REMARK    2  A    between atoms: C_4  and  C_20
REMARK                            x       y       z     vdW  Elec       q    Type
REMARK                         _______ _______ _______ _____ _____    ______ ____
ROOT
ATOM      1  N   UNL     1     -33.986  45.793 -13.005  0.00  0.00    +0.000 N 
ATOM      2  N   UNL     1     -33.621  43.735 -12.281  0.00  0.00    +0.000 NA
ATOM      3  C   UNL     1     -33.489  45.104 -14.077  0.00  0.00    +0.000 A 
ATOM      4  C   UNL     1     -34.050  44.931 -11.939  0.00  0.00    +0.000 A 
ATOM      5  C   UNL     1     -33.269  43.830 -13.606  0.00  0.00    +0.000 A 
ATOM      6  H   UNL     1     -34.260  46.763 -12.987  0.00  0.00    +0.000 HD
ENDROOT
BRANCH   3   9
ATOM      7 BR   UNL     1     -35.177  50.042 -19.118  0.00  0.00    +0.000 Br
ATOM      8  N   UNL     1     -32.366  45.804 -17.467  0.00  0.00    +0.000 N 
ATOM      9  C   UNL     1     -33.246  45.625 -15.437  0.00  0.00    +0.000 A 
ATOM     10  C   UNL     1     -33.864  46.729 -16.091  0.00  0.00    +0.000 A 
ATOM     11  C   UNL     1     -33.291  46.817 -17.364  0.00  0.00    +0.000 A 
ATOM     12  C   UNL     1     -32.332  45.080 -16.308  0.00  0.00    +0.000 A 
ATOM     13  C   UNL     1     -34.853  47.667 -15.735  0.00  0.00    +0.000 A 
ATOM     14  C   UNL     1     -33.656  47.793 -18.299  0.00  0.00    +0.000 A 
ATOM     15  C   UNL     1     -35.232  48.649 -16.651  0.00  0.00    +0.000 A 
ATOM     16  C   UNL     1     -34.639  48.702 -17.906  0.00  0.00    +0.000 A 
ATOM     17  H   UNL     1     -31.793  45.620 -18.280  0.00  0.00    +0.000 HD
ENDBRANCH   3   9
BRANCH   4  20
ATOM     18 BR   UNL     1     -32.888  44.636  -4.793  0.00  0.00    +0.000 Br
ATOM     19  N   UNL     1     -35.820  46.167  -8.994  0.00  0.00    +0.000 N 
ATOM     20  C   UNL     1     -34.540  45.303 -10.588  0.00  0.00    +0.000 A 
ATOM     21  C   UNL     1     -33.938  45.011  -9.332  0.00  0.00    +0.000 A 
ATOM     22  C   UNL     1     -34.763  45.565  -8.350  0.00  0.00    +0.000 A 
ATOM     23  C   UNL     1     -35.694  46.013 -10.349  0.00  0.00    +0.000 A 
ATOM     24  C   UNL     1     -32.772  44.331  -8.929  0.00  0.00    +0.000 A 
ATOM     25  C   UNL     1     -34.485  45.475  -6.983  0.00  0.00    +0.000 A 
ATOM     26  C   UNL     1     -32.475  44.228  -7.568  0.00  0.00    +0.000 A 
ATOM     27  C   UNL     1     -33.321  44.793  -6.623  0.00  0.00    +0.000 A 
ATOM     28  H   UNL     1     -36.578  46.650  -8.532  0.00  0.00    +0.000 HD
ENDBRANCH   4  20
TORSDOF 2
ENDMDL
MODEL 9
REMARK VINA RESULT:      -6.5      5.096     10.934
REMARK  Name = 179268_Nortopsentin.pdbqt.pdb
REMARK  2 active torsions:
REMARK  status: ('A' for Active; 'I' for Inactive)
REMARK    1  A    between atoms: C_3  and  C_9
REMARK    2  A    between atoms: C_4  and  C_20
REMARK                            x       y       z     vdW  Elec       q    Type
REMARK                         _______ _______ _______ _____ _____    ______ ____
ROOT
ATOM      1  N   UNL     1     -16.964  57.739 -20.303  0.00  0.00    +0.000 N 
ATOM      2  N   UNL     1     -14.782  57.627 -20.648  0.00  0.00    +0.000 NA
ATOM      3  C   UNL     1     -16.382  58.217 -19.161  0.00  0.00    +0.000 A 
ATOM      4  C   UNL     1     -15.965  57.393 -21.177  0.00  0.00    +0.000 A 
ATOM      5  C   UNL     1     -15.028  58.139 -19.397  0.00  0.00    +0.000 A 
ATOM      6  H   UNL     1     -17.952  57.650 -20.484  0.00  0.00    +0.000 HD
ENDROOT
BRANCH   3   9
ATOM      7 BR   UNL     1     -19.970  63.640 -15.941  0.00  0.00    +0.000 Br
ATOM      8  N   UNL     1     -17.881  58.718 -15.883  0.00  0.00    +0.000 N 
ATOM      9  C   UNL     1     -17.067  58.707 -17.948  0.00  0.00    +0.000 A 
ATOM     10  C   UNL     1     -17.694  59.966 -17.727  0.00  0.00    +0.000 A 
ATOM     11  C   UNL     1     -18.196  59.944 -16.422  0.00  0.00    +0.000 A 
ATOM     12  C   UNL     1     -17.200  57.965 -16.798  0.00  0.00    +0.000 A 
ATOM     13  C   UNL     1     -17.889  61.127 -18.500  0.00  0.00    +0.000 A 
ATOM     14  C   UNL     1     -18.882  61.022 -15.851  0.00  0.00    +0.000 A 
ATOM     15  C   UNL     1     -18.571  62.213 -17.951  0.00  0.00    +0.000 A 
ATOM     16  C   UNL     1     -19.054  62.152 -16.650  0.00  0.00    +0.000 A 
ATOM     17  H   UNL     1     -18.118  58.415 -14.948  0.00  0.00    +0.000 HD
ENDBRANCH   3   9
BRANCH   4  20
ATOM     18 BR   UNL     1     -15.532  51.567 -25.464  0.00  0.00    +0.000 Br
ATOM     19  N   UNL     1     -16.768  56.709 -24.672  0.00  0.00    +0.000 N 
ATOM     20  C   UNL     1     -16.192  56.833 -22.533  0.00  0.00    +0.000 A 
ATOM     21  C   UNL     1     -15.942  55.505 -22.981  0.00  0.00    +0.000 A 
ATOM     22  C   UNL     1     -16.312  55.456 -24.327  0.00  0.00    +0.000 A 
ATOM     23  C   UNL     1     -16.698  57.549 -23.594  0.00  0.00    +0.000 A 
ATOM     24  C   UNL     1     -15.438  54.337 -22.377  0.00  0.00    +0.000 A 
ATOM     25  C   UNL     1     -16.206  54.299 -25.104  0.00  0.00    +0.000 A 
ATOM     26  C   UNL     1     -15.322  53.170 -23.135  0.00  0.00    +0.000 A 
ATOM     27  C   UNL     1     -15.702  53.162 -24.470  0.00  0.00    +0.000 A 
ATOM     28  H   UNL     1     -17.103  56.968 -25.590  0.00  0.00    +0.000 HD
ENDBRANCH   4  20
TORSDOF 2
ENDMDL
