MODEL 1
REMARK VINA RESULT:      -4.2      0.000      0.000
REMARK  Name = 21574552_Mertensene.pdbqt.pdb
REMARK  1 active torsions:
REMARK  status: ('A' for Active; 'I' for Inactive)
REMARK    1  A    between atoms: C_4  and  C_13
REMARK                            x       y       z     vdW  Elec       q    Type
REMARK                         _______ _______ _______ _____ _____    ______ ____
ROOT
ATOM      1 BR   UNL     1     -36.386  47.035  -8.806  0.00  0.00    +0.000 Br
ATOM      2 CL   UNL     1     -33.995  41.961  -6.831  0.00  0.00    +0.000 Cl
ATOM      3 CL   UNL     1     -36.708  43.060  -5.089  0.00  0.00    +0.000 Cl
ATOM      4  C   UNL     1     -33.874  45.620  -8.017  0.00  0.00    +0.000 C 
ATOM      5  C   UNL     1     -33.557  44.511  -7.111  0.00  0.00    +0.000 C 
ATOM      6  C   UNL     1     -34.104  43.589  -6.119  0.00  0.00    +0.000 C 
ATOM      7  C   UNL     1     -35.372  45.912  -7.749  0.00  0.00    +0.000 C 
ATOM      8  C   UNL     1     -35.568  44.013  -5.935  0.00  0.00    +0.000 C 
ATOM      9  C   UNL     1     -35.998  45.087  -6.768  0.00  0.00    +0.000 C 
ATOM     10  C   UNL     1     -33.037  46.865  -7.646  0.00  0.00    +0.000 C 
ATOM     11  C   UNL     1     -33.328  43.604  -4.798  0.00  0.00    +0.000 C 
ENDROOT
BRANCH   4  13
ATOM     12 CL   UNL     1     -33.272  44.419 -12.231  0.00  0.00    +0.000 Cl
ATOM     13  C   UNL     1     -33.678  45.215  -9.418  0.00  0.00    +0.000 C 
ATOM     14  C   UNL     1     -33.516  44.887 -10.561  0.00  0.00    +0.000 C 
ENDBRANCH   4  13
TORSDOF 1
ENDMDL
MODEL 2
REMARK VINA RESULT:      -4.1      2.843      4.772
REMARK  Name = 21574552_Mertensene.pdbqt.pdb
REMARK  1 active torsions:
REMARK  status: ('A' for Active; 'I' for Inactive)
REMARK    1  A    between atoms: C_4  and  C_13
REMARK                            x       y       z     vdW  Elec       q    Type
REMARK                         _______ _______ _______ _____ _____    ______ ____
ROOT
ATOM      1 BR   UNL     1     -36.877  43.042  -5.179  0.00  0.00    +0.000 Br
ATOM      2 CL   UNL     1     -33.082  46.752  -7.859  0.00  0.00    +0.000 Cl
ATOM      3 CL   UNL     1     -36.368  47.256  -8.599  0.00  0.00    +0.000 Cl
ATOM      4  C   UNL     1     -34.354  43.290  -6.762  0.00  0.00    +0.000 C 
ATOM      5  C   UNL     1     -33.835  44.265  -7.727  0.00  0.00    +0.000 C 
ATOM      6  C   UNL     1     -34.148  45.472  -8.487  0.00  0.00    +0.000 C 
ATOM      7  C   UNL     1     -35.817  43.741  -6.518  0.00  0.00    +0.000 C 
ATOM      8  C   UNL     1     -35.619  45.778  -8.174  0.00  0.00    +0.000 C 
ATOM      9  C   UNL     1     -36.238  44.897  -7.240  0.00  0.00    +0.000 C 
ATOM     10  C   UNL     1     -34.353  41.875  -7.383  0.00  0.00    +0.000 C 
ATOM     11  C   UNL     1     -33.899  45.314  -9.990  0.00  0.00    +0.000 C 
ENDROOT
BRANCH   4  13
ATOM     12 CL   UNL     1     -32.037  43.476  -2.999  0.00  0.00    +0.000 Cl
ATOM     13  C   UNL     1     -33.589  43.348  -5.507  0.00  0.00    +0.000 C 
ATOM     14  C   UNL     1     -32.962  43.397  -4.485  0.00  0.00    +0.000 C 
ENDBRANCH   4  13
TORSDOF 1
ENDMDL
MODEL 3
REMARK VINA RESULT:      -4.0     21.980     23.298
REMARK  Name = 21574552_Mertensene.pdbqt.pdb
REMARK  1 active torsions:
REMARK  status: ('A' for Active; 'I' for Inactive)
REMARK    1  A    between atoms: C_4  and  C_13
REMARK                            x       y       z     vdW  Elec       q    Type
REMARK                         _______ _______ _______ _____ _____    ______ ____
ROOT
ATOM      1 BR   UNL     1     -13.629  50.184   6.525  0.00  0.00    +0.000 Br
ATOM      2 CL   UNL     1     -17.347  51.220   2.002  0.00  0.00    +0.000 Cl
ATOM      3 CL   UNL     1     -14.872  53.526   2.401  0.00  0.00    +0.000 Cl
ATOM      4  C   UNL     1     -16.482  50.365   5.653  0.00  0.00    +0.000 C 
ATOM      5  C   UNL     1     -17.192  51.094   4.597  0.00  0.00    +0.000 C 
ATOM      6  C   UNL     1     -17.054  52.083   3.532  0.00  0.00    +0.000 C 
ATOM      7  C   UNL     1     -15.040  50.931   5.600  0.00  0.00    +0.000 C 
ATOM      8  C   UNL     1     -15.602  52.572   3.619  0.00  0.00    +0.000 C 
ATOM      9  C   UNL     1     -14.804  51.933   4.612  0.00  0.00    +0.000 C 
ATOM     10  C   UNL     1     -17.105  50.685   7.031  0.00  0.00    +0.000 C 
ATOM     11  C   UNL     1     -18.059  53.234   3.651  0.00  0.00    +0.000 C 
ENDROOT
BRANCH   4  13
ATOM     12 CL   UNL     1     -16.430  46.027   4.792  0.00  0.00    +0.000 Cl
ATOM     13  C   UNL     1     -16.472  48.922   5.368  0.00  0.00    +0.000 C 
ATOM     14  C   UNL     1     -16.460  47.744   5.135  0.00  0.00    +0.000 C 
ENDBRANCH   4  13
TORSDOF 1
ENDMDL
MODEL 4
REMARK VINA RESULT:      -3.9      2.947      4.702
REMARK  Name = 21574552_Mertensene.pdbqt.pdb
REMARK  1 active torsions:
REMARK  status: ('A' for Active; 'I' for Inactive)
REMARK    1  A    between atoms: C_4  and  C_13
REMARK                            x       y       z     vdW  Elec       q    Type
REMARK                         _______ _______ _______ _____ _____    ______ ____
ROOT
ATOM      1 BR   UNL     1     -36.642  44.620  -6.464  0.00  0.00    +0.000 Br
ATOM      2 CL   UNL     1     -35.725  45.255 -12.305  0.00  0.00    +0.000 Cl
ATOM      3 CL   UNL     1     -35.360  42.084 -11.117  0.00  0.00    +0.000 Cl
ATOM      4  C   UNL     1     -35.255  46.185  -8.600  0.00  0.00    +0.000 C 
ATOM      5  C   UNL     1     -34.792  45.887  -9.960  0.00  0.00    +0.000 C 
ATOM      6  C   UNL     1     -34.635  44.836 -10.961  0.00  0.00    +0.000 C 
ATOM      7  C   UNL     1     -35.708  44.810  -8.045  0.00  0.00    +0.000 C 
ATOM      8  C   UNL     1     -35.087  43.543 -10.268  0.00  0.00    +0.000 C 
ATOM      9  C   UNL     1     -35.566  43.705  -8.935  0.00  0.00    +0.000 C 
ATOM     10  C   UNL     1     -34.085  46.721  -7.745  0.00  0.00    +0.000 C 
ATOM     11  C   UNL     1     -33.204  44.732 -11.499  0.00  0.00    +0.000 C 
ENDROOT
BRANCH   4  13
ATOM     12 CL   UNL     1     -38.660  49.006  -8.707  0.00  0.00    +0.000 Cl
ATOM     13  C   UNL     1     -36.393  47.118  -8.636  0.00  0.00    +0.000 C 
ATOM     14  C   UNL     1     -37.318  47.882  -8.665  0.00  0.00    +0.000 C 
ENDBRANCH   4  13
TORSDOF 1
ENDMDL
MODEL 5
REMARK VINA RESULT:      -3.7      1.832      2.245
REMARK  Name = 21574552_Mertensene.pdbqt.pdb
REMARK  1 active torsions:
REMARK  status: ('A' for Active; 'I' for Inactive)
REMARK    1  A    between atoms: C_4  and  C_13
REMARK                            x       y       z     vdW  Elec       q    Type
REMARK                         _______ _______ _______ _____ _____    ______ ____
ROOT
ATOM      1 BR   UNL     1     -37.547  43.568  -9.499  0.00  0.00    +0.000 Br
ATOM      2 CL   UNL     1     -32.088  44.478  -7.322  0.00  0.00    +0.000 Cl
ATOM      3 CL   UNL     1     -34.117  42.544  -5.387  0.00  0.00    +0.000 Cl
ATOM      4  C   UNL     1     -35.430  45.585  -8.878  0.00  0.00    +0.000 C 
ATOM      5  C   UNL     1     -34.331  45.661  -7.909  0.00  0.00    +0.000 C 
ATOM      6  C   UNL     1     -33.699  45.000  -6.771  0.00  0.00    +0.000 C 
ATOM      7  C   UNL     1     -36.214  44.315  -8.463  0.00  0.00    +0.000 C 
ATOM      8  C   UNL     1     -34.591  43.791  -6.456  0.00  0.00    +0.000 C 
ATOM      9  C   UNL     1     -35.698  43.609  -7.336  0.00  0.00    +0.000 C 
ATOM     10  C   UNL     1     -36.347  46.820  -8.738  0.00  0.00    +0.000 C 
ATOM     11  C   UNL     1     -33.532  45.925  -5.561  0.00  0.00    +0.000 C 
ENDROOT
BRANCH   4  13
ATOM     12 CL   UNL     1     -33.834  45.117 -12.976  0.00  0.00    +0.000 Cl
ATOM     13  C   UNL     1     -34.904  45.434 -10.244  0.00  0.00    +0.000 C 
ATOM     14  C   UNL     1     -34.473  45.308 -11.357  0.00  0.00    +0.000 C 
ENDBRANCH   4  13
TORSDOF 1
ENDMDL
MODEL 6
REMARK VINA RESULT:      -3.7      8.797     10.463
REMARK  Name = 21574552_Mertensene.pdbqt.pdb
REMARK  1 active torsions:
REMARK  status: ('A' for Active; 'I' for Inactive)
REMARK    1  A    between atoms: C_4  and  C_13
REMARK                            x       y       z     vdW  Elec       q    Type
REMARK                         _______ _______ _______ _____ _____    ______ ____
ROOT
ATOM      1 BR   UNL     1     -34.891  43.325 -16.660  0.00  0.00    +0.000 Br
ATOM      2 CL   UNL     1     -29.403  44.388 -18.686  0.00  0.00    +0.000 Cl
ATOM      3 CL   UNL     1     -30.380  41.127 -18.790  0.00  0.00    +0.000 Cl
ATOM      4  C   UNL     1     -32.273  44.668 -16.137  0.00  0.00    +0.000 C 
ATOM      5  C   UNL     1     -30.887  44.419 -16.548  0.00  0.00    +0.000 C 
ATOM      6  C   UNL     1     -30.002  43.503 -17.262  0.00  0.00    +0.000 C 
ATOM      7  C   UNL     1     -33.048  43.429 -16.652  0.00  0.00    +0.000 C 
ATOM      8  C   UNL     1     -30.891  42.324 -17.681  0.00  0.00    +0.000 C 
ATOM      9  C   UNL     1     -32.269  42.451 -17.338  0.00  0.00    +0.000 C 
ATOM     10  C   UNL     1     -32.367  44.726 -14.596  0.00  0.00    +0.000 C 
ATOM     11  C   UNL     1     -28.804  43.051 -16.420  0.00  0.00    +0.000 C 
ENDROOT
BRANCH   4  13
ATOM     12 CL   UNL     1     -33.817  48.354 -18.031  0.00  0.00    +0.000 Cl
ATOM     13  C   UNL     1     -32.789  45.890 -16.773  0.00  0.00    +0.000 C 
ATOM     14  C   UNL     1     -33.208  46.890 -17.289  0.00  0.00    +0.000 C 
ENDBRANCH   4  13
TORSDOF 1
ENDMDL
MODEL 7
REMARK VINA RESULT:      -3.6     15.775     17.199
REMARK  Name = 21574552_Mertensene.pdbqt.pdb
REMARK  1 active torsions:
REMARK  status: ('A' for Active; 'I' for Inactive)
REMARK    1  A    between atoms: C_4  and  C_13
REMARK                            x       y       z     vdW  Elec       q    Type
REMARK                         _______ _______ _______ _____ _____    ______ ____
ROOT
ATOM      1 BR   UNL     1     -30.188  52.702   9.365  0.00  0.00    +0.000 Br
ATOM      2 CL   UNL     1     -33.432  48.107   7.438  0.00  0.00    +0.000 Cl
ATOM      3 CL   UNL     1     -34.374  49.383  10.452  0.00  0.00    +0.000 Cl
ATOM      4  C   UNL     1     -30.141  49.938   8.230  0.00  0.00    +0.000 C 
ATOM      5  C   UNL     1     -31.061  48.796   8.260  0.00  0.00    +0.000 C 
ATOM      6  C   UNL     1     -32.315  48.290   8.812  0.00  0.00    +0.000 C 
ATOM      7  C   UNL     1     -30.773  50.958   9.210  0.00  0.00    +0.000 C 
ATOM      8  C   UNL     1     -32.803  49.380   9.776  0.00  0.00    +0.000 C 
ATOM      9  C   UNL     1     -31.989  50.549   9.833  0.00  0.00    +0.000 C 
ATOM     10  C   UNL     1     -28.752  49.515   8.758  0.00  0.00    +0.000 C 
ATOM     11  C   UNL     1     -32.158  46.933   9.507  0.00  0.00    +0.000 C 
ENDROOT
BRANCH   4  13
ATOM     12 CL   UNL     1     -29.926  51.676   4.169  0.00  0.00    +0.000 Cl
ATOM     13  C   UNL     1     -30.072  50.510   6.876  0.00  0.00    +0.000 C 
ATOM     14  C   UNL     1     -30.014  50.979   5.773  0.00  0.00    +0.000 C 
ENDBRANCH   4  13
TORSDOF 1
ENDMDL
MODEL 8
REMARK VINA RESULT:      -3.6      2.729      3.624
REMARK  Name = 21574552_Mertensene.pdbqt.pdb
REMARK  1 active torsions:
REMARK  status: ('A' for Active; 'I' for Inactive)
REMARK    1  A    between atoms: C_4  and  C_13
REMARK                            x       y       z     vdW  Elec       q    Type
REMARK                         _______ _______ _______ _____ _____    ______ ____
ROOT
ATOM      1 BR   UNL     1     -39.194  44.982  -8.547  0.00  0.00    +0.000 Br
ATOM      2 CL   UNL     1     -33.414  44.990  -9.943  0.00  0.00    +0.000 Cl
ATOM      3 CL   UNL     1     -34.258  43.046  -7.277  0.00  0.00    +0.000 Cl
ATOM      4  C   UNL     1     -36.802  46.654  -9.194  0.00  0.00    +0.000 C 
ATOM      5  C   UNL     1     -35.353  46.478  -9.050  0.00  0.00    +0.000 C 
ATOM      6  C   UNL     1     -34.304  45.606  -8.529  0.00  0.00    +0.000 C 
ATOM      7  C   UNL     1     -37.406  45.432  -8.455  0.00  0.00    +0.000 C 
ATOM      8  C   UNL     1     -35.042  44.470  -7.807  0.00  0.00    +0.000 C 
ATOM      9  C   UNL     1     -36.465  44.529  -7.878  0.00  0.00    +0.000 C 
ATOM     10  C   UNL     1     -37.252  47.952  -8.486  0.00  0.00    +0.000 C 
ATOM     11  C   UNL     1     -33.323  46.336  -7.606  0.00  0.00    +0.000 C 
ENDROOT
BRANCH   4  13
ATOM     12 CL   UNL     1     -37.952  46.605 -13.464  0.00  0.00    +0.000 Cl
ATOM     13  C   UNL     1     -37.187  46.631 -10.613  0.00  0.00    +0.000 C 
ATOM     14  C   UNL     1     -37.500  46.615 -11.772  0.00  0.00    +0.000 C 
ENDBRANCH   4  13
TORSDOF 1
ENDMDL
MODEL 9
REMARK VINA RESULT:      -3.6     20.938     22.475
REMARK  Name = 21574552_Mertensene.pdbqt.pdb
REMARK  1 active torsions:
REMARK  status: ('A' for Active; 'I' for Inactive)
REMARK    1  A    between atoms: C_4  and  C_13
REMARK                            x       y       z     vdW  Elec       q    Type
REMARK                         _______ _______ _______ _____ _____    ______ ____
ROOT
ATOM      1 BR   UNL     1     -13.613  51.158   3.292  0.00  0.00    +0.000 Br
ATOM      2 CL   UNL     1     -16.525  46.039   4.113  0.00  0.00    +0.000 Cl
ATOM      3 CL   UNL     1     -13.500  45.755   2.574  0.00  0.00    +0.000 Cl
ATOM      4  C   UNL     1     -16.210  49.709   2.998  0.00  0.00    +0.000 C 
ATOM      5  C   UNL     1     -16.593  48.303   2.831  0.00  0.00    +0.000 C 
ATOM      6  C   UNL     1     -16.089  46.945   2.644  0.00  0.00    +0.000 C 
ATOM      7  C   UNL     1     -14.665  49.697   2.885  0.00  0.00    +0.000 C 
ATOM      8  C   UNL     1     -14.566  47.091   2.519  0.00  0.00    +0.000 C 
ATOM      9  C   UNL     1     -14.069  48.419   2.667  0.00  0.00    +0.000 C 
ATOM     10  C   UNL     1     -16.799  50.559   1.850  0.00  0.00    +0.000 C 
ATOM     11  C   UNL     1     -16.703  46.242   1.429  0.00  0.00    +0.000 C 
ENDROOT
BRANCH   4  13
ATOM     12 CL   UNL     1     -17.456  51.176   6.980  0.00  0.00    +0.000 Cl
ATOM     13  C   UNL     1     -16.619  50.202   4.323  0.00  0.00    +0.000 C 
ATOM     14  C   UNL     1     -16.955  50.601   5.403  0.00  0.00    +0.000 C 
ENDBRANCH   4  13
TORSDOF 1
ENDMDL
