MODEL 1
REMARK VINA RESULT:      -7.2      0.000      0.000
REMARK  Name = 222284_BetaSitosterol.pdbqt.pdb
REMARK  5 active torsions:
REMARK  status: ('A' for Active; 'I' for Inactive)
REMARK    1  A    between atoms: C_5  and  C_22
REMARK    2  A    between atoms: C_19  and  O_20
REMARK    3  A    between atoms: C_22  and  C_24
REMARK    4  A    between atoms: C_25  and  C_26
REMARK    5  A    between atoms: C_26  and  C_30
REMARK                            x       y       z     vdW  Elec       q    Type
REMARK                         _______ _______ _______ _____ _____    ______ ____
ROOT
ATOM      1  C   UNL     1     -34.854  45.052 -13.184  0.00  0.00    +0.000 C 
ATOM      2  C   UNL     1     -35.928  45.253 -11.998  0.00  0.00    +0.000 C 
ATOM      3  C   UNL     1     -35.640  44.858 -10.604  0.00  0.00    +0.000 C 
ATOM      4  C   UNL     1     -34.283  44.508 -10.046  0.00  0.00    +0.000 C 
ATOM      5  C   UNL     1     -34.946  46.347 -13.976  0.00  0.00    +0.000 C 
ATOM      6  C   UNL     1     -33.569  44.865 -12.507  0.00  0.00    +0.000 C 
ATOM      7  C   UNL     1     -34.049  44.023  -8.590  0.00  0.00    +0.000 C 
ATOM      8  C   UNL     1     -36.623  46.475 -12.263  0.00  0.00    +0.000 C 
ATOM      9  C   UNL     1     -33.281  44.587 -11.051  0.00  0.00    +0.000 C 
ATOM     10  C   UNL     1     -35.991  47.158 -13.446  0.00  0.00    +0.000 C 
ATOM     11  C   UNL     1     -36.645  44.905  -9.608  0.00  0.00    +0.000 C 
ATOM     12  C   UNL     1     -35.296  43.834 -14.035  0.00  0.00    +0.000 C 
ATOM     13  C   UNL     1     -35.308  44.337  -7.567  0.00  0.00    +0.000 C 
ATOM     14  C   UNL     1     -32.901  44.756  -7.980  0.00  0.00    +0.000 C 
ATOM     15  C   UNL     1     -36.428  44.644  -8.148  0.00  0.00    +0.000 C 
ATOM     16  C   UNL     1     -33.835  42.482  -8.596  0.00  0.00    +0.000 C 
ATOM     17  C   UNL     1     -34.962  45.049  -6.359  0.00  0.00    +0.000 C 
ATOM     18  C   UNL     1     -32.702  45.547  -6.675  0.00  0.00    +0.000 C 
ATOM     19  C   UNL     1     -33.812  45.681  -5.789  0.00  0.00    +0.000 C 
ENDROOT
BRANCH  19  20
ATOM     20  O   UNL     1     -33.634  45.784  -4.440  0.00  0.00    +0.000 OA
ATOM     21  H   UNL     1     -32.695  45.878  -4.210  0.00  0.00    +0.000 HD
ENDBRANCH  19  20
BRANCH   5  22
ATOM     22  C   UNL     1     -34.073  46.713 -15.047  0.00  0.00    +0.000 C 
ATOM     23  C   UNL     1     -34.076  48.093 -15.657  0.00  0.00    +0.000 C 
BRANCH  22  24
ATOM     24  C   UNL     1     -33.128  45.806 -15.598  0.00  0.00    +0.000 C 
ATOM     25  C   UNL     1     -32.129  44.806 -16.198  0.00  0.00    +0.000 C 
BRANCH  25  26
ATOM     26  C   UNL     1     -31.207  43.863 -16.746  0.00  0.00    +0.000 C 
ATOM     27  C   UNL     1     -31.155  42.507 -16.243  0.00  0.00    +0.000 C 
ATOM     28  C   UNL     1     -32.071  42.014 -15.138  0.00  0.00    +0.000 C 
ATOM     29  C   UNL     1     -30.176  41.467 -16.740  0.00  0.00    +0.000 C 
BRANCH  26  30
ATOM     30  C   UNL     1     -30.338  44.251 -17.800  0.00  0.00    +0.000 C 
ATOM     31  C   UNL     1     -29.428  44.638 -18.971  0.00  0.00    +0.000 C 
ENDBRANCH  26  30
ENDBRANCH  25  26
ENDBRANCH  22  24
ENDBRANCH   5  22
TORSDOF 5
ENDMDL
MODEL 2
REMARK VINA RESULT:      -7.1      3.805      9.171
REMARK  Name = 222284_BetaSitosterol.pdbqt.pdb
REMARK  5 active torsions:
REMARK  status: ('A' for Active; 'I' for Inactive)
REMARK    1  A    between atoms: C_5  and  C_22
REMARK    2  A    between atoms: C_19  and  O_20
REMARK    3  A    between atoms: C_22  and  C_24
REMARK    4  A    between atoms: C_25  and  C_26
REMARK    5  A    between atoms: C_26  and  C_30
REMARK                            x       y       z     vdW  Elec       q    Type
REMARK                         _______ _______ _______ _____ _____    ______ ____
ROOT
ATOM      1  C   UNL     1     -35.564  45.146 -10.749  0.00  0.00    +0.000 C 
ATOM      2  C   UNL     1     -34.480  44.595 -11.808  0.00  0.00    +0.000 C 
ATOM      3  C   UNL     1     -34.558  44.915 -13.248  0.00  0.00    +0.000 C 
ATOM      4  C   UNL     1     -35.425  45.979 -13.872  0.00  0.00    +0.000 C 
ATOM      5  C   UNL     1     -34.719  45.574  -9.559  0.00  0.00    +0.000 C 
ATOM      6  C   UNL     1     -36.230  46.258 -11.430  0.00  0.00    +0.000 C 
ATOM      7  C   UNL     1     -35.526  46.221 -15.403  0.00  0.00    +0.000 C 
ATOM      8  C   UNL     1     -33.211  44.590 -11.147  0.00  0.00    +0.000 C 
ATOM      9  C   UNL     1     -36.199  46.651 -12.887  0.00  0.00    +0.000 C 
ATOM     10  C   UNL     1     -33.357  45.227  -9.791  0.00  0.00    +0.000 C 
ATOM     11  C   UNL     1     -33.686  44.304 -14.182  0.00  0.00    +0.000 C 
ATOM     12  C   UNL     1     -36.515  43.979 -10.379  0.00  0.00    +0.000 C 
ATOM     13  C   UNL     1     -34.297  45.540 -16.273  0.00  0.00    +0.000 C 
ATOM     14  C   UNL     1     -35.414  47.678 -15.704  0.00  0.00    +0.000 C 
ATOM     15  C   UNL     1     -33.600  44.647 -15.638  0.00  0.00    +0.000 C 
ATOM     16  C   UNL     1     -36.855  45.606 -15.928  0.00  0.00    +0.000 C 
ATOM     17  C   UNL     1     -33.590  46.440 -17.154  0.00  0.00    +0.000 C 
ATOM     18  C   UNL     1     -34.536  48.515 -16.651  0.00  0.00    +0.000 C 
ATOM     19  C   UNL     1     -33.569  47.840 -17.452  0.00  0.00    +0.000 C 
ENDROOT
BRANCH  19  20
ATOM     20  O   UNL     1     -33.208  48.314 -18.679  0.00  0.00    +0.000 OA
ATOM     21  H   UNL     1     -32.764  49.176 -18.612  0.00  0.00    +0.000 HD
ENDBRANCH  19  20
BRANCH   5  22
ATOM     22  C   UNL     1     -35.215  46.272  -8.414  0.00  0.00    +0.000 C 
ATOM     23  C   UNL     1     -34.581  46.143  -7.052  0.00  0.00    +0.000 C 
BRANCH  22  24
ATOM     24  C   UNL     1     -36.329  47.151  -8.487  0.00  0.00    +0.000 C 
ATOM     25  C   UNL     1     -37.548  48.083  -8.549  0.00  0.00    +0.000 C 
BRANCH  25  26
ATOM     26  C   UNL     1     -38.693  48.935  -8.609  0.00  0.00    +0.000 C 
ATOM     27  C   UNL     1     -39.448  49.068  -9.836  0.00  0.00    +0.000 C 
ATOM     28  C   UNL     1     -39.085  48.311 -11.100  0.00  0.00    +0.000 C 
ATOM     29  C   UNL     1     -40.641  49.985  -9.989  0.00  0.00    +0.000 C 
BRANCH  26  30
ATOM     30  C   UNL     1     -39.103  49.654  -7.455  0.00  0.00    +0.000 C 
ATOM     31  C   UNL     1     -39.583  50.390  -6.199  0.00  0.00    +0.000 C 
ENDBRANCH  26  30
ENDBRANCH  25  26
ENDBRANCH  22  24
ENDBRANCH   5  22
TORSDOF 5
ENDMDL
MODEL 3
REMARK VINA RESULT:      -7.1      1.428      2.163
REMARK  Name = 222284_BetaSitosterol.pdbqt.pdb
REMARK  5 active torsions:
REMARK  status: ('A' for Active; 'I' for Inactive)
REMARK    1  A    between atoms: C_5  and  C_22
REMARK    2  A    between atoms: C_19  and  O_20
REMARK    3  A    between atoms: C_22  and  C_24
REMARK    4  A    between atoms: C_25  and  C_26
REMARK    5  A    between atoms: C_26  and  C_30
REMARK                            x       y       z     vdW  Elec       q    Type
REMARK                         _______ _______ _______ _____ _____    ______ ____
ROOT
ATOM      1  C   UNL     1     -35.594  46.496 -14.969  0.00  0.00    +0.000 C 
ATOM      2  C   UNL     1     -36.538  47.074 -13.797  0.00  0.00    +0.000 C 
ATOM      3  C   UNL     1     -36.476  46.558 -12.414  0.00  0.00    +0.000 C 
ATOM      4  C   UNL     1     -35.388  45.683 -11.845  0.00  0.00    +0.000 C 
ATOM      5  C   UNL     1     -35.139  47.743 -15.712  0.00  0.00    +0.000 C 
ATOM      6  C   UNL     1     -34.511  45.796 -14.275  0.00  0.00    +0.000 C 
ATOM      7  C   UNL     1     -35.413  45.105 -10.404  0.00  0.00    +0.000 C 
ATOM      8  C   UNL     1     -36.683  48.478 -14.028  0.00  0.00    +0.000 C 
ATOM      9  C   UNL     1     -34.404  45.385 -12.827  0.00  0.00    +0.000 C 
ATOM     10  C   UNL     1     -35.794  48.887 -15.172  0.00  0.00    +0.000 C 
ATOM     11  C   UNL     1     -37.413  46.973 -11.436  0.00  0.00    +0.000 C 
ATOM     12  C   UNL     1     -36.454  45.578 -15.875  0.00  0.00    +0.000 C 
ATOM     13  C   UNL     1     -36.478  45.864  -9.394  0.00  0.00    +0.000 C 
ATOM     14  C   UNL     1     -34.089  45.304  -9.744  0.00  0.00    +0.000 C 
ATOM     15  C   UNL     1     -37.365  46.607  -9.983  0.00  0.00    +0.000 C 
ATOM     16  C   UNL     1     -35.827  43.606 -10.465  0.00  0.00    +0.000 C 
ATOM     17  C   UNL     1     -35.917  46.346  -8.152  0.00  0.00    +0.000 C 
ATOM     18  C   UNL     1     -33.636  45.914  -8.407  0.00  0.00    +0.000 C 
ATOM     19  C   UNL     1     -34.630  46.453  -7.537  0.00  0.00    +0.000 C 
ENDROOT
BRANCH  19  20
ATOM     20  O   UNL     1     -34.471  46.439  -6.182  0.00  0.00    +0.000 OA
ATOM     21  H   UNL     1     -35.286  46.705  -5.725  0.00  0.00    +0.000 HD
ENDBRANCH  19  20
BRANCH   5  22
ATOM     22  C   UNL     1     -34.158  47.762 -16.752  0.00  0.00    +0.000 C 
ATOM     23  C   UNL     1     -34.024  48.915 -17.715  0.00  0.00    +0.000 C 
BRANCH  22  24
ATOM     24  C   UNL     1     -33.229  46.703 -16.936  0.00  0.00    +0.000 C 
ATOM     25  C   UNL     1     -32.232  45.547 -17.109  0.00  0.00    +0.000 C 
BRANCH  25  26
ATOM     26  C   UNL     1     -31.299  44.475 -17.252  0.00  0.00    +0.000 C 
ATOM     27  C   UNL     1     -31.284  43.382 -16.305  0.00  0.00    +0.000 C 
ATOM     28  C   UNL     1     -32.250  43.303 -15.138  0.00  0.00    +0.000 C 
ATOM     29  C   UNL     1     -30.296  42.238 -16.364  0.00  0.00    +0.000 C 
BRANCH  26  30
ATOM     30  C   UNL     1     -30.382  44.473 -18.337  0.00  0.00    +0.000 C 
ATOM     31  C   UNL     1     -29.433  44.453 -19.540  0.00  0.00    +0.000 C 
ENDBRANCH  26  30
ENDBRANCH  25  26
ENDBRANCH  22  24
ENDBRANCH   5  22
TORSDOF 5
ENDMDL
MODEL 4
REMARK VINA RESULT:      -7.1     22.285     23.936
REMARK  Name = 222284_BetaSitosterol.pdbqt.pdb
REMARK  5 active torsions:
REMARK  status: ('A' for Active; 'I' for Inactive)
REMARK    1  A    between atoms: C_5  and  C_22
REMARK    2  A    between atoms: C_19  and  O_20
REMARK    3  A    between atoms: C_22  and  C_24
REMARK    4  A    between atoms: C_25  and  C_26
REMARK    5  A    between atoms: C_26  and  C_30
REMARK                            x       y       z     vdW  Elec       q    Type
REMARK                         _______ _______ _______ _____ _____    ______ ____
ROOT
ATOM      1  C   UNL     1     -15.846  58.566 -22.628  0.00  0.00    +0.000 C 
ATOM      2  C   UNL     1     -16.203  58.034 -21.148  0.00  0.00    +0.000 C 
ATOM      3  C   UNL     1     -16.609  58.949 -20.062  0.00  0.00    +0.000 C 
ATOM      4  C   UNL     1     -17.021  60.391 -20.228  0.00  0.00    +0.000 C 
ATOM      5  C   UNL     1     -16.523  57.560 -23.545  0.00  0.00    +0.000 C 
ATOM      6  C   UNL     1     -16.423  59.910 -22.698  0.00  0.00    +0.000 C 
ATOM      7  C   UNL     1     -17.365  61.331 -19.041  0.00  0.00    +0.000 C 
ATOM      8  C   UNL     1     -16.864  56.774 -21.303  0.00  0.00    +0.000 C 
ATOM      9  C   UNL     1     -16.955  60.788 -21.592  0.00  0.00    +0.000 C 
ATOM     10  C   UNL     1     -17.093  56.511 -22.767  0.00  0.00    +0.000 C 
ATOM     11  C   UNL     1     -16.775  58.482 -18.735  0.00  0.00    +0.000 C 
ATOM     12  C   UNL     1     -14.305  58.537 -22.793  0.00  0.00    +0.000 C 
ATOM     13  C   UNL     1     -17.679  60.538 -17.626  0.00  0.00    +0.000 C 
ATOM     14  C   UNL     1     -18.626  62.077 -19.321  0.00  0.00    +0.000 C 
ATOM     15  C   UNL     1     -17.299  59.297 -17.591  0.00  0.00    +0.000 C 
ATOM     16  C   UNL     1     -16.159  62.278 -18.778  0.00  0.00    +0.000 C 
ATOM     17  C   UNL     1     -18.934  60.873 -16.994  0.00  0.00    +0.000 C 
ATOM     18  C   UNL     1     -19.942  62.290 -18.553  0.00  0.00    +0.000 C 
ATOM     19  C   UNL     1     -20.095  61.658 -17.284  0.00  0.00    +0.000 C 
ENDROOT
BRANCH  19  20
ATOM     20  O   UNL     1     -20.856  62.218 -16.300  0.00  0.00    +0.000 OA
ATOM     21  H   UNL     1     -21.013  61.594 -15.572  0.00  0.00    +0.000 HD
ENDBRANCH  19  20
BRANCH   5  22
ATOM     22  C   UNL     1     -16.621  57.686 -24.966  0.00  0.00    +0.000 C 
ATOM     23  C   UNL     1     -16.322  58.977 -25.685  0.00  0.00    +0.000 C 
BRANCH  22  24
ATOM     24  C   UNL     1     -16.989  56.595 -25.800  0.00  0.00    +0.000 C 
ATOM     25  C   UNL     1     -17.359  55.407 -26.699  0.00  0.00    +0.000 C 
BRANCH  25  26
ATOM     26  C   UNL     1     -17.687  54.304 -27.546  0.00  0.00    +0.000 C 
ATOM     27  C   UNL     1     -18.370  54.519 -28.803  0.00  0.00    +0.000 C 
ATOM     28  C   UNL     1     -18.753  55.903 -29.294  0.00  0.00    +0.000 C 
ATOM     29  C   UNL     1     -18.791  53.399 -29.728  0.00  0.00    +0.000 C 
BRANCH  26  30
ATOM     30  C   UNL     1     -17.334  52.984 -27.159  0.00  0.00    +0.000 C 
ATOM     31  C   UNL     1     -16.916  51.580 -26.708  0.00  0.00    +0.000 C 
ENDBRANCH  26  30
ENDBRANCH  25  26
ENDBRANCH  22  24
ENDBRANCH   5  22
TORSDOF 5
ENDMDL
MODEL 5
REMARK VINA RESULT:      -6.9     22.941     24.844
REMARK  Name = 222284_BetaSitosterol.pdbqt.pdb
REMARK  5 active torsions:
REMARK  status: ('A' for Active; 'I' for Inactive)
REMARK    1  A    between atoms: C_5  and  C_22
REMARK    2  A    between atoms: C_19  and  O_20
REMARK    3  A    between atoms: C_22  and  C_24
REMARK    4  A    between atoms: C_25  and  C_26
REMARK    5  A    between atoms: C_26  and  C_30
REMARK                            x       y       z     vdW  Elec       q    Type
REMARK                         _______ _______ _______ _____ _____    ______ ____
ROOT
ATOM      1  C   UNL     1     -15.783  57.960 -22.583  0.00  0.00    +0.000 C 
ATOM      2  C   UNL     1     -16.233  58.657 -21.200  0.00  0.00    +0.000 C 
ATOM      3  C   UNL     1     -16.848  60.000 -21.162  0.00  0.00    +0.000 C 
ATOM      4  C   UNL     1     -17.393  60.757 -22.347  0.00  0.00    +0.000 C 
ATOM      5  C   UNL     1     -16.247  56.521 -22.428  0.00  0.00    +0.000 C 
ATOM      6  C   UNL     1     -16.491  58.700 -23.629  0.00  0.00    +0.000 C 
ATOM      7  C   UNL     1     -17.958  62.201 -22.261  0.00  0.00    +0.000 C 
ATOM      8  C   UNL     1     -16.734  57.620 -20.351  0.00  0.00    +0.000 C 
ATOM      9  C   UNL     1     -17.227  60.015 -23.548  0.00  0.00    +0.000 C 
ATOM     10  C   UNL     1     -16.779  56.327 -21.121  0.00  0.00    +0.000 C 
ATOM     11  C   UNL     1     -17.100  60.654 -19.932  0.00  0.00    +0.000 C 
ATOM     12  C   UNL     1     -14.238  58.050 -22.689  0.00  0.00    +0.000 C 
ATOM     13  C   UNL     1     -18.332  62.685 -20.727  0.00  0.00    +0.000 C 
ATOM     14  C   UNL     1     -19.256  62.291 -22.992  0.00  0.00    +0.000 C 
ATOM     15  C   UNL     1     -17.826  61.956 -19.778  0.00  0.00    +0.000 C 
ATOM     16  C   UNL     1     -16.896  63.195 -22.811  0.00  0.00    +0.000 C 
ATOM     17  C   UNL     1     -19.676  63.185 -20.545  0.00  0.00    +0.000 C 
ATOM     18  C   UNL     1     -20.661  62.802 -22.627  0.00  0.00    +0.000 C 
ATOM     19  C   UNL     1     -20.877  63.308 -21.312  0.00  0.00    +0.000 C 
ENDROOT
BRANCH  19  20
ATOM     20  O   UNL     1     -21.793  64.291 -21.071  0.00  0.00    +0.000 OA
ATOM     21  H   UNL     1     -22.228  64.581 -21.890  0.00  0.00    +0.000 HD
ENDBRANCH  19  20
BRANCH   5  22
ATOM     22  C   UNL     1     -16.209  55.534 -23.463  0.00  0.00    +0.000 C 
ATOM     23  C   UNL     1     -15.675  54.143 -23.233  0.00  0.00    +0.000 C 
BRANCH  22  24
ATOM     24  C   UNL     1     -16.691  55.794 -24.774  0.00  0.00    +0.000 C 
ATOM     25  C   UNL     1     -17.235  56.059 -26.186  0.00  0.00    +0.000 C 
BRANCH  25  26
ATOM     26  C   UNL     1     -17.746  56.286 -27.500  0.00  0.00    +0.000 C 
ATOM     27  C   UNL     1     -18.250  55.187 -28.294  0.00  0.00    +0.000 C 
ATOM     28  C   UNL     1     -18.281  53.760 -27.781  0.00  0.00    +0.000 C 
ATOM     29  C   UNL     1     -18.762  55.344 -29.709  0.00  0.00    +0.000 C 
BRANCH  26  30
ATOM     30  C   UNL     1     -17.770  57.602 -28.033  0.00  0.00    +0.000 C 
ATOM     31  C   UNL     1     -17.789  59.002 -28.658  0.00  0.00    +0.000 C 
ENDBRANCH  26  30
ENDBRANCH  25  26
ENDBRANCH  22  24
ENDBRANCH   5  22
TORSDOF 5
ENDMDL
MODEL 6
REMARK VINA RESULT:      -6.8     23.498     26.575
REMARK  Name = 222284_BetaSitosterol.pdbqt.pdb
REMARK  5 active torsions:
REMARK  status: ('A' for Active; 'I' for Inactive)
REMARK    1  A    between atoms: C_5  and  C_22
REMARK    2  A    between atoms: C_19  and  O_20
REMARK    3  A    between atoms: C_22  and  C_24
REMARK    4  A    between atoms: C_25  and  C_26
REMARK    5  A    between atoms: C_26  and  C_30
REMARK                            x       y       z     vdW  Elec       q    Type
REMARK                         _______ _______ _______ _____ _____    ______ ____
ROOT
ATOM      1  C   UNL     1     -17.249  55.167 -29.340  0.00  0.00    +0.000 C 
ATOM      2  C   UNL     1     -17.994  56.142 -30.386  0.00  0.00    +0.000 C 
ATOM      3  C   UNL     1     -18.763  55.619 -31.534  0.00  0.00    +0.000 C 
ATOM      4  C   UNL     1     -19.201  54.189 -31.728  0.00  0.00    +0.000 C 
ATOM      5  C   UNL     1     -17.556  55.790 -27.987  0.00  0.00    +0.000 C 
ATOM      6  C   UNL     1     -17.866  53.854 -29.538  0.00  0.00    +0.000 C 
ATOM      7  C   UNL     1     -19.942  53.679 -32.994  0.00  0.00    +0.000 C 
ATOM      8  C   UNL     1     -18.495  57.255 -29.640  0.00  0.00    +0.000 C 
ATOM      9  C   UNL     1     -18.758  53.369 -30.654  0.00  0.00    +0.000 C 
ATOM     10  C   UNL     1     -18.261  57.014 -28.173  0.00  0.00    +0.000 C 
ATOM     11  C   UNL     1     -19.285  56.490 -32.522  0.00  0.00    +0.000 C 
ATOM     12  C   UNL     1     -15.730  55.197 -29.648  0.00  0.00    +0.000 C 
ATOM     13  C   UNL     1     -20.610  54.880 -33.910  0.00  0.00    +0.000 C 
ATOM     14  C   UNL     1     -21.109  52.835 -32.603  0.00  0.00    +0.000 C 
ATOM     15  C   UNL     1     -20.178  56.077 -33.654  0.00  0.00    +0.000 C 
ATOM     16  C   UNL     1     -18.933  52.916 -33.900  0.00  0.00    +0.000 C 
ATOM     17  C   UNL     1     -22.016  54.724 -34.206  0.00  0.00    +0.000 C 
ATOM     18  C   UNL     1     -22.605  52.837 -32.963  0.00  0.00    +0.000 C 
ATOM     19  C   UNL     1     -23.087  53.844 -33.850  0.00  0.00    +0.000 C 
ENDROOT
BRANCH  19  20
ATOM     20  O   UNL     1     -24.140  53.611 -34.685  0.00  0.00    +0.000 OA
ATOM     21  H   UNL     1     -24.955  54.026 -34.355  0.00  0.00    +0.000 HD
ENDBRANCH  19  20
BRANCH   5  22
ATOM     22  C   UNL     1     -17.235  55.200 -26.725  0.00  0.00    +0.000 C 
ATOM     23  C   UNL     1     -16.989  53.722 -26.563  0.00  0.00    +0.000 C 
BRANCH  22  24
ATOM     24  C   UNL     1     -17.108  55.973 -25.539  0.00  0.00    +0.000 C 
ATOM     25  C   UNL     1     -16.978  56.785 -24.241  0.00  0.00    +0.000 C 
BRANCH  25  26
ATOM     26  C   UNL     1     -16.873  57.532 -23.029  0.00  0.00    +0.000 C 
ATOM     27  C   UNL     1     -16.447  56.891 -21.804  0.00  0.00    +0.000 C 
ATOM     28  C   UNL     1     -16.077  55.420 -21.741  0.00  0.00    +0.000 C 
ATOM     29  C   UNL     1     -16.358  57.605 -20.473  0.00  0.00    +0.000 C 
BRANCH  26  30
ATOM     30  C   UNL     1     -17.180  58.918 -23.022  0.00  0.00    +0.000 C 
ATOM     31  C   UNL     1     -17.560  60.403 -22.992  0.00  0.00    +0.000 C 
ENDBRANCH  26  30
ENDBRANCH  25  26
ENDBRANCH  22  24
ENDBRANCH   5  22
TORSDOF 5
ENDMDL
MODEL 7
REMARK VINA RESULT:      -6.8     21.112     24.675
REMARK  Name = 222284_BetaSitosterol.pdbqt.pdb
REMARK  5 active torsions:
REMARK  status: ('A' for Active; 'I' for Inactive)
REMARK    1  A    between atoms: C_5  and  C_22
REMARK    2  A    between atoms: C_19  and  O_20
REMARK    3  A    between atoms: C_22  and  C_24
REMARK    4  A    between atoms: C_25  and  C_26
REMARK    5  A    between atoms: C_26  and  C_30
REMARK                            x       y       z     vdW  Elec       q    Type
REMARK                         _______ _______ _______ _____ _____    ______ ____
ROOT
ATOM      1  C   UNL     1     -16.370  51.163   4.787  0.00  0.00    +0.000 C 
ATOM      2  C   UNL     1     -16.599  50.872   6.357  0.00  0.00    +0.000 C 
ATOM      3  C   UNL     1     -17.435  51.749   7.203  0.00  0.00    +0.000 C 
ATOM      4  C   UNL     1     -18.386  52.810   6.709  0.00  0.00    +0.000 C 
ATOM      5  C   UNL     1     -16.496  49.790   4.145  0.00  0.00    +0.000 C 
ATOM      6  C   UNL     1     -17.439  52.090   4.412  0.00  0.00    +0.000 C 
ATOM      7  C   UNL     1     -19.183  53.757   7.646  0.00  0.00    +0.000 C 
ATOM      8  C   UNL     1     -16.670  49.452   6.515  0.00  0.00    +0.000 C 
ATOM      9  C   UNL     1     -18.375  52.886   5.289  0.00  0.00    +0.000 C 
ATOM     10  C   UNL     1     -16.648  48.801   5.159  0.00  0.00    +0.000 C 
ATOM     11  C   UNL     1     -17.505  51.562   8.605  0.00  0.00    +0.000 C 
ATOM     12  C   UNL     1     -14.945  51.746   4.607  0.00  0.00    +0.000 C 
ATOM     13  C   UNL     1     -19.262  53.240   9.214  0.00  0.00    +0.000 C 
ATOM     14  C   UNL     1     -20.612  53.825   7.219  0.00  0.00    +0.000 C 
ATOM     15  C   UNL     1     -18.411  52.313   9.533  0.00  0.00    +0.000 C 
ATOM     16  C   UNL     1     -18.498  55.154   7.657  0.00  0.00    +0.000 C 
ATOM     17  C   UNL     1     -20.592  53.150   9.770  0.00  0.00    +0.000 C 
ATOM     18  C   UNL     1     -21.958  53.632   7.937  0.00  0.00    +0.000 C 
ATOM     19  C   UNL     1     -21.944  53.292   9.322  0.00  0.00    +0.000 C 
ENDROOT
BRANCH  19  20
ATOM     20  O   UNL     1     -22.947  53.685  10.160  0.00  0.00    +0.000 OA
ATOM     21  H   UNL     1     -22.766  54.558  10.547  0.00  0.00    +0.000 HD
ENDBRANCH  19  20
BRANCH   5  22
ATOM     22  C   UNL     1     -16.517  49.546   2.737  0.00  0.00    +0.000 C 
ATOM     23  C   UNL     1     -16.959  50.590   1.742  0.00  0.00    +0.000 C 
BRANCH  22  24
ATOM     24  C   UNL     1     -16.105  48.307   2.176  0.00  0.00    +0.000 C 
ATOM     25  C   UNL     1     -15.684  46.956   1.579  0.00  0.00    +0.000 C 
BRANCH  25  26
ATOM     26  C   UNL     1     -15.299  45.691   1.039  0.00  0.00    +0.000 C 
ATOM     27  C   UNL     1     -14.585  44.731   1.851  0.00  0.00    +0.000 C 
ATOM     28  C   UNL     1     -14.226  44.999   3.301  0.00  0.00    +0.000 C 
ATOM     29  C   UNL     1     -14.104  43.393   1.336  0.00  0.00    +0.000 C 
BRANCH  26  30
ATOM     30  C   UNL     1     -15.626  45.365  -0.304  0.00  0.00    +0.000 C 
ATOM     31  C   UNL     1     -15.963  44.961  -1.744  0.00  0.00    +0.000 C 
ENDBRANCH  26  30
ENDBRANCH  25  26
ENDBRANCH  22  24
ENDBRANCH   5  22
TORSDOF 5
ENDMDL
MODEL 8
REMARK VINA RESULT:      -6.8     22.479     25.162
REMARK  Name = 222284_BetaSitosterol.pdbqt.pdb
REMARK  5 active torsions:
REMARK  status: ('A' for Active; 'I' for Inactive)
REMARK    1  A    between atoms: C_5  and  C_22
REMARK    2  A    between atoms: C_19  and  O_20
REMARK    3  A    between atoms: C_22  and  C_24
REMARK    4  A    between atoms: C_25  and  C_26
REMARK    5  A    between atoms: C_26  and  C_30
REMARK                            x       y       z     vdW  Elec       q    Type
REMARK                         _______ _______ _______ _____ _____    ______ ____
ROOT
ATOM      1  C   UNL     1     -17.337  54.805 -29.840  0.00  0.00    +0.000 C 
ATOM      2  C   UNL     1     -17.126  53.810 -28.589  0.00  0.00    +0.000 C 
ATOM      3  C   UNL     1     -16.571  54.276 -27.302  0.00  0.00    +0.000 C 
ATOM      4  C   UNL     1     -16.406  55.714 -26.878  0.00  0.00    +0.000 C 
ATOM      5  C   UNL     1     -18.702  54.413 -30.385  0.00  0.00    +0.000 C 
ATOM      6  C   UNL     1     -17.295  56.151 -29.267  0.00  0.00    +0.000 C 
ATOM      7  C   UNL     1     -15.743  56.148 -25.542  0.00  0.00    +0.000 C 
ATOM      8  C   UNL     1     -18.217  52.883 -28.600  0.00  0.00    +0.000 C 
ATOM      9  C   UNL     1     -16.843  56.601 -27.899  0.00  0.00    +0.000 C 
ATOM     10  C   UNL     1     -19.195  53.282 -29.672  0.00  0.00    +0.000 C 
ATOM     11  C   UNL     1     -16.257  53.361 -26.267  0.00  0.00    +0.000 C 
ATOM     12  C   UNL     1     -16.213  54.528 -30.872  0.00  0.00    +0.000 C 
ATOM     13  C   UNL     1     -15.632  54.938 -24.423  0.00  0.00    +0.000 C 
ATOM     14  C   UNL     1     -16.575  57.187 -24.867  0.00  0.00    +0.000 C 
ATOM     15  C   UNL     1     -15.806  53.738 -24.887  0.00  0.00    +0.000 C 
ATOM     16  C   UNL     1     -14.295  56.641 -25.831  0.00  0.00    +0.000 C 
ATOM     17  C   UNL     1     -16.189  55.242 -23.125  0.00  0.00    +0.000 C 
ATOM     18  C   UNL     1     -17.163  57.339 -23.454  0.00  0.00    +0.000 C 
ATOM     19  C   UNL     1     -16.931  56.298 -22.507  0.00  0.00    +0.000 C 
ENDROOT
BRANCH  19  20
ATOM     20  O   UNL     1     -16.843  56.560 -21.171  0.00  0.00    +0.000 OA
ATOM     21  H   UNL     1     -16.255  55.929 -20.722  0.00  0.00    +0.000 HD
ENDBRANCH  19  20
BRANCH   5  22
ATOM     22  C   UNL     1     -19.402  55.115 -31.415  0.00  0.00    +0.000 C 
ATOM     23  C   UNL     1     -18.886  56.400 -32.012  0.00  0.00    +0.000 C 
BRANCH  22  24
ATOM     24  C   UNL     1     -20.625  54.638 -31.960  0.00  0.00    +0.000 C 
ATOM     25  C   UNL     1     -21.937  54.095 -32.544  0.00  0.00    +0.000 C 
BRANCH  25  26
ATOM     26  C   UNL     1     -23.148  53.577 -33.097  0.00  0.00    +0.000 C 
ATOM     27  C   UNL     1     -23.475  53.796 -34.489  0.00  0.00    +0.000 C 
ATOM     28  C   UNL     1     -22.560  54.558 -35.429  0.00  0.00    +0.000 C 
ATOM     29  C   UNL     1     -24.758  53.319 -35.132  0.00  0.00    +0.000 C 
BRANCH  26  30
ATOM     30  C   UNL     1     -24.039  52.832 -32.279  0.00  0.00    +0.000 C 
ATOM     31  C   UNL     1     -24.971  52.043 -31.352  0.00  0.00    +0.000 C 
ENDBRANCH  26  30
ENDBRANCH  25  26
ENDBRANCH  22  24
ENDBRANCH   5  22
TORSDOF 5
ENDMDL
MODEL 9
REMARK VINA RESULT:      -6.8     20.413     22.787
REMARK  Name = 222284_BetaSitosterol.pdbqt.pdb
REMARK  5 active torsions:
REMARK  status: ('A' for Active; 'I' for Inactive)
REMARK    1  A    between atoms: C_5  and  C_22
REMARK    2  A    between atoms: C_19  and  O_20
REMARK    3  A    between atoms: C_22  and  C_24
REMARK    4  A    between atoms: C_25  and  C_26
REMARK    5  A    between atoms: C_26  and  C_30
REMARK                            x       y       z     vdW  Elec       q    Type
REMARK                         _______ _______ _______ _____ _____    ______ ____
ROOT
ATOM      1  C   UNL     1     -13.803  45.622  -0.275  0.00  0.00    +0.000 C 
ATOM      2  C   UNL     1     -14.970  45.699   0.835  0.00  0.00    +0.000 C 
ATOM      3  C   UNL     1     -15.158  46.887   1.693  0.00  0.00    +0.000 C 
ATOM      4  C   UNL     1     -14.529  48.241   1.481  0.00  0.00    +0.000 C 
ATOM      5  C   UNL     1     -14.492  45.001  -1.480  0.00  0.00    +0.000 C 
ATOM      6  C   UNL     1     -13.385  47.010  -0.485  0.00  0.00    +0.000 C 
ATOM      7  C   UNL     1     -14.700  49.434   2.461  0.00  0.00    +0.000 C 
ATOM      8  C   UNL     1     -16.109  45.024   0.294  0.00  0.00    +0.000 C 
ATOM      9  C   UNL     1     -13.691  48.241   0.333  0.00  0.00    +0.000 C 
ATOM     10  C   UNL     1     -15.825  44.637  -1.133  0.00  0.00    +0.000 C 
ATOM     11  C   UNL     1     -16.091  46.878   2.759  0.00  0.00    +0.000 C 
ATOM     12  C   UNL     1     -12.677  44.705   0.270  0.00  0.00    +0.000 C 
ATOM     13  C   UNL     1     -15.965  49.265   3.510  0.00  0.00    +0.000 C 
ATOM     14  C   UNL     1     -15.025  50.679   1.706  0.00  0.00    +0.000 C 
ATOM     15  C   UNL     1     -16.445  48.062   3.608  0.00  0.00    +0.000 C 
ATOM     16  C   UNL     1     -13.409  49.577   3.317  0.00  0.00    +0.000 C 
ATOM     17  C   UNL     1     -16.901  50.365   3.534  0.00  0.00    +0.000 C 
ATOM     18  C   UNL     1     -16.131  51.743   1.813  0.00  0.00    +0.000 C 
ATOM     19  C   UNL     1     -17.129  51.583   2.819  0.00  0.00    +0.000 C 
ENDROOT
BRANCH  19  20
ATOM     20  O   UNL     1     -17.732  52.661   3.399  0.00  0.00    +0.000 OA
ATOM     21  H   UNL     1     -18.699  52.615   3.318  0.00  0.00    +0.000 HD
ENDBRANCH  19  20
BRANCH   5  22
ATOM     22  C   UNL     1     -13.905  44.864  -2.776  0.00  0.00    +0.000 C 
ATOM     23  C   UNL     1     -13.390  43.544  -3.294  0.00  0.00    +0.000 C 
BRANCH  22  24
ATOM     24  C   UNL     1     -13.785  45.959  -3.673  0.00  0.00    +0.000 C 
ATOM     25  C   UNL     1     -13.678  47.133  -4.657  0.00  0.00    +0.000 C 
BRANCH  25  26
ATOM     26  C   UNL     1     -13.581  48.213  -5.587  0.00  0.00    +0.000 C 
ATOM     27  C   UNL     1     -12.453  48.309  -6.488  0.00  0.00    +0.000 C 
ATOM     28  C   UNL     1     -11.339  47.279  -6.510  0.00  0.00    +0.000 C 
ATOM     29  C   UNL     1     -12.258  49.447  -7.466  0.00  0.00    +0.000 C 
BRANCH  26  30
ATOM     30  C   UNL     1     -14.601  49.199  -5.638  0.00  0.00    +0.000 C 
ATOM     31  C   UNL     1     -15.718  50.250  -5.641  0.00  0.00    +0.000 C 
ENDBRANCH  26  30
ENDBRANCH  25  26
ENDBRANCH  22  24
ENDBRANCH   5  22
TORSDOF 5
ENDMDL
