MODEL 1
REMARK VINA RESULT:      -6.1      0.000      0.000
REMARK  Name = 25023738_BI-D-1870.pdbqt.pdb
REMARK  4 active torsions:
REMARK  status: ('A' for Active; 'I' for Inactive)
REMARK    1  A    between atoms: N_2  and  C_26
REMARK    2  A    between atoms: N_14  and  C_16
REMARK    3  A    between atoms: C_20  and  O_24
REMARK    4  A    between atoms: C_27  and  C_28
REMARK                            x       y       z     vdW  Elec       q    Type
REMARK                         _______ _______ _______ _____ _____    ______ ____
ROOT
ATOM      1  O   UNL     1     -35.737  47.189 -13.064  0.00  0.00    +0.000 OA
ATOM      2  N   UNL     1     -36.294  48.795 -16.258  0.00  0.00    +0.000 N 
ATOM      3  N   UNL     1     -34.555  46.932 -15.055  0.00  0.00    +0.000 N 
ATOM      4  N   UNL     1     -35.116  48.565 -18.319  0.00  0.00    +0.000 NA
ATOM      5  N   UNL     1     -33.275  47.131 -18.541  0.00  0.00    +0.000 NA
ATOM      6  C   UNL     1     -36.487  48.477 -14.930  0.00  0.00    +0.000 C 
ATOM      7  C   UNL     1     -35.258  48.216 -17.020  0.00  0.00    +0.000 A 
ATOM      8  C   UNL     1     -35.576  47.484 -14.252  0.00  0.00    +0.000 C 
ATOM      9  C   UNL     1     -34.416  47.308 -16.419  0.00  0.00    +0.000 A 
ATOM     10  C   UNL     1     -37.621  49.130 -14.147  0.00  0.00    +0.000 C 
ATOM     11  C   UNL     1     -33.580  45.958 -14.576  0.00  0.00    +0.000 C 
ATOM     12  C   UNL     1     -33.438  46.800 -17.247  0.00  0.00    +0.000 A 
ATOM     13  C   UNL     1     -34.131  48.017 -19.046  0.00  0.00    +0.000 A 
ATOM     14  N   UNL     1     -33.952  48.349 -20.383  0.00  0.00    +0.000 N 
ATOM     15  H   UNL     1     -33.168  47.846 -20.779  0.00  0.00    +0.000 HD
ENDROOT
BRANCH  14  16
ATOM     16  C   UNL     1     -34.652  49.222 -21.223  0.00  0.00    +0.000 A 
ATOM     17  C   UNL     1     -34.549  49.063 -22.611  0.00  0.00    +0.000 A 
ATOM     18  C   UNL     1     -35.232  49.913 -23.480  0.00  0.00    +0.000 A 
ATOM     19  F   UNL     1     -35.108  49.728 -24.802  0.00  0.00    +0.000 F 
ATOM     20  C   UNL     1     -36.027  50.937 -22.982  0.00  0.00    +0.000 A 
ATOM     21  C   UNL     1     -36.132  51.102 -21.608  0.00  0.00    +0.000 A 
ATOM     22  F   UNL     1     -36.898  52.087 -21.116  0.00  0.00    +0.000 F 
ATOM     23  C   UNL     1     -35.455  50.256 -20.735  0.00  0.00    +0.000 A 
BRANCH  20  24
ATOM     24  O   UNL     1     -36.692  51.768 -23.839  0.00  0.00    +0.000 OA
ATOM     25  H   UNL     1     -36.936  51.251 -24.631  0.00  0.00    +0.000 HD
ENDBRANCH  20  24
ENDBRANCH  14  16
BRANCH   2  26
ATOM     26  C   UNL     1     -37.172  49.757 -16.918  0.00  0.00    +0.000 C 
ATOM     27  C   UNL     1     -38.091  50.768 -17.615  0.00  0.00    +0.000 C 
BRANCH  27  28
ATOM     28  C   UNL     1     -38.941  51.698 -18.254  0.00  0.00    +0.000 C 
ATOM     29  C   UNL     1     -39.921  51.228 -19.285  0.00  0.00    +0.000 C 
ATOM     30  C   UNL     1     -38.823  53.157 -17.936  0.00  0.00    +0.000 C 
ENDBRANCH  27  28
ENDBRANCH   2  26
TORSDOF 4
ENDMDL
MODEL 2
REMARK VINA RESULT:      -6.0      4.113      6.890
REMARK  Name = 25023738_BI-D-1870.pdbqt.pdb
REMARK  4 active torsions:
REMARK  status: ('A' for Active; 'I' for Inactive)
REMARK    1  A    between atoms: N_2  and  C_26
REMARK    2  A    between atoms: N_14  and  C_16
REMARK    3  A    between atoms: C_20  and  O_24
REMARK    4  A    between atoms: C_27  and  C_28
REMARK                            x       y       z     vdW  Elec       q    Type
REMARK                         _______ _______ _______ _____ _____    ______ ____
ROOT
ATOM      1  O   UNL     1     -29.782  41.258 -19.192  0.00  0.00    +0.000 OA
ATOM      2  N   UNL     1     -32.049  44.069 -18.965  0.00  0.00    +0.000 N 
ATOM      3  N   UNL     1     -30.330  42.547 -17.331  0.00  0.00    +0.000 N 
ATOM      4  N   UNL     1     -32.642  45.417 -17.088  0.00  0.00    +0.000 NA
ATOM      5  N   UNL     1     -31.737  45.043 -14.959  0.00  0.00    +0.000 NA
ATOM      6  C   UNL     1     -31.348  43.029 -19.537  0.00  0.00    +0.000 C 
ATOM      7  C   UNL     1     -31.929  44.385 -17.596  0.00  0.00    +0.000 A 
ATOM      8  C   UNL     1     -30.418  42.192 -18.694  0.00  0.00    +0.000 C 
ATOM      9  C   UNL     1     -31.086  43.633 -16.809  0.00  0.00    +0.000 A 
ATOM     10  C   UNL     1     -31.511  42.725 -21.022  0.00  0.00    +0.000 C 
ATOM     11  C   UNL     1     -29.486  41.856 -16.362  0.00  0.00    +0.000 C 
ATOM     12  C   UNL     1     -31.038  44.022 -15.488  0.00  0.00    +0.000 A 
ATOM     13  C   UNL     1     -32.530  45.720 -15.787  0.00  0.00    +0.000 A 
ATOM     14  N   UNL     1     -33.244  46.771 -15.228  0.00  0.00    +0.000 N 
ATOM     15  H   UNL     1     -33.043  46.862 -14.240  0.00  0.00    +0.000 HD
ENDROOT
BRANCH  14  16
ATOM     16  C   UNL     1     -34.150  47.679 -15.789  0.00  0.00    +0.000 A 
ATOM     17  C   UNL     1     -35.364  47.926 -15.134  0.00  0.00    +0.000 A 
ATOM     18  C   UNL     1     -36.290  48.823 -15.663  0.00  0.00    +0.000 A 
ATOM     19  F   UNL     1     -37.441  49.032 -15.006  0.00  0.00    +0.000 F 
ATOM     20  C   UNL     1     -36.026  49.489 -16.852  0.00  0.00    +0.000 A 
ATOM     21  C   UNL     1     -34.827  49.249 -17.507  0.00  0.00    +0.000 A 
ATOM     22  F   UNL     1     -34.560  49.888 -18.656  0.00  0.00    +0.000 F 
ATOM     23  C   UNL     1     -33.896  48.356 -16.985  0.00  0.00    +0.000 A 
BRANCH  20  24
ATOM     24  O   UNL     1     -36.939  50.367 -17.364  0.00  0.00    +0.000 OA
ATOM     25  H   UNL     1     -37.379  49.937 -18.122  0.00  0.00    +0.000 HD
ENDBRANCH  20  24
ENDBRANCH  14  16
BRANCH   2  26
ATOM     26  C   UNL     1     -32.952  44.880 -19.777  0.00  0.00    +0.000 C 
ATOM     27  C   UNL     1     -33.898  45.731 -20.634  0.00  0.00    +0.000 C 
BRANCH  27  28
ATOM     28  C   UNL     1     -34.771  46.516 -21.419  0.00  0.00    +0.000 C 
ATOM     29  C   UNL     1     -35.806  45.851 -22.274  0.00  0.00    +0.000 C 
ATOM     30  C   UNL     1     -34.626  48.006 -21.434  0.00  0.00    +0.000 C 
ENDBRANCH  27  28
ENDBRANCH   2  26
TORSDOF 4
ENDMDL
MODEL 3
REMARK VINA RESULT:      -5.9      4.795      8.290
REMARK  Name = 25023738_BI-D-1870.pdbqt.pdb
REMARK  4 active torsions:
REMARK  status: ('A' for Active; 'I' for Inactive)
REMARK    1  A    between atoms: N_2  and  C_26
REMARK    2  A    between atoms: N_14  and  C_16
REMARK    3  A    between atoms: C_20  and  O_24
REMARK    4  A    between atoms: C_27  and  C_28
REMARK                            x       y       z     vdW  Elec       q    Type
REMARK                         _______ _______ _______ _____ _____    ______ ____
ROOT
ATOM      1  O   UNL     1     -32.073  45.990 -17.925  0.00  0.00    +0.000 OA
ATOM      2  N   UNL     1     -34.585  47.129 -15.584  0.00  0.00    +0.000 N 
ATOM      3  N   UNL     1     -32.501  45.241 -15.761  0.00  0.00    +0.000 N 
ATOM      4  N   UNL     1     -35.062  46.397 -13.364  0.00  0.00    +0.000 NA
ATOM      5  N   UNL     1     -33.838  44.682 -12.336  0.00  0.00    +0.000 NA
ATOM      6  C   UNL     1     -33.858  47.061 -16.753  0.00  0.00    +0.000 C 
ATOM      7  C   UNL     1     -34.315  46.285 -14.487  0.00  0.00    +0.000 A 
ATOM      8  C   UNL     1     -32.734  46.062 -16.885  0.00  0.00    +0.000 C 
ATOM      9  C   UNL     1     -33.294  45.367 -14.588  0.00  0.00    +0.000 A 
ATOM     10  C   UNL     1     -34.188  47.994 -17.912  0.00  0.00    +0.000 C 
ATOM     11  C   UNL     1     -31.460  44.220 -15.702  0.00  0.00    +0.000 C 
ATOM     12  C   UNL     1     -33.110  44.592 -13.464  0.00  0.00    +0.000 A 
ATOM     13  C   UNL     1     -34.807  45.595 -12.319  0.00  0.00    +0.000 A 
ATOM     14  N   UNL     1     -35.551  45.679 -11.150  0.00  0.00    +0.000 N 
ATOM     15  H   UNL     1     -35.228  45.006 -10.466  0.00  0.00    +0.000 HD
ENDROOT
BRANCH  14  16
ATOM     16  C   UNL     1     -36.620  46.506 -10.788  0.00  0.00    +0.000 A 
ATOM     17  C   UNL     1     -37.622  46.778 -11.728  0.00  0.00    +0.000 A 
ATOM     18  C   UNL     1     -38.702  47.597 -11.403  0.00  0.00    +0.000 A 
ATOM     19  F   UNL     1     -39.641  47.834 -12.332  0.00  0.00    +0.000 F 
ATOM     20  C   UNL     1     -38.803  48.161 -10.139  0.00  0.00    +0.000 A 
ATOM     21  C   UNL     1     -37.814  47.897  -9.202  0.00  0.00    +0.000 A 
ATOM     22  F   UNL     1     -37.901  48.434  -7.976  0.00  0.00    +0.000 F 
ATOM     23  C   UNL     1     -36.734  47.079  -9.518  0.00  0.00    +0.000 A 
BRANCH  20  24
ATOM     24  O   UNL     1     -39.865  48.964  -9.827  0.00  0.00    +0.000 OA
ATOM     25  H   UNL     1     -39.889  49.069  -8.857  0.00  0.00    +0.000 HD
ENDBRANCH  20  24
ENDBRANCH  14  16
BRANCH   2  26
ATOM     26  C   UNL     1     -35.675  48.093 -15.453  0.00  0.00    +0.000 C 
ATOM     27  C   UNL     1     -36.823  49.101 -15.312  0.00  0.00    +0.000 C 
BRANCH  27  28
ATOM     28  C   UNL     1     -37.876  50.033 -15.185  0.00  0.00    +0.000 C 
ATOM     29  C   UNL     1     -38.527  50.596 -16.411  0.00  0.00    +0.000 C 
ATOM     30  C   UNL     1     -38.304  50.494 -13.825  0.00  0.00    +0.000 C 
ENDBRANCH  27  28
ENDBRANCH   2  26
TORSDOF 4
ENDMDL
MODEL 4
REMARK VINA RESULT:      -5.8     29.076     30.459
REMARK  Name = 25023738_BI-D-1870.pdbqt.pdb
REMARK  4 active torsions:
REMARK  status: ('A' for Active; 'I' for Inactive)
REMARK    1  A    between atoms: N_2  and  C_26
REMARK    2  A    between atoms: N_14  and  C_16
REMARK    3  A    between atoms: C_20  and  O_24
REMARK    4  A    between atoms: C_27  and  C_28
REMARK                            x       y       z     vdW  Elec       q    Type
REMARK                         _______ _______ _______ _____ _____    ______ ____
ROOT
ATOM      1  O   UNL     1     -15.646  44.043   5.535  0.00  0.00    +0.000 OA
ATOM      2  N   UNL     1     -16.221  47.614   5.446  0.00  0.00    +0.000 N 
ATOM      3  N   UNL     1     -15.429  45.514   3.742  0.00  0.00    +0.000 N 
ATOM      4  N   UNL     1     -16.013  49.159   3.640  0.00  0.00    +0.000 NA
ATOM      5  N   UNL     1     -15.345  48.480   1.499  0.00  0.00    +0.000 NA
ATOM      6  C   UNL     1     -16.142  46.340   5.966  0.00  0.00    +0.000 C 
ATOM      7  C   UNL     1     -15.918  47.889   4.096  0.00  0.00    +0.000 A 
ATOM      8  C   UNL     1     -15.721  45.190   5.084  0.00  0.00    +0.000 C 
ATOM      9  C   UNL     1     -15.532  46.853   3.275  0.00  0.00    +0.000 A 
ATOM     10  C   UNL     1     -16.478  46.092   7.432  0.00  0.00    +0.000 C 
ATOM     11  C   UNL     1     -15.007  44.538   2.742  0.00  0.00    +0.000 C 
ATOM     12  C   UNL     1     -15.259  47.224   1.976  0.00  0.00    +0.000 A 
ATOM     13  C   UNL     1     -15.726  49.424   2.357  0.00  0.00    +0.000 A 
ATOM     14  N   UNL     1     -15.812  50.714   1.851  0.00  0.00    +0.000 N 
ATOM     15  H   UNL     1     -15.562  50.736   0.870  0.00  0.00    +0.000 HD
ENDROOT
BRANCH  14  16
ATOM     16  C   UNL     1     -16.173  51.924   2.453  0.00  0.00    +0.000 A 
ATOM     17  C   UNL     1     -17.368  51.994   3.182  0.00  0.00    +0.000 A 
ATOM     18  C   UNL     1     -17.760  53.183   3.796  0.00  0.00    +0.000 A 
ATOM     19  F   UNL     1     -18.911  53.209   4.484  0.00  0.00    +0.000 F 
ATOM     20  C   UNL     1     -16.972  54.321   3.696  0.00  0.00    +0.000 A 
ATOM     21  C   UNL     1     -15.788  54.259   2.975  0.00  0.00    +0.000 A 
ATOM     22  F   UNL     1     -15.017  55.352   2.872  0.00  0.00    +0.000 F 
ATOM     23  C   UNL     1     -15.389  53.076   2.360  0.00  0.00    +0.000 A 
BRANCH  20  24
ATOM     24  O   UNL     1     -17.363  55.483   4.300  0.00  0.00    +0.000 OA
ATOM     25  H   UNL     1     -18.187  55.304   4.792  0.00  0.00    +0.000 HD
ENDBRANCH  20  24
ENDBRANCH  14  16
BRANCH   2  26
ATOM     26  C   UNL     1     -16.626  48.730   6.296  0.00  0.00    +0.000 C 
ATOM     27  C   UNL     1     -17.055  49.900   7.190  0.00  0.00    +0.000 C 
BRANCH  27  28
ATOM     28  C   UNL     1     -17.445  50.980   8.013  0.00  0.00    +0.000 C 
ATOM     29  C   UNL     1     -17.771  50.739   9.455  0.00  0.00    +0.000 C 
ATOM     30  C   UNL     1     -17.582  52.352   7.428  0.00  0.00    +0.000 C 
ENDBRANCH  27  28
ENDBRANCH   2  26
TORSDOF 4
ENDMDL
MODEL 5
REMARK VINA RESULT:      -5.8      4.638      8.021
REMARK  Name = 25023738_BI-D-1870.pdbqt.pdb
REMARK  4 active torsions:
REMARK  status: ('A' for Active; 'I' for Inactive)
REMARK    1  A    between atoms: N_2  and  C_26
REMARK    2  A    between atoms: N_14  and  C_16
REMARK    3  A    between atoms: C_20  and  O_24
REMARK    4  A    between atoms: C_27  and  C_28
REMARK                            x       y       z     vdW  Elec       q    Type
REMARK                         _______ _______ _______ _____ _____    ______ ____
ROOT
ATOM      1  O   UNL     1     -37.371  49.963 -15.739  0.00  0.00    +0.000 OA
ATOM      2  N   UNL     1     -35.164  47.123 -15.355  0.00  0.00    +0.000 N 
ATOM      3  N   UNL     1     -35.850  49.077 -17.265  0.00  0.00    +0.000 N 
ATOM      4  N   UNL     1     -33.593  46.179 -16.884  0.00  0.00    +0.000 NA
ATOM      5  N   UNL     1     -33.263  47.069 -19.027  0.00  0.00    +0.000 NA
ATOM      6  C   UNL     1     -36.121  48.057 -15.024  0.00  0.00    +0.000 C 
ATOM      7  C   UNL     1     -34.527  47.121 -16.613  0.00  0.00    +0.000 A 
ATOM      8  C   UNL     1     -36.515  49.119 -16.021  0.00  0.00    +0.000 C 
ATOM      9  C   UNL     1     -34.872  48.082 -17.537  0.00  0.00    +0.000 A 
ATOM     10  C   UNL     1     -36.783  48.018 -13.652  0.00  0.00    +0.000 C 
ATOM     11  C   UNL     1     -36.097  50.019 -18.352  0.00  0.00    +0.000 C 
ATOM     12  C   UNL     1     -34.194  47.995 -18.733  0.00  0.00    +0.000 A 
ATOM     13  C   UNL     1     -32.986  46.175 -18.079  0.00  0.00    +0.000 A 
ATOM     14  N   UNL     1     -32.023  45.226 -18.395  0.00  0.00    +0.000 N 
ATOM     15  H   UNL     1     -31.668  45.367 -19.332  0.00  0.00    +0.000 HD
ENDROOT
BRANCH  14  16
ATOM     16  C   UNL     1     -31.493  44.162 -17.656  0.00  0.00    +0.000 A 
ATOM     17  C   UNL     1     -30.171  44.240 -17.197  0.00  0.00    +0.000 A 
ATOM     18  C   UNL     1     -29.609  43.200 -16.458  0.00  0.00    +0.000 A 
ATOM     19  F   UNL     1     -28.341  43.314 -16.037  0.00  0.00    +0.000 F 
ATOM     20  C   UNL     1     -30.351  42.064 -16.164  0.00  0.00    +0.000 A 
ATOM     21  C   UNL     1     -31.660  41.979 -16.617  0.00  0.00    +0.000 A 
ATOM     22  F   UNL     1     -32.388  40.887 -16.338  0.00  0.00    +0.000 F 
ATOM     23  C   UNL     1     -32.229  43.013 -17.353  0.00  0.00    +0.000 A 
BRANCH  20  24
ATOM     24  O   UNL     1     -29.794  41.048 -15.440  0.00  0.00    +0.000 OA
ATOM     25  H   UNL     1     -29.184  40.560 -16.026  0.00  0.00    +0.000 HD
ENDBRANCH  20  24
ENDBRANCH  14  16
BRANCH   2  26
ATOM     26  C   UNL     1     -34.780  46.091 -14.394  0.00  0.00    +0.000 C 
ATOM     27  C   UNL     1     -34.381  45.011 -13.382  0.00  0.00    +0.000 C 
BRANCH  27  28
ATOM     28  C   UNL     1     -34.010  44.013 -12.453  0.00  0.00    +0.000 C 
ATOM     29  C   UNL     1     -34.311  42.575 -12.744  0.00  0.00    +0.000 C 
ATOM     30  C   UNL     1     -33.366  44.401 -11.158  0.00  0.00    +0.000 C 
ENDBRANCH  27  28
ENDBRANCH   2  26
TORSDOF 4
ENDMDL
MODEL 6
REMARK VINA RESULT:      -5.7      3.133      7.953
REMARK  Name = 25023738_BI-D-1870.pdbqt.pdb
REMARK  4 active torsions:
REMARK  status: ('A' for Active; 'I' for Inactive)
REMARK    1  A    between atoms: N_2  and  C_26
REMARK    2  A    between atoms: N_14  and  C_16
REMARK    3  A    between atoms: C_20  and  O_24
REMARK    4  A    between atoms: C_27  and  C_28
REMARK                            x       y       z     vdW  Elec       q    Type
REMARK                         _______ _______ _______ _____ _____    ______ ____
ROOT
ATOM      1  O   UNL     1     -36.363  49.462 -25.182  0.00  0.00    +0.000 OA
ATOM      2  N   UNL     1     -35.463  48.204 -21.912  0.00  0.00    +0.000 N 
ATOM      3  N   UNL     1     -36.654  50.465 -23.100  0.00  0.00    +0.000 N 
ATOM      4  N   UNL     1     -35.740  49.189 -19.757  0.00  0.00    +0.000 NA
ATOM      5  N   UNL     1     -36.723  51.297 -19.475  0.00  0.00    +0.000 NA
ATOM      6  C   UNL     1     -35.600  48.231 -23.283  0.00  0.00    +0.000 C 
ATOM      7  C   UNL     1     -35.899  49.269 -21.098  0.00  0.00    +0.000 A 
ATOM      8  C   UNL     1     -36.233  49.425 -23.955  0.00  0.00    +0.000 C 
ATOM      9  C   UNL     1     -36.479  50.368 -21.692  0.00  0.00    +0.000 A 
ATOM     10  C   UNL     1     -35.112  47.054 -24.122  0.00  0.00    +0.000 C 
ATOM     11  C   UNL     1     -37.286  51.695 -23.565  0.00  0.00    +0.000 C 
ATOM     12  C   UNL     1     -36.872  51.353 -20.812  0.00  0.00    +0.000 A 
ATOM     13  C   UNL     1     -36.153  50.201 -18.980  0.00  0.00    +0.000 A 
ATOM     14  N   UNL     1     -36.007  50.156 -17.600  0.00  0.00    +0.000 N 
ATOM     15  H   UNL     1     -36.371  50.997 -17.170  0.00  0.00    +0.000 HD
ENDROOT
BRANCH  14  16
ATOM     16  C   UNL     1     -35.466  49.180 -16.756  0.00  0.00    +0.000 A 
ATOM     17  C   UNL     1     -34.367  48.430 -17.196  0.00  0.00    +0.000 A 
ATOM     18  C   UNL     1     -33.801  47.449 -16.383  0.00  0.00    +0.000 A 
ATOM     19  F   UNL     1     -32.750  46.753 -16.841  0.00  0.00    +0.000 F 
ATOM     20  C   UNL     1     -34.318  47.196 -15.120  0.00  0.00    +0.000 A 
ATOM     21  C   UNL     1     -35.407  47.934 -14.678  0.00  0.00    +0.000 A 
ATOM     22  F   UNL     1     -35.915  47.700 -13.459  0.00  0.00    +0.000 F 
ATOM     23  C   UNL     1     -35.977  48.916 -15.483  0.00  0.00    +0.000 A 
BRANCH  20  24
ATOM     24  O   UNL     1     -33.759  46.233 -14.329  0.00  0.00    +0.000 OA
ATOM     25  H   UNL     1     -34.056  46.386 -13.411  0.00  0.00    +0.000 HD
ENDBRANCH  20  24
ENDBRANCH  14  16
BRANCH   2  26
ATOM     26  C   UNL     1     -34.849  47.051 -21.257  0.00  0.00    +0.000 C 
ATOM     27  C   UNL     1     -34.203  45.839 -20.575  0.00  0.00    +0.000 C 
BRANCH  27  28
ATOM     28  C   UNL     1     -33.609  44.725 -19.941  0.00  0.00    +0.000 C 
ATOM     29  C   UNL     1     -34.088  44.293 -18.589  0.00  0.00    +0.000 C 
ATOM     30  C   UNL     1     -32.468  44.013 -20.600  0.00  0.00    +0.000 C 
ENDBRANCH  27  28
ENDBRANCH   2  26
TORSDOF 4
ENDMDL
MODEL 7
REMARK VINA RESULT:      -5.7     20.826     22.921
REMARK  Name = 25023738_BI-D-1870.pdbqt.pdb
REMARK  4 active torsions:
REMARK  status: ('A' for Active; 'I' for Inactive)
REMARK    1  A    between atoms: N_2  and  C_26
REMARK    2  A    between atoms: N_14  and  C_16
REMARK    3  A    between atoms: C_20  and  O_24
REMARK    4  A    between atoms: C_27  and  C_28
REMARK                            x       y       z     vdW  Elec       q    Type
REMARK                         _______ _______ _______ _____ _____    ______ ____
ROOT
ATOM      1  O   UNL     1     -18.693  56.250 -33.038  0.00  0.00    +0.000 OA
ATOM      2  N   UNL     1     -17.711  55.076 -29.761  0.00  0.00    +0.000 N 
ATOM      3  N   UNL     1     -18.297  57.484 -31.103  0.00  0.00    +0.000 N 
ATOM      4  N   UNL     1     -17.293  56.296 -27.753  0.00  0.00    +0.000 NA
ATOM      5  N   UNL     1     -17.489  58.629 -27.657  0.00  0.00    +0.000 NA
ATOM      6  C   UNL     1     -18.059  55.018 -31.093  0.00  0.00    +0.000 C 
ATOM      7  C   UNL     1     -17.640  56.298 -29.061  0.00  0.00    +0.000 A 
ATOM      8  C   UNL     1     -18.379  56.287 -31.845  0.00  0.00    +0.000 C 
ATOM      9  C   UNL     1     -17.929  57.467 -29.729  0.00  0.00    +0.000 A 
ATOM     10  C   UNL     1     -18.120  53.673 -31.807  0.00  0.00    +0.000 C 
ATOM     11  C   UNL     1     -18.570  58.806 -31.657  0.00  0.00    +0.000 C 
ATOM     12  C   UNL     1     -17.833  58.605 -28.958  0.00  0.00    +0.000 A 
ATOM     13  C   UNL     1     -17.226  57.457 -27.085  0.00  0.00    +0.000 A 
ATOM     14  N   UNL     1     -16.873  57.495 -25.742  0.00  0.00    +0.000 N 
ATOM     15  H   UNL     1     -16.871  58.446 -25.395  0.00  0.00    +0.000 HD
ENDROOT
BRANCH  14  16
ATOM     16  C   UNL     1     -16.540  56.478 -24.841  0.00  0.00    +0.000 A 
ATOM     17  C   UNL     1     -16.454  56.777 -23.475  0.00  0.00    +0.000 A 
ATOM     18  C   UNL     1     -16.125  55.789 -22.548  0.00  0.00    +0.000 A 
ATOM     19  F   UNL     1     -16.053  56.115 -21.249  0.00  0.00    +0.000 F 
ATOM     20  C   UNL     1     -15.874  54.488 -22.963  0.00  0.00    +0.000 A 
ATOM     21  C   UNL     1     -15.956  54.185 -24.315  0.00  0.00    +0.000 A 
ATOM     22  F   UNL     1     -15.718  52.932 -24.729  0.00  0.00    +0.000 F 
ATOM     23  C   UNL     1     -16.286  55.165 -25.247  0.00  0.00    +0.000 A 
BRANCH  20  24
ATOM     24  O   UNL     1     -15.552  53.525 -22.049  0.00  0.00    +0.000 OA
ATOM     25  H   UNL     1     -16.381  53.118 -21.734  0.00  0.00    +0.000 HD
ENDBRANCH  20  24
ENDBRANCH  14  16
BRANCH   2  26
ATOM     26  C   UNL     1     -17.398  53.851 -29.029  0.00  0.00    +0.000 C 
ATOM     27  C   UNL     1     -17.069  52.568 -28.256  0.00  0.00    +0.000 C 
BRANCH  27  28
ATOM     28  C   UNL     1     -16.767  51.383 -27.549  0.00  0.00    +0.000 C 
ATOM     29  C   UNL     1     -17.870  50.585 -26.924  0.00  0.00    +0.000 C 
ATOM     30  C   UNL     1     -15.341  50.956 -27.383  0.00  0.00    +0.000 C 
ENDBRANCH  27  28
ENDBRANCH   2  26
TORSDOF 4
ENDMDL
MODEL 8
REMARK VINA RESULT:      -5.6     15.348     17.780
REMARK  Name = 25023738_BI-D-1870.pdbqt.pdb
REMARK  4 active torsions:
REMARK  status: ('A' for Active; 'I' for Inactive)
REMARK    1  A    between atoms: N_2  and  C_26
REMARK    2  A    between atoms: N_14  and  C_16
REMARK    3  A    between atoms: C_20  and  O_24
REMARK    4  A    between atoms: C_27  and  C_28
REMARK                            x       y       z     vdW  Elec       q    Type
REMARK                         _______ _______ _______ _____ _____    ______ ____
ROOT
ATOM      1  O   UNL     1     -29.330  60.354 -27.511  0.00  0.00    +0.000 OA
ATOM      2  N   UNL     1     -28.569  62.289 -24.550  0.00  0.00    +0.000 N 
ATOM      3  N   UNL     1     -30.792  61.238 -25.928  0.00  0.00    +0.000 N 
ATOM      4  N   UNL     1     -30.027  63.215 -22.904  0.00  0.00    +0.000 NA
ATOM      5  N   UNL     1     -32.353  62.955 -23.021  0.00  0.00    +0.000 NA
ATOM      6  C   UNL     1     -28.348  61.574 -25.708  0.00  0.00    +0.000 C 
ATOM      7  C   UNL     1     -29.868  62.505 -24.045  0.00  0.00    +0.000 A 
ATOM      8  C   UNL     1     -29.513  60.996 -26.473  0.00  0.00    +0.000 C 
ATOM      9  C   UNL     1     -30.945  61.986 -24.729  0.00  0.00    +0.000 A 
ATOM     10  C   UNL     1     -26.925  61.367 -26.216  0.00  0.00    +0.000 C 
ATOM     11  C   UNL     1     -32.035  60.761 -26.526  0.00  0.00    +0.000 C 
ATOM     12  C   UNL     1     -32.169  62.252 -24.154  0.00  0.00    +0.000 A 
ATOM     13  C   UNL     1     -31.260  63.422 -22.421  0.00  0.00    +0.000 A 
ATOM     14  N   UNL     1     -31.464  64.145 -21.253  0.00  0.00    +0.000 N 
ATOM     15  H   UNL     1     -32.451  64.206 -21.032  0.00  0.00    +0.000 HD
ENDROOT
BRANCH  14  16
ATOM     16  C   UNL     1     -30.566  64.767 -20.379  0.00  0.00    +0.000 A 
ATOM     17  C   UNL     1     -30.211  64.118 -19.188  0.00  0.00    +0.000 A 
ATOM     18  C   UNL     1     -29.319  64.706 -18.293  0.00  0.00    +0.000 A 
ATOM     19  F   UNL     1     -29.005  64.053 -17.165  0.00  0.00    +0.000 F 
ATOM     20  C   UNL     1     -28.767  65.951 -18.565  0.00  0.00    +0.000 A 
ATOM     21  C   UNL     1     -29.114  66.600 -19.741  0.00  0.00    +0.000 A 
ATOM     22  F   UNL     1     -28.586  67.802 -20.016  0.00  0.00    +0.000 F 
ATOM     23  C   UNL     1     -30.003  66.018 -20.641  0.00  0.00    +0.000 A 
BRANCH  20  24
ATOM     24  O   UNL     1     -27.893  66.522 -17.683  0.00  0.00    +0.000 OA
ATOM     25  H   UNL     1     -28.281  67.365 -17.379  0.00  0.00    +0.000 HD
ENDBRANCH  20  24
ENDBRANCH  14  16
BRANCH   2  26
ATOM     26  C   UNL     1     -27.445  62.852 -23.807  0.00  0.00    +0.000 C 
ATOM     27  C   UNL     1     -26.264  63.446 -23.031  0.00  0.00    +0.000 C 
BRANCH  27  28
ATOM     28  C   UNL     1     -25.177  63.991 -22.312  0.00  0.00    +0.000 C 
ATOM     29  C   UNL     1     -23.780  63.547 -22.622  0.00  0.00    +0.000 C 
ATOM     30  C   UNL     1     -25.428  64.970 -21.207  0.00  0.00    +0.000 C 
ENDBRANCH  27  28
ENDBRANCH   2  26
TORSDOF 4
ENDMDL
MODEL 9
REMARK VINA RESULT:      -5.5     16.697     19.207
REMARK  Name = 25023738_BI-D-1870.pdbqt.pdb
REMARK  4 active torsions:
REMARK  status: ('A' for Active; 'I' for Inactive)
REMARK    1  A    between atoms: N_2  and  C_26
REMARK    2  A    between atoms: N_14  and  C_16
REMARK    3  A    between atoms: C_20  and  O_24
REMARK    4  A    between atoms: C_27  and  C_28
REMARK                            x       y       z     vdW  Elec       q    Type
REMARK                         _______ _______ _______ _____ _____    ______ ____
ROOT
ATOM      1  O   UNL     1     -29.538  67.034  -7.072  0.00  0.00    +0.000 OA
ATOM      2  N   UNL     1     -32.330  64.794  -7.599  0.00  0.00    +0.000 N 
ATOM      3  N   UNL     1     -30.619  65.658  -5.533  0.00  0.00    +0.000 N 
ATOM      4  N   UNL     1     -33.469  63.369  -6.061  0.00  0.00    +0.000 NA
ATOM      5  N   UNL     1     -32.852  63.238  -3.803  0.00  0.00    +0.000 NA
ATOM      6  C   UNL     1     -31.353  65.719  -7.898  0.00  0.00    +0.000 C 
ATOM      7  C   UNL     1     -32.492  64.275  -6.298  0.00  0.00    +0.000 A 
ATOM      8  C   UNL     1     -30.418  66.205  -6.818  0.00  0.00    +0.000 C 
ATOM      9  C   UNL     1     -31.648  64.706  -5.298  0.00  0.00    +0.000 A 
ATOM     10  C   UNL     1     -31.216  66.250  -9.321  0.00  0.00    +0.000 C 
ATOM     11  C   UNL     1     -29.816  66.006  -4.366  0.00  0.00    +0.000 C 
ATOM     12  C   UNL     1     -31.888  64.141  -4.064  0.00  0.00    +0.000 A 
ATOM     13  C   UNL     1     -33.625  62.874  -4.824  0.00  0.00    +0.000 A 
ATOM     14  N   UNL     1     -34.615  61.943  -4.541  0.00  0.00    +0.000 N 
ATOM     15  H   UNL     1     -34.594  61.677  -3.565  0.00  0.00    +0.000 HD
ENDROOT
BRANCH  14  16
ATOM     16  C   UNL     1     -35.589  61.349  -5.352  0.00  0.00    +0.000 A 
ATOM     17  C   UNL     1     -35.547  59.965  -5.567  0.00  0.00    +0.000 A 
ATOM     18  C   UNL     1     -36.500  59.338  -6.369  0.00  0.00    +0.000 A 
ATOM     19  F   UNL     1     -36.425  58.012  -6.550  0.00  0.00    +0.000 F 
ATOM     20  C   UNL     1     -37.509  60.077  -6.971  0.00  0.00    +0.000 A 
ATOM     21  C   UNL     1     -37.557  61.448  -6.763  0.00  0.00    +0.000 A 
ATOM     22  F   UNL     1     -38.529  62.172  -7.338  0.00  0.00    +0.000 F 
ATOM     23  C   UNL     1     -36.610  62.081  -5.963  0.00  0.00    +0.000 A 
BRANCH  20  24
ATOM     24  O   UNL     1     -38.440  59.456  -7.756  0.00  0.00    +0.000 OA
ATOM     25  H   UNL     1     -38.127  58.548  -7.933  0.00  0.00    +0.000 HD
ENDBRANCH  20  24
ENDBRANCH  14  16
BRANCH   2  26
ATOM     26  C   UNL     1     -33.236  64.319  -8.641  0.00  0.00    +0.000 C 
ATOM     27  C   UNL     1     -34.192  63.820  -9.732  0.00  0.00    +0.000 C 
BRANCH  27  28
ATOM     28  C   UNL     1     -35.068  63.361 -10.741  0.00  0.00    +0.000 C 
ATOM     29  C   UNL     1     -36.212  62.463 -10.383  0.00  0.00    +0.000 C 
ATOM     30  C   UNL     1     -34.819  63.731 -12.171  0.00  0.00    +0.000 C 
ENDBRANCH  27  28
ENDBRANCH   2  26
TORSDOF 4
ENDMDL
