MODEL 1
REMARK VINA RESULT:      -4.4      0.000      0.000
REMARK  Name = 26879_Levamisole.pdbqt.pdb
REMARK  1 active torsions:
REMARK  status: ('A' for Active; 'I' for Inactive)
REMARK    1  A    between atoms: C_5  and  C_9
REMARK                            x       y       z     vdW  Elec       q    Type
REMARK                         _______ _______ _______ _____ _____    ______ ____
ROOT
ATOM      1  S   UNL     1     -35.242  49.655 -18.145  0.00  0.00    +0.000 S 
ATOM      2  N   UNL     1     -33.213  47.708 -18.270  0.00  0.00    +0.000 NA
ATOM      3  N   UNL     1     -34.201  48.235 -16.105  0.00  0.00    +0.000 NA
ATOM      4  C   UNL     1     -33.226  46.636 -17.323  0.00  0.00    +0.000 C 
ATOM      5  C   UNL     1     -33.688  46.980 -16.043  0.00  0.00    +0.000 C 
ATOM      6  C   UNL     1     -34.140  47.604 -19.369  0.00  0.00    +0.000 C 
ATOM      7  C   UNL     1     -33.983  48.651 -17.388  0.00  0.00    +0.000 C 
ATOM      8  C   UNL     1     -35.235  48.620 -19.474  0.00  0.00    +0.000 C 
ENDROOT
BRANCH   5   9
ATOM      9  C   UNL     1     -33.705  46.157 -14.843  0.00  0.00    +0.000 A 
ATOM     10  C   UNL     1     -34.525  46.471 -13.754  0.00  0.00    +0.000 A 
ATOM     11  C   UNL     1     -32.887  45.027 -14.757  0.00  0.00    +0.000 A 
ATOM     12  C   UNL     1     -34.529  45.676 -12.609  0.00  0.00    +0.000 A 
ATOM     13  C   UNL     1     -32.888  44.229 -13.615  0.00  0.00    +0.000 A 
ATOM     14  C   UNL     1     -33.709  44.554 -12.541  0.00  0.00    +0.000 A 
ENDBRANCH   5   9
TORSDOF 1
ENDMDL
MODEL 2
REMARK VINA RESULT:      -4.2     21.376     22.075
REMARK  Name = 26879_Levamisole.pdbqt.pdb
REMARK  1 active torsions:
REMARK  status: ('A' for Active; 'I' for Inactive)
REMARK    1  A    between atoms: C_5  and  C_9
REMARK                            x       y       z     vdW  Elec       q    Type
REMARK                         _______ _______ _______ _____ _____    ______ ____
ROOT
ATOM      1  S   UNL     1     -21.431  55.310 -34.084  0.00  0.00    +0.000 S 
ATOM      2  N   UNL     1     -20.348  53.024 -32.848  0.00  0.00    +0.000 NA
ATOM      3  N   UNL     1     -19.672  55.224 -32.044  0.00  0.00    +0.000 NA
ATOM      4  C   UNL     1     -19.994  53.090 -31.464  0.00  0.00    +0.000 C 
ATOM      5  C   UNL     1     -19.495  54.332 -31.037  0.00  0.00    +0.000 C 
ATOM      6  C   UNL     1     -21.750  52.873 -33.145  0.00  0.00    +0.000 C 
ATOM      7  C   UNL     1     -20.207  54.503 -33.075  0.00  0.00    +0.000 C 
ATOM      8  C   UNL     1     -22.448  53.983 -33.869  0.00  0.00    +0.000 C 
ENDROOT
BRANCH   5   9
ATOM      9  C   UNL     1     -18.939  54.677 -29.738  0.00  0.00    +0.000 A 
ATOM     10  C   UNL     1     -18.675  56.005 -29.386  0.00  0.00    +0.000 A 
ATOM     11  C   UNL     1     -18.651  53.673 -28.810  0.00  0.00    +0.000 A 
ATOM     12  C   UNL     1     -18.140  56.322 -28.139  0.00  0.00    +0.000 A 
ATOM     13  C   UNL     1     -18.116  53.984 -27.561  0.00  0.00    +0.000 A 
ATOM     14  C   UNL     1     -17.861  55.310 -27.227  0.00  0.00    +0.000 A 
ENDBRANCH   5   9
TORSDOF 1
ENDMDL
MODEL 3
REMARK VINA RESULT:      -4.2     20.752     21.625
REMARK  Name = 26879_Levamisole.pdbqt.pdb
REMARK  1 active torsions:
REMARK  status: ('A' for Active; 'I' for Inactive)
REMARK    1  A    between atoms: C_5  and  C_9
REMARK                            x       y       z     vdW  Elec       q    Type
REMARK                         _______ _______ _______ _____ _____    ______ ____
ROOT
ATOM      1  S   UNL     1     -14.366  54.306 -16.897  0.00  0.00    +0.000 S 
ATOM      2  N   UNL     1     -14.470  56.672 -18.420  0.00  0.00    +0.000 NA
ATOM      3  N   UNL     1     -14.417  54.529 -19.582  0.00  0.00    +0.000 NA
ATOM      4  C   UNL     1     -15.125  56.646 -19.691  0.00  0.00    +0.000 C 
ATOM      5  C   UNL     1     -14.989  55.444 -20.405  0.00  0.00    +0.000 C 
ATOM      6  C   UNL     1     -15.323  56.730 -17.260  0.00  0.00    +0.000 C 
ATOM      7  C   UNL     1     -14.157  55.202 -18.421  0.00  0.00    +0.000 C 
ATOM      8  C   UNL     1     -15.319  55.569 -16.315  0.00  0.00    +0.000 C 
ENDROOT
BRANCH   5   9
ATOM      9  C   UNL     1     -15.426  55.151 -21.761  0.00  0.00    +0.000 A 
ATOM     10  C   UNL     1     -16.045  56.122 -22.555  0.00  0.00    +0.000 A 
ATOM     11  C   UNL     1     -15.236  53.874 -22.298  0.00  0.00    +0.000 A 
ATOM     12  C   UNL     1     -16.462  55.827 -23.852  0.00  0.00    +0.000 A 
ATOM     13  C   UNL     1     -15.650  53.574 -23.594  0.00  0.00    +0.000 A 
ATOM     14  C   UNL     1     -16.263  54.551 -24.371  0.00  0.00    +0.000 A 
ENDBRANCH   5   9
TORSDOF 1
ENDMDL
MODEL 4
REMARK VINA RESULT:      -4.2     19.780     21.740
REMARK  Name = 26879_Levamisole.pdbqt.pdb
REMARK  1 active torsions:
REMARK  status: ('A' for Active; 'I' for Inactive)
REMARK    1  A    between atoms: C_5  and  C_9
REMARK                            x       y       z     vdW  Elec       q    Type
REMARK                         _______ _______ _______ _____ _____    ______ ____
ROOT
ATOM      1  S   UNL     1     -18.471  38.230  -5.979  0.00  0.00    +0.000 S 
ATOM      2  N   UNL     1     -19.642  38.966  -3.528  0.00  0.00    +0.000 NA
ATOM      3  N   UNL     1     -17.366  39.695  -4.006  0.00  0.00    +0.000 NA
ATOM      4  C   UNL     1     -19.252  40.200  -2.919  0.00  0.00    +0.000 C 
ATOM      5  C   UNL     1     -17.905  40.553  -3.103  0.00  0.00    +0.000 C 
ATOM      6  C   UNL     1     -20.569  39.058  -4.627  0.00  0.00    +0.000 C 
ATOM      7  C   UNL     1     -18.362  38.807  -4.299  0.00  0.00    +0.000 C 
ATOM      8  C   UNL     1     -20.108  38.630  -5.985  0.00  0.00    +0.000 C 
ENDROOT
BRANCH   5   9
ATOM      9  C   UNL     1     -17.180  41.668  -2.514  0.00  0.00    +0.000 A 
ATOM     10  C   UNL     1     -16.081  41.463  -1.674  0.00  0.00    +0.000 A 
ATOM     11  C   UNL     1     -17.580  42.981  -2.778  0.00  0.00    +0.000 A 
ATOM     12  C   UNL     1     -15.398  42.541  -1.113  0.00  0.00    +0.000 A 
ATOM     13  C   UNL     1     -16.900  44.062  -2.221  0.00  0.00    +0.000 A 
ATOM     14  C   UNL     1     -15.809  43.841  -1.388  0.00  0.00    +0.000 A 
ENDBRANCH   5   9
TORSDOF 1
ENDMDL
MODEL 5
REMARK VINA RESULT:      -4.2     21.209     21.913
REMARK  Name = 26879_Levamisole.pdbqt.pdb
REMARK  1 active torsions:
REMARK  status: ('A' for Active; 'I' for Inactive)
REMARK    1  A    between atoms: C_5  and  C_9
REMARK                            x       y       z     vdW  Elec       q    Type
REMARK                         _______ _______ _______ _____ _____    ______ ____
ROOT
ATOM      1  S   UNL     1     -17.103  58.987 -28.729  0.00  0.00    +0.000 S 
ATOM      2  N   UNL     1     -17.573  56.243 -28.309  0.00  0.00    +0.000 NA
ATOM      3  N   UNL     1     -16.280  57.479 -26.653  0.00  0.00    +0.000 NA
ATOM      4  C   UNL     1     -17.668  55.756 -26.968  0.00  0.00    +0.000 C 
ATOM      5  C   UNL     1     -16.831  56.400 -26.042  0.00  0.00    +0.000 C 
ATOM      6  C   UNL     1     -18.732  56.923 -28.829  0.00  0.00    +0.000 C 
ATOM      7  C   UNL     1     -16.734  57.434 -27.941  0.00  0.00    +0.000 C 
ATOM      8  C   UNL     1     -18.612  58.376 -29.169  0.00  0.00    +0.000 C 
ENDROOT
BRANCH   5   9
ATOM      9  C   UNL     1     -16.607  56.058 -24.645  0.00  0.00    +0.000 A 
ATOM     10  C   UNL     1     -16.991  56.919 -23.612  0.00  0.00    +0.000 A 
ATOM     11  C   UNL     1     -15.991  54.849 -24.310  0.00  0.00    +0.000 A 
ATOM     12  C   UNL     1     -16.768  56.581 -22.278  0.00  0.00    +0.000 A 
ATOM     13  C   UNL     1     -15.765  54.506 -22.978  0.00  0.00    +0.000 A 
ATOM     14  C   UNL     1     -16.155  55.373 -21.963  0.00  0.00    +0.000 A 
ENDBRANCH   5   9
TORSDOF 1
ENDMDL
MODEL 6
REMARK VINA RESULT:      -4.0     17.724     19.228
REMARK  Name = 26879_Levamisole.pdbqt.pdb
REMARK  1 active torsions:
REMARK  status: ('A' for Active; 'I' for Inactive)
REMARK    1  A    between atoms: C_5  and  C_9
REMARK                            x       y       z     vdW  Elec       q    Type
REMARK                         _______ _______ _______ _____ _____    ______ ____
ROOT
ATOM      1  S   UNL     1     -31.302  62.559 -23.815  0.00  0.00    +0.000 S 
ATOM      2  N   UNL     1     -28.545  62.021 -24.002  0.00  0.00    +0.000 NA
ATOM      3  N   UNL     1     -30.035  61.129 -25.714  0.00  0.00    +0.000 NA
ATOM      4  C   UNL     1     -27.961  61.852 -25.297  0.00  0.00    +0.000 C 
ATOM      5  C   UNL     1     -28.790  61.230 -26.245  0.00  0.00    +0.000 C 
ATOM      6  C   UNL     1     -28.811  63.375 -23.590  0.00  0.00    +0.000 C 
ATOM      7  C   UNL     1     -29.926  61.623 -24.444  0.00  0.00    +0.000 C 
ATOM      8  C   UNL     1     -30.235  63.788 -23.378  0.00  0.00    +0.000 C 
ENDROOT
BRANCH   5   9
ATOM      9  C   UNL     1     -28.450  60.809 -27.596  0.00  0.00    +0.000 A 
ATOM     10  C   UNL     1     -27.120  60.664 -28.003  0.00  0.00    +0.000 A 
ATOM     11  C   UNL     1     -29.462  60.543 -28.522  0.00  0.00    +0.000 A 
ATOM     12  C   UNL     1     -26.808  60.263 -29.301  0.00  0.00    +0.000 A 
ATOM     13  C   UNL     1     -29.156  60.142 -29.821  0.00  0.00    +0.000 A 
ATOM     14  C   UNL     1     -27.828  60.002 -30.210  0.00  0.00    +0.000 A 
ENDBRANCH   5   9
TORSDOF 1
ENDMDL
MODEL 7
REMARK VINA RESULT:      -3.9      2.740      4.092
REMARK  Name = 26879_Levamisole.pdbqt.pdb
REMARK  1 active torsions:
REMARK  status: ('A' for Active; 'I' for Inactive)
REMARK    1  A    between atoms: C_5  and  C_9
REMARK                            x       y       z     vdW  Elec       q    Type
REMARK                         _______ _______ _______ _____ _____    ______ ____
ROOT
ATOM      1  S   UNL     1     -34.971  47.912 -18.635  0.00  0.00    +0.000 S 
ATOM      2  N   UNL     1     -34.372  46.763 -16.136  0.00  0.00    +0.000 NA
ATOM      3  N   UNL     1     -33.350  45.818 -18.137  0.00  0.00    +0.000 NA
ATOM      4  C   UNL     1     -33.090  46.158 -15.943  0.00  0.00    +0.000 C 
ATOM      5  C   UNL     1     -32.562  45.514 -17.074  0.00  0.00    +0.000 C 
ATOM      6  C   UNL     1     -34.417  48.202 -16.080  0.00  0.00    +0.000 C 
ATOM      7  C   UNL     1     -34.367  46.576 -17.627  0.00  0.00    +0.000 C 
ATOM      8  C   UNL     1     -34.794  48.951 -17.320  0.00  0.00    +0.000 C 
ENDROOT
BRANCH   5   9
ATOM      9  C   UNL     1     -31.353  44.709 -17.167  0.00  0.00    +0.000 A 
ATOM     10  C   UNL     1     -30.634  44.606 -18.361  0.00  0.00    +0.000 A 
ATOM     11  C   UNL     1     -30.889  44.013 -16.047  0.00  0.00    +0.000 A 
ATOM     12  C   UNL     1     -29.479  43.829 -18.437  0.00  0.00    +0.000 A 
ATOM     13  C   UNL     1     -29.735  43.235 -16.117  0.00  0.00    +0.000 A 
ATOM     14  C   UNL     1     -29.030  43.144 -17.313  0.00  0.00    +0.000 A 
ENDBRANCH   5   9
TORSDOF 1
ENDMDL
MODEL 8
REMARK VINA RESULT:      -3.9     21.330     22.396
REMARK  Name = 26879_Levamisole.pdbqt.pdb
REMARK  1 active torsions:
REMARK  status: ('A' for Active; 'I' for Inactive)
REMARK    1  A    between atoms: C_5  and  C_9
REMARK                            x       y       z     vdW  Elec       q    Type
REMARK                         _______ _______ _______ _____ _____    ______ ____
ROOT
ATOM      1  S   UNL     1     -23.325  51.748 -35.789  0.00  0.00    +0.000 S 
ATOM      2  N   UNL     1     -23.639  52.636 -33.137  0.00  0.00    +0.000 NA
ATOM      3  N   UNL     1     -21.426  51.942 -33.888  0.00  0.00    +0.000 NA
ATOM      4  C   UNL     1     -22.540  53.285 -32.491  0.00  0.00    +0.000 C 
ATOM      5  C   UNL     1     -21.271  52.797 -32.845  0.00  0.00    +0.000 C 
ATOM      6  C   UNL     1     -24.393  53.430 -34.072  0.00  0.00    +0.000 C 
ATOM      7  C   UNL     1     -22.774  51.875 -34.102  0.00  0.00    +0.000 C 
ATOM      8  C   UNL     1     -24.380  53.033 -35.516  0.00  0.00    +0.000 C 
ENDROOT
BRANCH   5   9
ATOM      9  C   UNL     1     -19.981  53.157 -32.278  0.00  0.00    +0.000 A 
ATOM     10  C   UNL     1     -18.908  53.541 -33.090  0.00  0.00    +0.000 A 
ATOM     11  C   UNL     1     -19.789  53.121 -30.894  0.00  0.00    +0.000 A 
ATOM     12  C   UNL     1     -17.676  53.881 -32.534  0.00  0.00    +0.000 A 
ATOM     13  C   UNL     1     -18.559  53.460 -30.334  0.00  0.00    +0.000 A 
ATOM     14  C   UNL     1     -17.503  53.840 -31.155  0.00  0.00    +0.000 A 
ENDBRANCH   5   9
TORSDOF 1
ENDMDL
MODEL 9
REMARK VINA RESULT:      -3.9     22.466     24.921
REMARK  Name = 26879_Levamisole.pdbqt.pdb
REMARK  1 active torsions:
REMARK  status: ('A' for Active; 'I' for Inactive)
REMARK    1  A    between atoms: C_5  and  C_9
REMARK                            x       y       z     vdW  Elec       q    Type
REMARK                         _______ _______ _______ _____ _____    ______ ____
ROOT
ATOM      1  S   UNL     1     -28.762  50.610  11.063  0.00  0.00    +0.000 S 
ATOM      2  N   UNL     1     -31.359  51.010  10.053  0.00  0.00    +0.000 NA
ATOM      3  N   UNL     1     -29.458  51.317   8.558  0.00  0.00    +0.000 NA
ATOM      4  C   UNL     1     -31.613  50.735   8.672  0.00  0.00    +0.000 C 
ATOM      5  C   UNL     1     -30.548  51.026   7.804  0.00  0.00    +0.000 C 
ATOM      6  C   UNL     1     -31.283  49.870  10.930  0.00  0.00    +0.000 C 
ATOM      7  C   UNL     1     -29.891  51.264   9.853  0.00  0.00    +0.000 C 
ATOM      8  C   UNL     1     -29.978  49.574  11.601  0.00  0.00    +0.000 C 
ENDROOT
BRANCH   5   9
ATOM      9  C   UNL     1     -30.536  50.975   6.350  0.00  0.00    +0.000 A 
ATOM     10  C   UNL     1     -29.741  51.844   5.595  0.00  0.00    +0.000 A 
ATOM     11  C   UNL     1     -31.333  50.047   5.675  0.00  0.00    +0.000 A 
ATOM     12  C   UNL     1     -29.741  51.786   4.202  0.00  0.00    +0.000 A 
ATOM     13  C   UNL     1     -31.337  49.985   4.283  0.00  0.00    +0.000 A 
ATOM     14  C   UNL     1     -30.540  50.855   3.547  0.00  0.00    +0.000 A 
ENDBRANCH   5   9
TORSDOF 1
ENDMDL
