MODEL 1
REMARK VINA RESULT:      -4.5      0.000      0.000
REMARK  Name = 27924_Phorbol.pdbqt.pdb
REMARK  26 active torsions:
REMARK  status: ('A' for Active; 'I' for Inactive)
REMARK    1  A    between atoms: O_1  and  C_10
REMARK    2  A    between atoms: O_1  and  C_26
REMARK    3  A    between atoms: O_2  and  C_13
REMARK    4  A    between atoms: O_2  and  C_28
REMARK    5  A    between atoms: O_3  and  C_14
REMARK    6  A    between atoms: O_4  and  C_20
REMARK    7  A    between atoms: O_7  and  C_29
REMARK    8  A    between atoms: C_11  and  C_16
REMARK    9  A    between atoms: C_11  and  C_17
REMARK   10  A    between atoms: C_15  and  C_21
REMARK   11  A    between atoms: C_22  and  C_29
REMARK   12  A    between atoms: C_26  and  C_30
REMARK   13  A    between atoms: C_27  and  C_31
REMARK   14  A    between atoms: C_28  and  C_32
REMARK   15  A    between atoms: C_32  and  C_33
REMARK   16  A    between atoms: C_33  and  C_34
REMARK   17  A    between atoms: C_34  and  C_35
REMARK   18  A    between atoms: C_35  and  C_36
REMARK   19  A    between atoms: C_36  and  C_37
REMARK   20  A    between atoms: C_37  and  C_38
REMARK   21  A    between atoms: C_38  and  C_39
REMARK   22  A    between atoms: C_39  and  C_40
REMARK   23  A    between atoms: C_40  and  C_41
REMARK   24  A    between atoms: C_41  and  C_42
REMARK   25  A    between atoms: C_42  and  C_43
REMARK   26  A    between atoms: C_43  and  C_44
REMARK                            x       y       z     vdW  Elec       q    Type
REMARK                         _______ _______ _______ _____ _____    ______ ____
ROOT
ATOM      1  O   UNL     1     -20.598  55.530 -33.000  0.00  0.00    +0.000 OA
ATOM      2  C   UNL     1     -15.518  56.610 -28.164  0.00  0.00    +0.000 C 
ATOM      3  C   UNL     1     -15.310  55.602 -27.049  0.00  0.00    +0.000 C 
ATOM      4  C   UNL     1     -15.947  56.991 -26.761  0.00  0.00    +0.000 C 
ATOM      5  C   UNL     1     -16.326  56.259 -29.377  0.00  0.00    +0.000 C 
ATOM      6  C   UNL     1     -16.108  54.288 -27.134  0.00  0.00    +0.000 C 
ATOM      7  C   UNL     1     -17.281  54.981 -29.303  0.00  0.00    +0.000 C 
ATOM      8  C   UNL     1     -16.381  53.875 -28.623  0.00  0.00    +0.000 C 
ATOM      9  C   UNL     1     -15.108  58.089 -26.129  0.00  0.00    +0.000 C 
ATOM     10  C   UNL     1     -17.406  57.146 -26.410  0.00  0.00    +0.000 C 
ATOM     11  C   UNL     1     -17.879  54.697 -30.773  0.00  0.00    +0.000 C 
ATOM     12  C   UNL     1     -16.981  57.459 -30.035  0.00  0.00    +0.000 C 
ATOM     13  C   UNL     1     -18.850  55.828 -31.335  0.00  0.00    +0.000 C 
ATOM     14  C   UNL     1     -16.918  52.444 -28.687  0.00  0.00    +0.000 C 
ATOM     15  C   UNL     1     -16.945  57.493 -31.384  0.00  0.00    +0.000 C 
ATOM     16  C   UNL     1     -18.183  56.989 -32.105  0.00  0.00    +0.000 C 
ATOM     17  C   UNL     1     -18.745  53.466 -31.012  0.00  0.00    +0.000 C 
ATOM     18  C   UNL     1     -19.805  55.043 -32.208  0.00  0.00    +0.000 C 
ATOM     19  C   UNL     1     -19.771  53.619 -31.859  0.00  0.00    +0.000 C 
ATOM     20  C   UNL     1     -20.745  52.637 -32.381  0.00  0.00    +0.000 C 
ENDROOT
BRANCH   7  21
ATOM     21  O   UNL     1     -18.393  55.187 -28.421  0.00  0.00    +0.000 OA
ATOM     22  H   UNL     1     -19.215  54.975 -28.916  0.00  0.00    +0.000 HD
ENDBRANCH   7  21
BRANCH  13  23
ATOM     23  O   UNL     1     -19.707  56.357 -30.293  0.00  0.00    +0.000 OA
ATOM     24  H   UNL     1     -19.128  56.895 -29.714  0.00  0.00    +0.000 HD
ENDBRANCH  13  23
BRANCH   3  25
ATOM     25  O   UNL     1     -13.889  55.423 -26.812  0.00  0.00    +0.000 OA
BRANCH  25  27
ATOM     26  O   UNL     1     -12.194  56.462 -27.854  0.00  0.00    +0.000 OA
ATOM     27  C   UNL     1     -12.929  55.480 -27.768  0.00  0.00    +0.000 C 
ATOM     28  C   UNL     1     -12.727  54.293 -28.660  0.00  0.00    +0.000 C 
ENDBRANCH  25  27
ENDBRANCH   3  25
BRANCH  15  29
ATOM     29  C   UNL     1     -15.670  57.428 -32.183  0.00  0.00    +0.000 C 
BRANCH  29  30
ATOM     30  O   UNL     1     -15.797  56.388 -33.138  0.00  0.00    +0.000 OA
ATOM     31  H   UNL     1     -16.750  56.210 -33.232  0.00  0.00    +0.000 HD
ENDBRANCH  29  30
ENDBRANCH  15  29
BRANCH   6  32
ATOM     32  O   UNL     1     -15.337  53.252 -26.466  0.00  0.00    +0.000 OA
BRANCH  32  34
ATOM     33  O   UNL     1     -15.285  51.683 -24.873  0.00  0.00    +0.000 OA
ATOM     34  C   UNL     1     -15.503  52.851 -25.185  0.00  0.00    +0.000 C 
BRANCH  34  35
ATOM     35  C   UNL     1     -15.957  53.850 -24.149  0.00  0.00    +0.000 C 
BRANCH  35  36
ATOM     36  C   UNL     1     -14.926  54.019 -23.040  0.00  0.00    +0.000 C 
BRANCH  36  37
ATOM     37  C   UNL     1     -15.529  54.313 -21.662  0.00  0.00    +0.000 C 
BRANCH  37  38
ATOM     38  C   UNL     1     -15.660  55.807 -21.333  0.00  0.00    +0.000 C 
BRANCH  38  39
ATOM     39  C   UNL     1     -16.948  56.419 -21.891  0.00  0.00    +0.000 C 
BRANCH  39  40
ATOM     40  C   UNL     1     -16.713  57.678 -22.731  0.00  0.00    +0.000 C 
BRANCH  40  41
ATOM     41  C   UNL     1     -15.449  58.441 -22.326  0.00  0.00    +0.000 C 
BRANCH  41  42
ATOM     42  C   UNL     1     -15.732  59.863 -21.832  0.00  0.00    +0.000 C 
BRANCH  42  43
ATOM     43  C   UNL     1     -16.949  60.020 -20.916  0.00  0.00    +0.000 C 
BRANCH  43  44
ATOM     44  C   UNL     1     -16.673  59.860 -19.417  0.00  0.00    +0.000 C 
BRANCH  44  45
ATOM     45  C   UNL     1     -16.986  58.480 -18.831  0.00  0.00    +0.000 C 
BRANCH  45  46
ATOM     46  C   UNL     1     -15.781  57.679 -18.334  0.00  0.00    +0.000 C 
ATOM     47  C   UNL     1     -14.456  58.402 -18.515  0.00  0.00    +0.000 C 
ENDBRANCH  45  46
ENDBRANCH  44  45
ENDBRANCH  43  44
ENDBRANCH  42  43
ENDBRANCH  41  42
ENDBRANCH  40  41
ENDBRANCH  39  40
ENDBRANCH  38  39
ENDBRANCH  37  38
ENDBRANCH  36  37
ENDBRANCH  35  36
ENDBRANCH  34  35
ENDBRANCH  32  34
ENDBRANCH   6  32
TORSDOF 20
ENDMDL
MODEL 2
REMARK VINA RESULT:      -4.4      6.581     10.561
REMARK  Name = 27924_Phorbol.pdbqt.pdb
REMARK  26 active torsions:
REMARK  status: ('A' for Active; 'I' for Inactive)
REMARK    1  A    between atoms: O_1  and  C_10
REMARK    2  A    between atoms: O_1  and  C_26
REMARK    3  A    between atoms: O_2  and  C_13
REMARK    4  A    between atoms: O_2  and  C_28
REMARK    5  A    between atoms: O_3  and  C_14
REMARK    6  A    between atoms: O_4  and  C_20
REMARK    7  A    between atoms: O_7  and  C_29
REMARK    8  A    between atoms: C_11  and  C_16
REMARK    9  A    between atoms: C_11  and  C_17
REMARK   10  A    between atoms: C_15  and  C_21
REMARK   11  A    between atoms: C_22  and  C_29
REMARK   12  A    between atoms: C_26  and  C_30
REMARK   13  A    between atoms: C_27  and  C_31
REMARK   14  A    between atoms: C_28  and  C_32
REMARK   15  A    between atoms: C_32  and  C_33
REMARK   16  A    between atoms: C_33  and  C_34
REMARK   17  A    between atoms: C_34  and  C_35
REMARK   18  A    between atoms: C_35  and  C_36
REMARK   19  A    between atoms: C_36  and  C_37
REMARK   20  A    between atoms: C_37  and  C_38
REMARK   21  A    between atoms: C_38  and  C_39
REMARK   22  A    between atoms: C_39  and  C_40
REMARK   23  A    between atoms: C_40  and  C_41
REMARK   24  A    between atoms: C_41  and  C_42
REMARK   25  A    between atoms: C_42  and  C_43
REMARK   26  A    between atoms: C_43  and  C_44
REMARK                            x       y       z     vdW  Elec       q    Type
REMARK                         _______ _______ _______ _____ _____    ______ ____
ROOT
ATOM      1  O   UNL     1     -15.285  58.403 -23.954  0.00  0.00    +0.000 OA
ATOM      2  C   UNL     1     -13.293  56.488 -17.417  0.00  0.00    +0.000 C 
ATOM      3  C   UNL     1     -13.777  57.281 -16.217  0.00  0.00    +0.000 C 
ATOM      4  C   UNL     1     -12.299  57.374 -16.693  0.00  0.00    +0.000 C 
ATOM      5  C   UNL     1     -13.952  56.640 -18.755  0.00  0.00    +0.000 C 
ATOM      6  C   UNL     1     -14.836  58.369 -16.476  0.00  0.00    +0.000 C 
ATOM      7  C   UNL     1     -14.884  57.914 -18.997  0.00  0.00    +0.000 C 
ATOM      8  C   UNL     1     -15.763  57.994 -17.686  0.00  0.00    +0.000 C 
ATOM      9  C   UNL     1     -11.217  56.615 -15.944  0.00  0.00    +0.000 C 
ATOM     10  C   UNL     1     -11.744  58.616 -17.347  0.00  0.00    +0.000 C 
ATOM     11  C   UNL     1     -15.627  57.749 -20.418  0.00  0.00    +0.000 C 
ATOM     12  C   UNL     1     -13.026  56.346 -19.921  0.00  0.00    +0.000 C 
ATOM     13  C   UNL     1     -14.664  57.774 -21.687  0.00  0.00    +0.000 C 
ATOM     14  C   UNL     1     -16.966  58.935 -17.744  0.00  0.00    +0.000 C 
ATOM     15  C   UNL     1     -13.554  55.628 -20.936  0.00  0.00    +0.000 C 
ATOM     16  C   UNL     1     -14.067  56.418 -22.126  0.00  0.00    +0.000 C 
ATOM     17  C   UNL     1     -16.662  58.779 -20.854  0.00  0.00    +0.000 C 
ATOM     18  C   UNL     1     -15.544  58.379 -22.759  0.00  0.00    +0.000 C 
ATOM     19  C   UNL     1     -16.680  59.085 -22.157  0.00  0.00    +0.000 C 
ATOM     20  C   UNL     1     -17.588  59.959 -22.930  0.00  0.00    +0.000 C 
ENDROOT
BRANCH   7  21
ATOM     21  O   UNL     1     -14.131  59.133 -19.046  0.00  0.00    +0.000 OA
ATOM     22  H   UNL     1     -13.196  58.903 -19.241  0.00  0.00    +0.000 HD
ENDBRANCH   7  21
BRANCH  13  23
ATOM     23  O   UNL     1     -13.606  58.750 -21.531  0.00  0.00    +0.000 OA
ATOM     24  H   UNL     1     -12.973  58.582 -22.260  0.00  0.00    +0.000 HD
ENDBRANCH  13  23
BRANCH   3  25
ATOM     25  O   UNL     1     -14.105  56.374 -15.133  0.00  0.00    +0.000 OA
BRANCH  25  27
ATOM     26  O   UNL     1     -15.815  55.023 -15.674  0.00  0.00    +0.000 OA
ATOM     27  C   UNL     1     -14.653  55.143 -15.289  0.00  0.00    +0.000 C 
ATOM     28  C   UNL     1     -13.792  53.936 -15.064  0.00  0.00    +0.000 C 
ENDBRANCH  25  27
ENDBRANCH   3  25
BRANCH  15  29
ATOM     29  C   UNL     1     -14.177  54.269 -20.755  0.00  0.00    +0.000 C 
BRANCH  29  30
ATOM     30  O   UNL     1     -15.494  54.312 -21.276  0.00  0.00    +0.000 OA
ATOM     31  H   UNL     1     -15.786  53.388 -21.374  0.00  0.00    +0.000 HD
ENDBRANCH  29  30
ENDBRANCH  15  29
BRANCH   6  32
ATOM     32  O   UNL     1     -15.632  58.514 -15.268  0.00  0.00    +0.000 OA
BRANCH  32  34
ATOM     33  O   UNL     1     -16.167  59.468 -13.318  0.00  0.00    +0.000 OA
ATOM     34  C   UNL     1     -15.457  59.463 -14.321  0.00  0.00    +0.000 C 
BRANCH  34  35
ATOM     35  C   UNL     1     -14.386  60.508 -14.509  0.00  0.00    +0.000 C 
BRANCH  35  36
ATOM     36  C   UNL     1     -14.983  61.878 -14.811  0.00  0.00    +0.000 C 
BRANCH  36  37
ATOM     37  C   UNL     1     -15.830  61.926 -16.087  0.00  0.00    +0.000 C 
BRANCH  37  38
ATOM     38  C   UNL     1     -15.039  62.252 -17.361  0.00  0.00    +0.000 C 
BRANCH  38  39
ATOM     39  C   UNL     1     -15.703  63.349 -18.199  0.00  0.00    +0.000 C 
BRANCH  39  40
ATOM     40  C   UNL     1     -16.090  62.893 -19.609  0.00  0.00    +0.000 C 
BRANCH  40  41
ATOM     41  C   UNL     1     -17.285  61.936 -19.623  0.00  0.00    +0.000 C 
BRANCH  41  42
ATOM     42  C   UNL     1     -18.595  62.596 -19.184  0.00  0.00    +0.000 C 
BRANCH  42  43
ATOM     43  C   UNL     1     -18.999  62.371 -17.724  0.00  0.00    +0.000 C 
BRANCH  43  44
ATOM     44  C   UNL     1     -20.332  61.647 -17.511  0.00  0.00    +0.000 C 
BRANCH  44  45
ATOM     45  C   UNL     1     -20.512  60.982 -16.144  0.00  0.00    +0.000 C 
BRANCH  45  46
ATOM     46  C   UNL     1     -19.231  60.483 -15.472  0.00  0.00    +0.000 C 
ATOM     47  C   UNL     1     -18.896  61.221 -14.185  0.00  0.00    +0.000 C 
ENDBRANCH  45  46
ENDBRANCH  44  45
ENDBRANCH  43  44
ENDBRANCH  42  43
ENDBRANCH  41  42
ENDBRANCH  40  41
ENDBRANCH  39  40
ENDBRANCH  38  39
ENDBRANCH  37  38
ENDBRANCH  36  37
ENDBRANCH  35  36
ENDBRANCH  34  35
ENDBRANCH  32  34
ENDBRANCH   6  32
TORSDOF 20
ENDMDL
MODEL 3
REMARK VINA RESULT:      -4.4     29.520     32.471
REMARK  Name = 27924_Phorbol.pdbqt.pdb
REMARK  26 active torsions:
REMARK  status: ('A' for Active; 'I' for Inactive)
REMARK    1  A    between atoms: O_1  and  C_10
REMARK    2  A    between atoms: O_1  and  C_26
REMARK    3  A    between atoms: O_2  and  C_13
REMARK    4  A    between atoms: O_2  and  C_28
REMARK    5  A    between atoms: O_3  and  C_14
REMARK    6  A    between atoms: O_4  and  C_20
REMARK    7  A    between atoms: O_7  and  C_29
REMARK    8  A    between atoms: C_11  and  C_16
REMARK    9  A    between atoms: C_11  and  C_17
REMARK   10  A    between atoms: C_15  and  C_21
REMARK   11  A    between atoms: C_22  and  C_29
REMARK   12  A    between atoms: C_26  and  C_30
REMARK   13  A    between atoms: C_27  and  C_31
REMARK   14  A    between atoms: C_28  and  C_32
REMARK   15  A    between atoms: C_32  and  C_33
REMARK   16  A    between atoms: C_33  and  C_34
REMARK   17  A    between atoms: C_34  and  C_35
REMARK   18  A    between atoms: C_35  and  C_36
REMARK   19  A    between atoms: C_36  and  C_37
REMARK   20  A    between atoms: C_37  and  C_38
REMARK   21  A    between atoms: C_38  and  C_39
REMARK   22  A    between atoms: C_39  and  C_40
REMARK   23  A    between atoms: C_40  and  C_41
REMARK   24  A    between atoms: C_41  and  C_42
REMARK   25  A    between atoms: C_42  and  C_43
REMARK   26  A    between atoms: C_43  and  C_44
REMARK                            x       y       z     vdW  Elec       q    Type
REMARK                         _______ _______ _______ _____ _____    ______ ____
ROOT
ATOM      1  O   UNL     1     -15.858  46.795   1.213  0.00  0.00    +0.000 OA
ATOM      2  C   UNL     1     -15.692  53.225   4.210  0.00  0.00    +0.000 C 
ATOM      3  C   UNL     1     -16.519  53.501   5.452  0.00  0.00    +0.000 C 
ATOM      4  C   UNL     1     -16.922  54.100   4.074  0.00  0.00    +0.000 C 
ATOM      5  C   UNL     1     -15.431  51.819   3.757  0.00  0.00    +0.000 C 
ATOM      6  C   UNL     1     -17.222  52.298   6.108  0.00  0.00    +0.000 C 
ATOM      7  C   UNL     1     -16.348  50.653   4.349  0.00  0.00    +0.000 C 
ATOM      8  C   UNL     1     -16.412  50.971   5.896  0.00  0.00    +0.000 C 
ATOM      9  C   UNL     1     -16.619  55.557   3.768  0.00  0.00    +0.000 C 
ATOM     10  C   UNL     1     -18.136  53.622   3.317  0.00  0.00    +0.000 C 
ATOM     11  C   UNL     1     -15.750  49.234   3.874  0.00  0.00    +0.000 C 
ATOM     12  C   UNL     1     -15.201  51.700   2.262  0.00  0.00    +0.000 C 
ATOM     13  C   UNL     1     -15.815  48.968   2.305  0.00  0.00    +0.000 C 
ATOM     14  C   UNL     1     -16.972  49.860   6.784  0.00  0.00    +0.000 C 
ATOM     15  C   UNL     1     -14.206  50.873   1.876  0.00  0.00    +0.000 C 
ATOM     16  C   UNL     1     -14.615  49.468   1.470  0.00  0.00    +0.000 C 
ATOM     17  C   UNL     1     -16.375  47.942   4.386  0.00  0.00    +0.000 C 
ATOM     18  C   UNL     1     -15.970  47.464   2.229  0.00  0.00    +0.000 C 
ATOM     19  C   UNL     1     -16.438  46.928   3.512  0.00  0.00    +0.000 C 
ATOM     20  C   UNL     1     -16.892  45.532   3.686  0.00  0.00    +0.000 C 
ENDROOT
BRANCH   7  21
ATOM     21  O   UNL     1     -17.698  50.732   3.871  0.00  0.00    +0.000 OA
ATOM     22  H   UNL     1     -17.686  51.209   3.012  0.00  0.00    +0.000 HD
ENDBRANCH   7  21
BRANCH  13  23
ATOM     23  O   UNL     1     -17.051  49.461   1.734  0.00  0.00    +0.000 OA
ATOM     24  H   UNL     1     -16.798  50.187   1.126  0.00  0.00    +0.000 HD
ENDBRANCH  13  23
BRANCH   3  25
ATOM     25  O   UNL     1     -15.756  54.322   6.374  0.00  0.00    +0.000 OA
BRANCH  25  27
ATOM     26  O   UNL     1     -13.982  53.183   7.146  0.00  0.00    +0.000 OA
ATOM     27  C   UNL     1     -14.426  54.196   6.608  0.00  0.00    +0.000 C 
ATOM     28  C   UNL     1     -13.502  55.274   6.126  0.00  0.00    +0.000 C 
ENDBRANCH  25  27
ENDBRANCH   3  25
BRANCH  15  29
ATOM     29  C   UNL     1     -12.781  51.014   2.343  0.00  0.00    +0.000 C 
BRANCH  29  30
ATOM     30  O   UNL     1     -12.334  52.318   2.014  0.00  0.00    +0.000 OA
ATOM     31  H   UNL     1     -11.934  52.262   1.128  0.00  0.00    +0.000 HD
ENDBRANCH  29  30
ENDBRANCH  15  29
BRANCH   6  32
ATOM     32  O   UNL     1     -17.352  52.577   7.529  0.00  0.00    +0.000 OA
BRANCH  32  34
ATOM     33  O   UNL     1     -18.697  52.504   9.315  0.00  0.00    +0.000 OA
ATOM     34  C   UNL     1     -18.503  52.893   8.166  0.00  0.00    +0.000 C 
BRANCH  34  35
ATOM     35  C   UNL     1     -19.540  53.723   7.452  0.00  0.00    +0.000 C 
BRANCH  35  36
ATOM     36  C   UNL     1     -19.543  55.166   7.944  0.00  0.00    +0.000 C 
BRANCH  36  37
ATOM     37  C   UNL     1     -18.584  56.090   7.185  0.00  0.00    +0.000 C 
BRANCH  37  38
ATOM     38  C   UNL     1     -18.069  57.281   8.005  0.00  0.00    +0.000 C 
BRANCH  38  39
ATOM     39  C   UNL     1     -16.572  57.531   7.799  0.00  0.00    +0.000 C 
BRANCH  39  40
ATOM     40  C   UNL     1     -16.204  57.883   6.355  0.00  0.00    +0.000 C 
BRANCH  40  41
ATOM     41  C   UNL     1     -16.863  59.176   5.866  0.00  0.00    +0.000 C 
BRANCH  41  42
ATOM     42  C   UNL     1     -17.958  58.941   4.821  0.00  0.00    +0.000 C 
BRANCH  42  43
ATOM     43  C   UNL     1     -19.357  59.435   5.199  0.00  0.00    +0.000 C 
BRANCH  43  44
ATOM     44  C   UNL     1     -19.415  60.429   6.363  0.00  0.00    +0.000 C 
BRANCH  44  45
ATOM     45  C   UNL     1     -20.394  60.077   7.486  0.00  0.00    +0.000 C 
BRANCH  45  46
ATOM     46  C   UNL     1     -21.526  59.120   7.106  0.00  0.00    +0.000 C 
ATOM     47  C   UNL     1     -21.806  58.063   8.163  0.00  0.00    +0.000 C 
ENDBRANCH  45  46
ENDBRANCH  44  45
ENDBRANCH  43  44
ENDBRANCH  42  43
ENDBRANCH  41  42
ENDBRANCH  40  41
ENDBRANCH  39  40
ENDBRANCH  38  39
ENDBRANCH  37  38
ENDBRANCH  36  37
ENDBRANCH  35  36
ENDBRANCH  34  35
ENDBRANCH  32  34
ENDBRANCH   6  32
TORSDOF 20
ENDMDL
MODEL 4
REMARK VINA RESULT:      -4.3     18.835     21.560
REMARK  Name = 27924_Phorbol.pdbqt.pdb
REMARK  26 active torsions:
REMARK  status: ('A' for Active; 'I' for Inactive)
REMARK    1  A    between atoms: O_1  and  C_10
REMARK    2  A    between atoms: O_1  and  C_26
REMARK    3  A    between atoms: O_2  and  C_13
REMARK    4  A    between atoms: O_2  and  C_28
REMARK    5  A    between atoms: O_3  and  C_14
REMARK    6  A    between atoms: O_4  and  C_20
REMARK    7  A    between atoms: O_7  and  C_29
REMARK    8  A    between atoms: C_11  and  C_16
REMARK    9  A    between atoms: C_11  and  C_17
REMARK   10  A    between atoms: C_15  and  C_21
REMARK   11  A    between atoms: C_22  and  C_29
REMARK   12  A    between atoms: C_26  and  C_30
REMARK   13  A    between atoms: C_27  and  C_31
REMARK   14  A    between atoms: C_28  and  C_32
REMARK   15  A    between atoms: C_32  and  C_33
REMARK   16  A    between atoms: C_33  and  C_34
REMARK   17  A    between atoms: C_34  and  C_35
REMARK   18  A    between atoms: C_35  and  C_36
REMARK   19  A    between atoms: C_36  and  C_37
REMARK   20  A    between atoms: C_37  and  C_38
REMARK   21  A    between atoms: C_38  and  C_39
REMARK   22  A    between atoms: C_39  and  C_40
REMARK   23  A    between atoms: C_40  and  C_41
REMARK   24  A    between atoms: C_41  and  C_42
REMARK   25  A    between atoms: C_42  and  C_43
REMARK   26  A    between atoms: C_43  and  C_44
REMARK                            x       y       z     vdW  Elec       q    Type
REMARK                         _______ _______ _______ _____ _____    ______ ____
ROOT
ATOM      1  O   UNL     1     -33.174  50.647 -29.097  0.00  0.00    +0.000 OA
ATOM      2  C   UNL     1     -36.001  47.548 -23.373  0.00  0.00    +0.000 C 
ATOM      3  C   UNL     1     -36.917  48.341 -22.460  0.00  0.00    +0.000 C 
ATOM      4  C   UNL     1     -35.476  47.963 -22.013  0.00  0.00    +0.000 C 
ATOM      5  C   UNL     1     -35.668  48.045 -24.748  0.00  0.00    +0.000 C 
ATOM      6  C   UNL     1     -37.333  49.746 -22.932  0.00  0.00    +0.000 C 
ATOM      7  C   UNL     1     -35.956  49.579 -25.085  0.00  0.00    +0.000 C 
ATOM      8  C   UNL     1     -37.400  49.831 -24.497  0.00  0.00    +0.000 C 
ATOM      9  C   UNL     1     -35.264  46.809 -21.047  0.00  0.00    +0.000 C 
ATOM     10  C   UNL     1     -34.381  48.993 -21.883  0.00  0.00    +0.000 C 
ATOM     11  C   UNL     1     -35.708  49.817 -26.661  0.00  0.00    +0.000 C 
ATOM     12  C   UNL     1     -34.322  47.562 -25.255  0.00  0.00    +0.000 C 
ATOM     13  C   UNL     1     -34.201  49.629 -27.140  0.00  0.00    +0.000 C 
ATOM     14  C   UNL     1     -38.080  51.131 -24.929  0.00  0.00    +0.000 C 
ATOM     15  C   UNL     1     -34.277  47.170 -26.547  0.00  0.00    +0.000 C 
ATOM     16  C   UNL     1     -33.779  48.199 -27.546  0.00  0.00    +0.000 C 
ATOM     17  C   UNL     1     -36.012  51.177 -27.276  0.00  0.00    +0.000 C 
ATOM     18  C   UNL     1     -34.097  50.600 -28.297  0.00  0.00    +0.000 C 
ATOM     19  C   UNL     1     -35.174  51.594 -28.234  0.00  0.00    +0.000 C 
ATOM     20  C   UNL     1     -35.212  52.797 -29.092  0.00  0.00    +0.000 C 
ENDROOT
BRANCH   7  21
ATOM     21  O   UNL     1     -35.077  50.462 -24.375  0.00  0.00    +0.000 OA
ATOM     22  H   UNL     1     -34.471  49.912 -23.832  0.00  0.00    +0.000 HD
ENDBRANCH   7  21
BRANCH  13  23
ATOM     23  O   UNL     1     -33.265  50.161 -26.171  0.00  0.00    +0.000 OA
ATOM     24  H   UNL     1     -33.164  49.469 -25.484  0.00  0.00    +0.000 HD
ENDBRANCH  13  23
BRANCH   3  25
ATOM     25  O   UNL     1     -38.023  47.503 -22.031  0.00  0.00    +0.000 OA
BRANCH  25  27
ATOM     26  O   UNL     1     -38.361  45.344 -22.546  0.00  0.00    +0.000 OA
ATOM     27  C   UNL     1     -38.595  46.528 -22.781  0.00  0.00    +0.000 C 
ATOM     28  C   UNL     1     -39.578  46.918 -23.844  0.00  0.00    +0.000 C 
ENDBRANCH  25  27
ENDBRANCH   3  25
BRANCH  15  29
ATOM     29  C   UNL     1     -35.165  46.099 -27.121  0.00  0.00    +0.000 C 
BRANCH  29  30
ATOM     30  O   UNL     1     -34.677  45.760 -28.408  0.00  0.00    +0.000 OA
ATOM     31  H   UNL     1     -35.258  46.202 -29.053  0.00  0.00    +0.000 HD
ENDBRANCH  29  30
ENDBRANCH  15  29
BRANCH   6  32
ATOM     32  O   UNL     1     -38.638  50.041 -22.363  0.00  0.00    +0.000 OA
BRANCH  32  34
ATOM     33  O   UNL     1     -40.046  51.316 -21.183  0.00  0.00    +0.000 OA
ATOM     34  C   UNL     1     -38.890  50.971 -21.414  0.00  0.00    +0.000 C 
BRANCH  34  35
ATOM     35  C   UNL     1     -37.740  51.578 -20.648  0.00  0.00    +0.000 C 
BRANCH  35  36
ATOM     36  C   UNL     1     -37.700  51.082 -19.208  0.00  0.00    +0.000 C 
BRANCH  36  37
ATOM     37  C   UNL     1     -37.128  49.670 -19.045  0.00  0.00    +0.000 C 
BRANCH  37  38
ATOM     38  C   UNL     1     -35.796  49.609 -18.285  0.00  0.00    +0.000 C 
BRANCH  38  39
ATOM     39  C   UNL     1     -35.913  48.853 -16.957  0.00  0.00    +0.000 C 
BRANCH  39  40
ATOM     40  C   UNL     1     -34.618  48.153 -16.536  0.00  0.00    +0.000 C 
BRANCH  40  41
ATOM     41  C   UNL     1     -33.544  48.170 -17.628  0.00  0.00    +0.000 C 
BRANCH  41  42
ATOM     42  C   UNL     1     -33.293  46.794 -18.252  0.00  0.00    +0.000 C 
BRANCH  42  43
ATOM     43  C   UNL     1     -33.211  45.622 -17.270  0.00  0.00    +0.000 C 
BRANCH  43  44
ATOM     44  C   UNL     1     -31.855  44.913 -17.200  0.00  0.00    +0.000 C 
BRANCH  44  45
ATOM     45  C   UNL     1     -31.271  44.738 -15.795  0.00  0.00    +0.000 C 
BRANCH  45  46
ATOM     46  C   UNL     1     -32.279  44.794 -14.644  0.00  0.00    +0.000 C 
ATOM     47  C   UNL     1     -32.869  43.438 -14.290  0.00  0.00    +0.000 C 
ENDBRANCH  45  46
ENDBRANCH  44  45
ENDBRANCH  43  44
ENDBRANCH  42  43
ENDBRANCH  41  42
ENDBRANCH  40  41
ENDBRANCH  39  40
ENDBRANCH  38  39
ENDBRANCH  37  38
ENDBRANCH  36  37
ENDBRANCH  35  36
ENDBRANCH  34  35
ENDBRANCH  32  34
ENDBRANCH   6  32
TORSDOF 20
ENDMDL
MODEL 5
REMARK VINA RESULT:      -4.3     29.478     33.514
REMARK  Name = 27924_Phorbol.pdbqt.pdb
REMARK  26 active torsions:
REMARK  status: ('A' for Active; 'I' for Inactive)
REMARK    1  A    between atoms: O_1  and  C_10
REMARK    2  A    between atoms: O_1  and  C_26
REMARK    3  A    between atoms: O_2  and  C_13
REMARK    4  A    between atoms: O_2  and  C_28
REMARK    5  A    between atoms: O_3  and  C_14
REMARK    6  A    between atoms: O_4  and  C_20
REMARK    7  A    between atoms: O_7  and  C_29
REMARK    8  A    between atoms: C_11  and  C_16
REMARK    9  A    between atoms: C_11  and  C_17
REMARK   10  A    between atoms: C_15  and  C_21
REMARK   11  A    between atoms: C_22  and  C_29
REMARK   12  A    between atoms: C_26  and  C_30
REMARK   13  A    between atoms: C_27  and  C_31
REMARK   14  A    between atoms: C_28  and  C_32
REMARK   15  A    between atoms: C_32  and  C_33
REMARK   16  A    between atoms: C_33  and  C_34
REMARK   17  A    between atoms: C_34  and  C_35
REMARK   18  A    between atoms: C_35  and  C_36
REMARK   19  A    between atoms: C_36  and  C_37
REMARK   20  A    between atoms: C_37  and  C_38
REMARK   21  A    between atoms: C_38  and  C_39
REMARK   22  A    between atoms: C_39  and  C_40
REMARK   23  A    between atoms: C_40  and  C_41
REMARK   24  A    between atoms: C_41  and  C_42
REMARK   25  A    between atoms: C_42  and  C_43
REMARK   26  A    between atoms: C_43  and  C_44
REMARK                            x       y       z     vdW  Elec       q    Type
REMARK                         _______ _______ _______ _____ _____    ______ ____
ROOT
ATOM      1  O   UNL     1     -15.953  46.659   1.145  0.00  0.00    +0.000 OA
ATOM      2  C   UNL     1     -15.576  53.079   4.145  0.00  0.00    +0.000 C 
ATOM      3  C   UNL     1     -16.348  53.363   5.420  0.00  0.00    +0.000 C 
ATOM      4  C   UNL     1     -16.798  53.971   4.061  0.00  0.00    +0.000 C 
ATOM      5  C   UNL     1     -15.353  51.671   3.679  0.00  0.00    +0.000 C 
ATOM      6  C   UNL     1     -17.040  52.169   6.102  0.00  0.00    +0.000 C 
ATOM      7  C   UNL     1     -16.261  50.516   4.306  0.00  0.00    +0.000 C 
ATOM      8  C   UNL     1     -16.257  50.832   5.854  0.00  0.00    +0.000 C 
ATOM      9  C   UNL     1     -16.489  55.425   3.745  0.00  0.00    +0.000 C 
ATOM     10  C   UNL     1     -18.049  53.512   3.353  0.00  0.00    +0.000 C 
ATOM     11  C   UNL     1     -15.702  49.090   3.804  0.00  0.00    +0.000 C 
ATOM     12  C   UNL     1     -15.186  51.552   2.176  0.00  0.00    +0.000 C 
ATOM     13  C   UNL     1     -15.835  48.829   2.238  0.00  0.00    +0.000 C 
ATOM     14  C   UNL     1     -16.796  49.726   6.763  0.00  0.00    +0.000 C 
ATOM     15  C   UNL     1     -14.219  50.713   1.747  0.00  0.00    +0.000 C 
ATOM     16  C   UNL     1     -14.663  49.314   1.357  0.00  0.00    +0.000 C 
ATOM     17  C   UNL     1     -16.323  47.805   4.338  0.00  0.00    +0.000 C 
ATOM     18  C   UNL     1     -16.014  47.327   2.166  0.00  0.00    +0.000 C 
ATOM     19  C   UNL     1     -16.436  46.795   3.466  0.00  0.00    +0.000 C 
ATOM     20  C   UNL     1     -16.901  45.405   3.656  0.00  0.00    +0.000 C 
ENDROOT
BRANCH   7  21
ATOM     21  O   UNL     1     -17.628  50.614   3.883  0.00  0.00    +0.000 OA
ATOM     22  H   UNL     1     -18.179  50.114   4.526  0.00  0.00    +0.000 HD
ENDBRANCH   7  21
BRANCH  13  23
ATOM     23  O   UNL     1     -17.086  49.340   1.719  0.00  0.00    +0.000 OA
ATOM     24  H   UNL     1     -16.847  50.001   1.037  0.00  0.00    +0.000 HD
ENDBRANCH  13  23
BRANCH   3  25
ATOM     25  O   UNL     1     -15.537  54.172   6.311  0.00  0.00    +0.000 OA
BRANCH  25  27
ATOM     26  O   UNL     1     -13.453  54.910   5.916  0.00  0.00    +0.000 OA
ATOM     27  C   UNL     1     -14.189  54.075   6.438  0.00  0.00    +0.000 C 
ATOM     28  C   UNL     1     -13.622  52.982   7.293  0.00  0.00    +0.000 C 
ENDBRANCH  25  27
ENDBRANCH   3  25
BRANCH  15  29
ATOM     29  C   UNL     1     -12.774  50.833   2.156  0.00  0.00    +0.000 C 
BRANCH  29  30
ATOM     30  O   UNL     1     -12.355  49.584   2.679  0.00  0.00    +0.000 OA
ATOM     31  H   UNL     1     -12.653  48.903   2.049  0.00  0.00    +0.000 HD
ENDBRANCH  29  30
ENDBRANCH  15  29
BRANCH   6  32
ATOM     32  O   UNL     1     -17.108  52.446   7.528  0.00  0.00    +0.000 OA
BRANCH  32  34
ATOM     33  O   UNL     1     -18.534  54.130   7.895  0.00  0.00    +0.000 OA
ATOM     34  C   UNL     1     -18.165  52.991   8.172  0.00  0.00    +0.000 C 
BRANCH  34  35
ATOM     35  C   UNL     1     -18.881  52.189   9.230  0.00  0.00    +0.000 C 
BRANCH  35  36
ATOM     36  C   UNL     1     -18.021  51.040   9.745  0.00  0.00    +0.000 C 
BRANCH  36  37
ATOM     37  C   UNL     1     -16.976  51.456  10.786  0.00  0.00    +0.000 C 
BRANCH  37  38
ATOM     38  C   UNL     1     -15.673  50.647  10.733  0.00  0.00    +0.000 C 
BRANCH  38  39
ATOM     39  C   UNL     1     -15.840  49.314   9.996  0.00  0.00    +0.000 C 
BRANCH  39  40
ATOM     40  C   UNL     1     -15.756  48.092  10.916  0.00  0.00    +0.000 C 
BRANCH  40  41
ATOM     41  C   UNL     1     -15.779  46.765  10.153  0.00  0.00    +0.000 C 
BRANCH  41  42
ATOM     42  C   UNL     1     -14.897  46.769   8.902  0.00  0.00    +0.000 C 
BRANCH  42  43
ATOM     43  C   UNL     1     -15.566  46.286   7.612  0.00  0.00    +0.000 C 
BRANCH  43  44
ATOM     44  C   UNL     1     -17.097  46.238   7.640  0.00  0.00    +0.000 C 
BRANCH  44  45
ATOM     45  C   UNL     1     -17.726  44.916   7.191  0.00  0.00    +0.000 C 
BRANCH  45  46
ATOM     46  C   UNL     1     -16.960  43.649   7.578  0.00  0.00    +0.000 C 
ATOM     47  C   UNL     1     -17.187  43.220   9.019  0.00  0.00    +0.000 C 
ENDBRANCH  45  46
ENDBRANCH  44  45
ENDBRANCH  43  44
ENDBRANCH  42  43
ENDBRANCH  41  42
ENDBRANCH  40  41
ENDBRANCH  39  40
ENDBRANCH  38  39
ENDBRANCH  37  38
ENDBRANCH  36  37
ENDBRANCH  35  36
ENDBRANCH  34  35
ENDBRANCH  32  34
ENDBRANCH   6  32
TORSDOF 20
ENDMDL
MODEL 6
REMARK VINA RESULT:      -4.1     22.255     24.595
REMARK  Name = 27924_Phorbol.pdbqt.pdb
REMARK  26 active torsions:
REMARK  status: ('A' for Active; 'I' for Inactive)
REMARK    1  A    between atoms: O_1  and  C_10
REMARK    2  A    between atoms: O_1  and  C_26
REMARK    3  A    between atoms: O_2  and  C_13
REMARK    4  A    between atoms: O_2  and  C_28
REMARK    5  A    between atoms: O_3  and  C_14
REMARK    6  A    between atoms: O_4  and  C_20
REMARK    7  A    between atoms: O_7  and  C_29
REMARK    8  A    between atoms: C_11  and  C_16
REMARK    9  A    between atoms: C_11  and  C_17
REMARK   10  A    between atoms: C_15  and  C_21
REMARK   11  A    between atoms: C_22  and  C_29
REMARK   12  A    between atoms: C_26  and  C_30
REMARK   13  A    between atoms: C_27  and  C_31
REMARK   14  A    between atoms: C_28  and  C_32
REMARK   15  A    between atoms: C_32  and  C_33
REMARK   16  A    between atoms: C_33  and  C_34
REMARK   17  A    between atoms: C_34  and  C_35
REMARK   18  A    between atoms: C_35  and  C_36
REMARK   19  A    between atoms: C_36  and  C_37
REMARK   20  A    between atoms: C_37  and  C_38
REMARK   21  A    between atoms: C_38  and  C_39
REMARK   22  A    between atoms: C_39  and  C_40
REMARK   23  A    between atoms: C_40  and  C_41
REMARK   24  A    between atoms: C_41  and  C_42
REMARK   25  A    between atoms: C_42  and  C_43
REMARK   26  A    between atoms: C_43  and  C_44
REMARK                            x       y       z     vdW  Elec       q    Type
REMARK                         _______ _______ _______ _____ _____    ______ ____
ROOT
ATOM      1  O   UNL     1     -30.500  39.418 -16.937  0.00  0.00    +0.000 OA
ATOM      2  C   UNL     1     -33.792  45.452 -18.702  0.00  0.00    +0.000 C 
ATOM      3  C   UNL     1     -35.098  45.825 -18.026  0.00  0.00    +0.000 C 
ATOM      4  C   UNL     1     -35.072  45.349 -19.507  0.00  0.00    +0.000 C 
ATOM      5  C   UNL     1     -32.905  44.388 -18.127  0.00  0.00    +0.000 C 
ATOM      6  C   UNL     1     -35.553  44.947 -16.846  0.00  0.00    +0.000 C 
ATOM      7  C   UNL     1     -33.527  43.392 -17.044  0.00  0.00    +0.000 C 
ATOM      8  C   UNL     1     -34.329  44.345 -16.071  0.00  0.00    +0.000 C 
ATOM      9  C   UNL     1     -35.187  46.368 -20.628  0.00  0.00    +0.000 C 
ATOM     10  C   UNL     1     -35.621  44.008 -19.927  0.00  0.00    +0.000 C 
ATOM     11  C   UNL     1     -32.341  42.484 -16.436  0.00  0.00    +0.000 C 
ATOM     12  C   UNL     1     -32.052  43.686 -19.166  0.00  0.00    +0.000 C 
ATOM     13  C   UNL     1     -31.656  41.490 -17.475  0.00  0.00    +0.000 C 
ATOM     14  C   UNL     1     -34.790  43.719 -14.754  0.00  0.00    +0.000 C 
ATOM     15  C   UNL     1     -30.769  43.442 -18.819  0.00  0.00    +0.000 C 
ATOM     16  C   UNL     1     -30.468  42.052 -18.287  0.00  0.00    +0.000 C 
ATOM     17  C   UNL     1     -32.639  41.514 -15.300  0.00  0.00    +0.000 C 
ATOM     18  C   UNL     1     -31.243  40.327 -16.598  0.00  0.00    +0.000 C 
ATOM     19  C   UNL     1     -31.986  40.345 -15.333  0.00  0.00    +0.000 C 
ATOM     20  C   UNL     1     -31.965  39.225 -14.369  0.00  0.00    +0.000 C 
ENDROOT
BRANCH   7  21
ATOM     21  O   UNL     1     -34.494  42.505 -17.619  0.00  0.00    +0.000 OA
ATOM     22  H   UNL     1     -34.819  42.911 -18.453  0.00  0.00    +0.000 HD
ENDBRANCH   7  21
BRANCH  13  23
ATOM     23  O   UNL     1     -32.631  40.904 -18.371  0.00  0.00    +0.000 OA
ATOM     24  H   UNL     1     -33.061  40.181 -17.868  0.00  0.00    +0.000 HD
ENDBRANCH  13  23
BRANCH   3  25
ATOM     25  O   UNL     1     -35.115  47.250 -17.752  0.00  0.00    +0.000 OA
BRANCH  25  27
ATOM     26  O   UNL     1     -33.341  48.613 -17.948  0.00  0.00    +0.000 OA
ATOM     27  C   UNL     1     -34.082  47.952 -17.222  0.00  0.00    +0.000 C 
ATOM     28  C   UNL     1     -33.911  47.973 -15.733  0.00  0.00    +0.000 C 
ENDBRANCH  25  27
ENDBRANCH   3  25
BRANCH  15  29
ATOM     29  C   UNL     1     -29.808  44.515 -18.383  0.00  0.00    +0.000 C 
BRANCH  29  30
ATOM     30  O   UNL     1     -29.265  44.141 -17.128  0.00  0.00    +0.000 OA
ATOM     31  H   UNL     1     -29.044  44.967 -16.661  0.00  0.00    +0.000 HD
ENDBRANCH  29  30
ENDBRANCH  15  29
BRANCH   6  32
ATOM     32  O   UNL     1     -36.346  45.775 -15.952  0.00  0.00    +0.000 OA
BRANCH  32  34
ATOM     33  O   UNL     1     -38.446  45.465 -16.657  0.00  0.00    +0.000 OA
ATOM     34  C   UNL     1     -37.671  45.634 -15.718  0.00  0.00    +0.000 C 
BRANCH  34  35
ATOM     35  C   UNL     1     -38.182  45.687 -14.300  0.00  0.00    +0.000 C 
BRANCH  35  36
ATOM     36  C   UNL     1     -37.318  46.584 -13.422  0.00  0.00    +0.000 C 
BRANCH  36  37
ATOM     37  C   UNL     1     -38.069  47.766 -12.800  0.00  0.00    +0.000 C 
BRANCH  37  38
ATOM     38  C   UNL     1     -38.522  47.537 -11.351  0.00  0.00    +0.000 C 
BRANCH  38  39
ATOM     39  C   UNL     1     -37.422  46.916 -10.484  0.00  0.00    +0.000 C 
BRANCH  39  40
ATOM     40  C   UNL     1     -37.316  47.541  -9.091  0.00  0.00    +0.000 C 
BRANCH  40  41
ATOM     41  C   UNL     1     -35.989  47.230  -8.393  0.00  0.00    +0.000 C 
BRANCH  41  42
ATOM     42  C   UNL     1     -35.435  45.844  -8.735  0.00  0.00    +0.000 C 
BRANCH  42  43
ATOM     43  C   UNL     1     -33.910  45.742  -8.834  0.00  0.00    +0.000 C 
BRANCH  43  44
ATOM     44  C   UNL     1     -33.127  46.445  -7.721  0.00  0.00    +0.000 C 
BRANCH  44  45
ATOM     45  C   UNL     1     -33.329  45.881  -6.312  0.00  0.00    +0.000 C 
BRANCH  45  46
ATOM     46  C   UNL     1     -32.874  44.436  -6.101  0.00  0.00    +0.000 C 
ATOM     47  C   UNL     1     -32.520  44.117  -4.657  0.00  0.00    +0.000 C 
ENDBRANCH  45  46
ENDBRANCH  44  45
ENDBRANCH  43  44
ENDBRANCH  42  43
ENDBRANCH  41  42
ENDBRANCH  40  41
ENDBRANCH  39  40
ENDBRANCH  38  39
ENDBRANCH  37  38
ENDBRANCH  36  37
ENDBRANCH  35  36
ENDBRANCH  34  35
ENDBRANCH  32  34
ENDBRANCH   6  32
TORSDOF 20
ENDMDL
MODEL 7
REMARK VINA RESULT:      -4.0      2.410      6.112
REMARK  Name = 27924_Phorbol.pdbqt.pdb
REMARK  26 active torsions:
REMARK  status: ('A' for Active; 'I' for Inactive)
REMARK    1  A    between atoms: O_1  and  C_10
REMARK    2  A    between atoms: O_1  and  C_26
REMARK    3  A    between atoms: O_2  and  C_13
REMARK    4  A    between atoms: O_2  and  C_28
REMARK    5  A    between atoms: O_3  and  C_14
REMARK    6  A    between atoms: O_4  and  C_20
REMARK    7  A    between atoms: O_7  and  C_29
REMARK    8  A    between atoms: C_11  and  C_16
REMARK    9  A    between atoms: C_11  and  C_17
REMARK   10  A    between atoms: C_15  and  C_21
REMARK   11  A    between atoms: C_22  and  C_29
REMARK   12  A    between atoms: C_26  and  C_30
REMARK   13  A    between atoms: C_27  and  C_31
REMARK   14  A    between atoms: C_28  and  C_32
REMARK   15  A    between atoms: C_32  and  C_33
REMARK   16  A    between atoms: C_33  and  C_34
REMARK   17  A    between atoms: C_34  and  C_35
REMARK   18  A    between atoms: C_35  and  C_36
REMARK   19  A    between atoms: C_36  and  C_37
REMARK   20  A    between atoms: C_37  and  C_38
REMARK   21  A    between atoms: C_38  and  C_39
REMARK   22  A    between atoms: C_39  and  C_40
REMARK   23  A    between atoms: C_40  and  C_41
REMARK   24  A    between atoms: C_41  and  C_42
REMARK   25  A    between atoms: C_42  and  C_43
REMARK   26  A    between atoms: C_43  and  C_44
REMARK                            x       y       z     vdW  Elec       q    Type
REMARK                         _______ _______ _______ _____ _____    ______ ____
ROOT
ATOM      1  O   UNL     1     -14.655  61.495 -26.148  0.00  0.00    +0.000 OA
ATOM      2  C   UNL     1     -18.176  57.825 -31.097  0.00  0.00    +0.000 C 
ATOM      3  C   UNL     1     -18.449  56.347 -30.890  0.00  0.00    +0.000 C 
ATOM      4  C   UNL     1     -17.393  56.827 -31.927  0.00  0.00    +0.000 C 
ATOM      5  C   UNL     1     -17.753  58.697 -29.953  0.00  0.00    +0.000 C 
ATOM      6  C   UNL     1     -18.097  55.756 -29.512  0.00  0.00    +0.000 C 
ATOM      7  C   UNL     1     -17.213  57.990 -28.626  0.00  0.00    +0.000 C 
ATOM      8  C   UNL     1     -18.247  56.823 -28.372  0.00  0.00    +0.000 C 
ATOM      9  C   UNL     1     -17.740  56.837 -33.406  0.00  0.00    +0.000 C 
ATOM     10  C   UNL     1     -15.913  56.629 -31.713  0.00  0.00    +0.000 C 
ATOM     11  C   UNL     1     -17.017  59.114 -27.486  0.00  0.00    +0.000 C 
ATOM     12  C   UNL     1     -16.917  59.890 -30.379  0.00  0.00    +0.000 C 
ATOM     13  C   UNL     1     -15.887  60.193 -27.793  0.00  0.00    +0.000 C 
ATOM     14  C   UNL     1     -18.171  56.149 -27.002  0.00  0.00    +0.000 C 
ATOM     15  C   UNL     1     -17.200  61.063 -29.773  0.00  0.00    +0.000 C 
ATOM     16  C   UNL     1     -16.324  61.441 -28.592  0.00  0.00    +0.000 C 
ATOM     17  C   UNL     1     -16.608  58.698 -26.078  0.00  0.00    +0.000 C 
ATOM     18  C   UNL     1     -15.387  60.553 -26.410  0.00  0.00    +0.000 C 
ATOM     19  C   UNL     1     -15.765  59.519 -25.440  0.00  0.00    +0.000 C 
ATOM     20  C   UNL     1     -15.236  59.476 -24.060  0.00  0.00    +0.000 C 
ENDROOT
BRANCH   7  21
ATOM     21  O   UNL     1     -15.942  57.359 -28.829  0.00  0.00    +0.000 OA
ATOM     22  H   UNL     1     -15.794  56.733 -28.085  0.00  0.00    +0.000 HD
ENDBRANCH   7  21
BRANCH  13  23
ATOM     23  O   UNL     1     -14.731  59.587 -28.420  0.00  0.00    +0.000 OA
ATOM     24  H   UNL     1     -13.948  59.969 -27.971  0.00  0.00    +0.000 HD
ENDBRANCH  13  23
BRANCH   3  25
ATOM     25  O   UNL     1     -19.787  56.029 -31.353  0.00  0.00    +0.000 OA
BRANCH  25  27
ATOM     26  O   UNL     1     -19.314  54.178 -32.533  0.00  0.00    +0.000 OA
ATOM     27  C   UNL     1     -20.080  55.114 -32.311  0.00  0.00    +0.000 C 
ATOM     28  C   UNL     1     -21.390  55.218 -33.033  0.00  0.00    +0.000 C 
ENDBRANCH  25  27
ENDBRANCH   3  25
BRANCH  15  29
ATOM     29  C   UNL     1     -18.568  61.693 -29.781  0.00  0.00    +0.000 C 
BRANCH  29  30
ATOM     30  O   UNL     1     -18.680  62.525 -28.639  0.00  0.00    +0.000 OA
ATOM     31  H   UNL     1     -19.023  61.966 -27.919  0.00  0.00    +0.000 HD
ENDBRANCH  29  30
ENDBRANCH  15  29
BRANCH   6  32
ATOM     32  O   UNL     1     -18.993  54.637 -29.265  0.00  0.00    +0.000 OA
BRANCH  32  34
ATOM     33  O   UNL     1     -19.421  52.535 -29.896  0.00  0.00    +0.000 OA
ATOM     34  C   UNL     1     -18.659  53.329 -29.351  0.00  0.00    +0.000 C 
BRANCH  34  35
ATOM     35  C   UNL     1     -17.346  52.861 -28.774  0.00  0.00    +0.000 C 
BRANCH  35  36
ATOM     36  C   UNL     1     -17.544  52.110 -27.462  0.00  0.00    +0.000 C 
BRANCH  36  37
ATOM     37  C   UNL     1     -16.239  51.697 -26.772  0.00  0.00    +0.000 C 
BRANCH  37  38
ATOM     38  C   UNL     1     -15.200  52.820 -26.657  0.00  0.00    +0.000 C 
BRANCH  38  39
ATOM     39  C   UNL     1     -15.581  53.866 -25.604  0.00  0.00    +0.000 C 
BRANCH  39  40
ATOM     40  C   UNL     1     -15.684  53.297 -24.186  0.00  0.00    +0.000 C 
BRANCH  40  41
ATOM     41  C   UNL     1     -15.541  54.365 -23.099  0.00  0.00    +0.000 C 
BRANCH  41  42
ATOM     42  C   UNL     1     -15.832  55.782 -23.600  0.00  0.00    +0.000 C 
BRANCH  42  43
ATOM     43  C   UNL     1     -17.007  56.499 -22.928  0.00  0.00    +0.000 C 
BRANCH  43  44
ATOM     44  C   UNL     1     -16.929  56.608 -21.402  0.00  0.00    +0.000 C 
BRANCH  44  45
ATOM     45  C   UNL     1     -15.709  57.353 -20.854  0.00  0.00    +0.000 C 
BRANCH  45  46
ATOM     46  C   UNL     1     -14.700  56.500 -20.082  0.00  0.00    +0.000 C 
ATOM     47  C   UNL     1     -14.819  56.639 -18.572  0.00  0.00    +0.000 C 
ENDBRANCH  45  46
ENDBRANCH  44  45
ENDBRANCH  43  44
ENDBRANCH  42  43
ENDBRANCH  41  42
ENDBRANCH  40  41
ENDBRANCH  39  40
ENDBRANCH  38  39
ENDBRANCH  37  38
ENDBRANCH  36  37
ENDBRANCH  35  36
ENDBRANCH  34  35
ENDBRANCH  32  34
ENDBRANCH   6  32
TORSDOF 20
ENDMDL
MODEL 8
REMARK VINA RESULT:      -4.0      2.028      4.418
REMARK  Name = 27924_Phorbol.pdbqt.pdb
REMARK  26 active torsions:
REMARK  status: ('A' for Active; 'I' for Inactive)
REMARK    1  A    between atoms: O_1  and  C_10
REMARK    2  A    between atoms: O_1  and  C_26
REMARK    3  A    between atoms: O_2  and  C_13
REMARK    4  A    between atoms: O_2  and  C_28
REMARK    5  A    between atoms: O_3  and  C_14
REMARK    6  A    between atoms: O_4  and  C_20
REMARK    7  A    between atoms: O_7  and  C_29
REMARK    8  A    between atoms: C_11  and  C_16
REMARK    9  A    between atoms: C_11  and  C_17
REMARK   10  A    between atoms: C_15  and  C_21
REMARK   11  A    between atoms: C_22  and  C_29
REMARK   12  A    between atoms: C_26  and  C_30
REMARK   13  A    between atoms: C_27  and  C_31
REMARK   14  A    between atoms: C_28  and  C_32
REMARK   15  A    between atoms: C_32  and  C_33
REMARK   16  A    between atoms: C_33  and  C_34
REMARK   17  A    between atoms: C_34  and  C_35
REMARK   18  A    between atoms: C_35  and  C_36
REMARK   19  A    between atoms: C_36  and  C_37
REMARK   20  A    between atoms: C_37  and  C_38
REMARK   21  A    between atoms: C_38  and  C_39
REMARK   22  A    between atoms: C_39  and  C_40
REMARK   23  A    between atoms: C_40  and  C_41
REMARK   24  A    between atoms: C_41  and  C_42
REMARK   25  A    between atoms: C_42  and  C_43
REMARK   26  A    between atoms: C_43  and  C_44
REMARK                            x       y       z     vdW  Elec       q    Type
REMARK                         _______ _______ _______ _____ _____    ______ ____
ROOT
ATOM      1  O   UNL     1     -18.359  58.584 -32.145  0.00  0.00    +0.000 OA
ATOM      2  C   UNL     1     -16.211  52.706 -28.798  0.00  0.00    +0.000 C 
ATOM      3  C   UNL     1     -15.806  52.775 -27.337  0.00  0.00    +0.000 C 
ATOM      4  C   UNL     1     -14.740  52.587 -28.454  0.00  0.00    +0.000 C 
ATOM      5  C   UNL     1     -16.983  53.823 -29.434  0.00  0.00    +0.000 C 
ATOM      6  C   UNL     1     -16.058  54.103 -26.600  0.00  0.00    +0.000 C 
ATOM      7  C   UNL     1     -17.025  55.234 -28.686  0.00  0.00    +0.000 C 
ATOM      8  C   UNL     1     -17.309  54.854 -27.179  0.00  0.00    +0.000 C 
ATOM      9  C   UNL     1     -14.150  51.210 -28.709  0.00  0.00    +0.000 C 
ATOM     10  C   UNL     1     -13.764  53.677 -28.822  0.00  0.00    +0.000 C 
ATOM     11  C   UNL     1     -18.068  56.195 -29.453  0.00  0.00    +0.000 C 
ATOM     12  C   UNL     1     -16.749  53.944 -30.928  0.00  0.00    +0.000 C 
ATOM     13  C   UNL     1     -17.648  56.597 -30.935  0.00  0.00    +0.000 C 
ATOM     14  C   UNL     1     -17.704  56.011 -26.261  0.00  0.00    +0.000 C 
ATOM     15  C   UNL     1     -17.841  54.188 -31.686  0.00  0.00    +0.000 C 
ATOM     16  C   UNL     1     -18.091  55.637 -32.062  0.00  0.00    +0.000 C 
ATOM     17  C   UNL     1     -18.383  57.573 -28.885  0.00  0.00    +0.000 C 
ATOM     18  C   UNL     1     -18.257  57.973 -31.091  0.00  0.00    +0.000 C 
ATOM     19  C   UNL     1     -18.563  58.554 -29.779  0.00  0.00    +0.000 C 
ATOM     20  C   UNL     1     -18.958  59.966 -29.595  0.00  0.00    +0.000 C 
ENDROOT
BRANCH   7  21
ATOM     21  O   UNL     1     -15.750  55.890 -28.698  0.00  0.00    +0.000 OA
ATOM     22  H   UNL     1     -15.696  56.458 -27.898  0.00  0.00    +0.000 HD
ENDBRANCH   7  21
BRANCH  13  23
ATOM     23  O   UNL     1     -16.225  56.847 -31.034  0.00  0.00    +0.000 OA
ATOM     24  H   UNL     1     -16.033  57.572 -30.404  0.00  0.00    +0.000 HD
ENDBRANCH  13  23
BRANCH   3  25
ATOM     25  O   UNL     1     -16.299  51.602 -26.639  0.00  0.00    +0.000 OA
BRANCH  25  27
ATOM     26  O   UNL     1     -18.355  51.534 -27.540  0.00  0.00    +0.000 OA
ATOM     27  C   UNL     1     -17.460  50.959 -26.924  0.00  0.00    +0.000 C 
ATOM     28  C   UNL     1     -17.595  49.514 -26.548  0.00  0.00    +0.000 C 
ENDBRANCH  25  27
ENDBRANCH   3  25
BRANCH  15  29
ATOM     29  C   UNL     1     -19.062  53.306 -31.689  0.00  0.00    +0.000 C 
BRANCH  29  30
ATOM     30  O   UNL     1     -20.198  54.122 -31.459  0.00  0.00    +0.000 OA
ATOM     31  H   UNL     1     -20.019  54.628 -30.646  0.00  0.00    +0.000 HD
ENDBRANCH  29  30
ENDBRANCH  15  29
BRANCH   6  32
ATOM     32  O   UNL     1     -16.268  53.801 -25.194  0.00  0.00    +0.000 OA
BRANCH  32  34
ATOM     33  O   UNL     1     -15.581  53.436 -23.097  0.00  0.00    +0.000 OA
ATOM     34  C   UNL     1     -15.311  53.803 -24.238  0.00  0.00    +0.000 C 
BRANCH  34  35
ATOM     35  C   UNL     1     -13.916  54.257 -24.589  0.00  0.00    +0.000 C 
BRANCH  35  36
ATOM     36  C   UNL     1     -13.525  55.517 -23.825  0.00  0.00    +0.000 C 
BRANCH  36  37
ATOM     37  C   UNL     1     -12.444  55.295 -22.761  0.00  0.00    +0.000 C 
BRANCH  37  38
ATOM     38  C   UNL     1     -12.825  55.786 -21.358  0.00  0.00    +0.000 C 
BRANCH  38  39
ATOM     39  C   UNL     1     -13.478  54.689 -20.510  0.00  0.00    +0.000 C 
BRANCH  39  40
ATOM     40  C   UNL     1     -14.866  55.066 -19.986  0.00  0.00    +0.000 C 
BRANCH  40  41
ATOM     41  C   UNL     1     -15.380  56.394 -20.548  0.00  0.00    +0.000 C 
BRANCH  41  42
ATOM     42  C   UNL     1     -16.708  56.260 -21.299  0.00  0.00    +0.000 C 
BRANCH  42  43
ATOM     43  C   UNL     1     -16.719  56.795 -22.734  0.00  0.00    +0.000 C 
BRANCH  43  44
ATOM     44  C   UNL     1     -16.654  58.319 -22.872  0.00  0.00    +0.000 C 
BRANCH  44  45
ATOM     45  C   UNL     1     -16.706  58.856 -24.305  0.00  0.00    +0.000 C 
BRANCH  45  46
ATOM     46  C   UNL     1     -16.710  60.380 -24.445  0.00  0.00    +0.000 C 
ATOM     47  C   UNL     1     -16.688  60.856 -25.889  0.00  0.00    +0.000 C 
ENDBRANCH  45  46
ENDBRANCH  44  45
ENDBRANCH  43  44
ENDBRANCH  42  43
ENDBRANCH  41  42
ENDBRANCH  40  41
ENDBRANCH  39  40
ENDBRANCH  38  39
ENDBRANCH  37  38
ENDBRANCH  36  37
ENDBRANCH  35  36
ENDBRANCH  34  35
ENDBRANCH  32  34
ENDBRANCH   6  32
TORSDOF 20
ENDMDL
MODEL 9
REMARK VINA RESULT:      -3.8     27.491     30.957
REMARK  Name = 27924_Phorbol.pdbqt.pdb
REMARK  26 active torsions:
REMARK  status: ('A' for Active; 'I' for Inactive)
REMARK    1  A    between atoms: O_1  and  C_10
REMARK    2  A    between atoms: O_1  and  C_26
REMARK    3  A    between atoms: O_2  and  C_13
REMARK    4  A    between atoms: O_2  and  C_28
REMARK    5  A    between atoms: O_3  and  C_14
REMARK    6  A    between atoms: O_4  and  C_20
REMARK    7  A    between atoms: O_7  and  C_29
REMARK    8  A    between atoms: C_11  and  C_16
REMARK    9  A    between atoms: C_11  and  C_17
REMARK   10  A    between atoms: C_15  and  C_21
REMARK   11  A    between atoms: C_22  and  C_29
REMARK   12  A    between atoms: C_26  and  C_30
REMARK   13  A    between atoms: C_27  and  C_31
REMARK   14  A    between atoms: C_28  and  C_32
REMARK   15  A    between atoms: C_32  and  C_33
REMARK   16  A    between atoms: C_33  and  C_34
REMARK   17  A    between atoms: C_34  and  C_35
REMARK   18  A    between atoms: C_35  and  C_36
REMARK   19  A    between atoms: C_36  and  C_37
REMARK   20  A    between atoms: C_37  and  C_38
REMARK   21  A    between atoms: C_38  and  C_39
REMARK   22  A    between atoms: C_39  and  C_40
REMARK   23  A    between atoms: C_40  and  C_41
REMARK   24  A    between atoms: C_41  and  C_42
REMARK   25  A    between atoms: C_42  and  C_43
REMARK   26  A    between atoms: C_43  and  C_44
REMARK                            x       y       z     vdW  Elec       q    Type
REMARK                         _______ _______ _______ _____ _____    ______ ____
ROOT
ATOM      1  O   UNL     1     -39.997  59.457  -1.622  0.00  0.00    +0.000 OA
ATOM      2  C   UNL     1     -35.597  62.778  -6.091  0.00  0.00    +0.000 C 
ATOM      3  C   UNL     1     -34.843  64.011  -5.630  0.00  0.00    +0.000 C 
ATOM      4  C   UNL     1     -36.026  64.128  -6.633  0.00  0.00    +0.000 C 
ATOM      5  C   UNL     1     -36.254  61.864  -5.100  0.00  0.00    +0.000 C 
ATOM      6  C   UNL     1     -34.938  64.376  -4.137  0.00  0.00    +0.000 C 
ATOM      7  C   UNL     1     -36.490  62.405  -3.616  0.00  0.00    +0.000 C 
ATOM      8  C   UNL     1     -35.119  63.098  -3.244  0.00  0.00    +0.000 C 
ATOM      9  C   UNL     1     -35.745  64.323  -8.113  0.00  0.00    +0.000 C 
ATOM     10  C   UNL     1     -37.350  64.737  -6.242  0.00  0.00    +0.000 C 
ATOM     11  C   UNL     1     -37.016  61.187  -2.699  0.00  0.00    +0.000 C 
ATOM     12  C   UNL     1     -37.450  61.121  -5.664  0.00  0.00    +0.000 C 
ATOM     13  C   UNL     1     -38.449  60.617  -3.097  0.00  0.00    +0.000 C 
ATOM     14  C   UNL     1     -34.928  63.452  -1.769  0.00  0.00    +0.000 C 
ATOM     15  C   UNL     1     -37.557  59.818  -5.326  0.00  0.00    +0.000 C 
ATOM     16  C   UNL     1     -38.475  59.497  -4.160  0.00  0.00    +0.000 C 
ATOM     17  C   UNL     1     -37.223  61.401  -1.205  0.00  0.00    +0.000 C 
ATOM     18  C   UNL     1     -39.000  60.149  -1.767  0.00  0.00    +0.000 C 
ATOM     19  C   UNL     1     -38.273  60.776  -0.658  0.00  0.00    +0.000 C 
ATOM     20  C   UNL     1     -38.718  60.689   0.749  0.00  0.00    +0.000 C 
ENDROOT
BRANCH   7  21
ATOM     21  O   UNL     1     -37.483  63.437  -3.568  0.00  0.00    +0.000 OA
ATOM     22  H   UNL     1     -38.349  63.014  -3.370  0.00  0.00    +0.000 HD
ENDBRANCH   7  21
BRANCH  13  23
ATOM     23  O   UNL     1     -39.355  61.680  -3.480  0.00  0.00    +0.000 OA
ATOM     24  H   UNL     1     -38.978  62.505  -3.110  0.00  0.00    +0.000 HD
ENDBRANCH  13  23
BRANCH   3  25
ATOM     25  O   UNL     1     -33.488  63.977  -6.152  0.00  0.00    +0.000 OA
BRANCH  25  27
ATOM     26  O   UNL     1     -32.678  62.045  -6.959  0.00  0.00    +0.000 OA
ATOM     27  C   UNL     1     -32.656  62.907  -6.083  0.00  0.00    +0.000 C 
ATOM     28  C   UNL     1     -31.658  62.840  -4.967  0.00  0.00    +0.000 C 
ENDBRANCH  25  27
ENDBRANCH   3  25
BRANCH  15  29
ATOM     29  C   UNL     1     -36.477  58.801  -5.588  0.00  0.00    +0.000 C 
BRANCH  29  30
ATOM     30  O   UNL     1     -36.621  58.335  -6.919  0.00  0.00    +0.000 OA
ATOM     31  H   UNL     1     -35.723  58.165  -7.255  0.00  0.00    +0.000 HD
ENDBRANCH  29  30
ENDBRANCH  15  29
BRANCH   6  32
ATOM     32  O   UNL     1     -33.715  65.069  -3.767  0.00  0.00    +0.000 OA
BRANCH  32  34
ATOM     33  O   UNL     1     -34.594  67.119  -3.613  0.00  0.00    +0.000 OA
ATOM     34  C   UNL     1     -33.609  66.393  -3.513  0.00  0.00    +0.000 C 
BRANCH  34  35
ATOM     35  C   UNL     1     -32.273  66.964  -3.106  0.00  0.00    +0.000 C 
BRANCH  35  36
ATOM     36  C   UNL     1     -31.248  65.867  -2.843  0.00  0.00    +0.000 C 
BRANCH  36  37
ATOM     37  C   UNL     1     -31.003  65.579  -1.357  0.00  0.00    +0.000 C 
BRANCH  37  38
ATOM     38  C   UNL     1     -31.595  64.252  -0.863  0.00  0.00    +0.000 C 
BRANCH  38  39
ATOM     39  C   UNL     1     -30.575  63.407  -0.092  0.00  0.00    +0.000 C 
BRANCH  39  40
ATOM     40  C   UNL     1     -29.188  63.382  -0.740  0.00  0.00    +0.000 C 
BRANCH  40  41
ATOM     41  C   UNL     1     -28.148  62.633   0.098  0.00  0.00    +0.000 C 
BRANCH  41  42
ATOM     42  C   UNL     1     -28.484  62.599   1.592  0.00  0.00    +0.000 C 
BRANCH  42  43
ATOM     43  C   UNL     1     -27.525  61.794   2.473  0.00  0.00    +0.000 C 
BRANCH  43  44
ATOM     44  C   UNL     1     -26.270  62.541   2.938  0.00  0.00    +0.000 C 
BRANCH  44  45
ATOM     45  C   UNL     1     -24.936  61.886   2.570  0.00  0.00    +0.000 C 
BRANCH  45  46
ATOM     46  C   UNL     1     -24.200  62.498   1.377  0.00  0.00    +0.000 C 
ATOM     47  C   UNL     1     -24.504  61.805   0.058  0.00  0.00    +0.000 C 
ENDBRANCH  45  46
ENDBRANCH  44  45
ENDBRANCH  43  44
ENDBRANCH  42  43
ENDBRANCH  41  42
ENDBRANCH  40  41
ENDBRANCH  39  40
ENDBRANCH  38  39
ENDBRANCH  37  38
ENDBRANCH  36  37
ENDBRANCH  35  36
ENDBRANCH  34  35
ENDBRANCH  32  34
ENDBRANCH   6  32
TORSDOF 20
ENDMDL
