MODEL 1
REMARK VINA RESULT:      -3.0      0.000      0.000
REMARK  Name = 2Methylcholine.pdbqt.pdb
REMARK  3 active torsions:
REMARK  status: ('A' for Active; 'I' for Inactive)
REMARK    1  A    between atoms: C_1  and  N_2
REMARK    2  A    between atoms: C_1  and  C_6
REMARK    3  A    between atoms: C_6  and  O_8
REMARK                            x       y       z     vdW  Elec       q    Type
REMARK                         _______ _______ _______ _____ _____    ______ ____
ROOT
ATOM      1  C   UNL     1     -24.176  52.426 -32.540  0.00  0.00    +0.000 C 
ENDROOT
BRANCH   1   2
ATOM      2  N   UNL     1     -23.200  53.063 -33.401  0.00  0.00    +0.000 N 
ATOM      3  C   UNL     1     -22.154  52.102 -33.766  0.00  0.00    +0.000 C 
ATOM      4  C   UNL     1     -23.851  53.550 -34.620  0.00  0.00    +0.000 C 
ATOM      5  C   UNL     1     -22.586  54.194 -32.702  0.00  0.00    +0.000 C 
ENDBRANCH   1   2
BRANCH   1   6
ATOM      6  C   UNL     1     -25.100  51.806 -31.687  0.00  0.00    +0.000 C 
ATOM      7  C   UNL     1     -26.175  50.932 -32.214  0.00  0.00    +0.000 C 
BRANCH   6   8
ATOM      8  O   UNL     1     -25.063  51.971 -30.337  0.00  0.00    +0.000 OA
ATOM      9  H   UNL     1     -25.017  51.090 -29.919  0.00  0.00    +0.000 HD
ENDBRANCH   6   8
ENDBRANCH   1   6
TORSDOF 3
ENDMDL
MODEL 2
REMARK VINA RESULT:      -3.0     26.345     27.678
REMARK  Name = 2Methylcholine.pdbqt.pdb
REMARK  3 active torsions:
REMARK  status: ('A' for Active; 'I' for Inactive)
REMARK    1  A    between atoms: C_1  and  N_2
REMARK    2  A    between atoms: C_1  and  C_6
REMARK    3  A    between atoms: C_6  and  O_8
REMARK                            x       y       z     vdW  Elec       q    Type
REMARK                         _______ _______ _______ _____ _____    ______ ____
ROOT
ATOM      1  C   UNL     1     -33.942  45.045  -8.078  0.00  0.00    +0.000 C 
ENDROOT
BRANCH   1   2
ATOM      2  N   UNL     1     -35.165  45.391  -8.773  0.00  0.00    +0.000 N 
ATOM      3  C   UNL     1     -35.570  46.756  -8.421  0.00  0.00    +0.000 C 
ATOM      4  C   UNL     1     -34.957  45.310 -10.221  0.00  0.00    +0.000 C 
ATOM      5  C   UNL     1     -36.232  44.463  -8.391  0.00  0.00    +0.000 C 
ENDBRANCH   1   2
BRANCH   1   6
ATOM      6  C   UNL     1     -32.745  44.705  -7.429  0.00  0.00    +0.000 C 
ATOM      7  C   UNL     1     -32.587  44.861  -5.964  0.00  0.00    +0.000 C 
BRANCH   6   8
ATOM      8  O   UNL     1     -31.670  44.217  -8.106  0.00  0.00    +0.000 OA
ATOM      9  H   UNL     1     -31.936  43.391  -8.553  0.00  0.00    +0.000 HD
ENDBRANCH   6   8
ENDBRANCH   1   6
TORSDOF 3
ENDMDL
MODEL 3
REMARK VINA RESULT:      -3.0     28.072     29.503
REMARK  Name = 2Methylcholine.pdbqt.pdb
REMARK  3 active torsions:
REMARK  status: ('A' for Active; 'I' for Inactive)
REMARK    1  A    between atoms: C_1  and  N_2
REMARK    2  A    between atoms: C_1  and  C_6
REMARK    3  A    between atoms: C_6  and  O_8
REMARK                            x       y       z     vdW  Elec       q    Type
REMARK                         _______ _______ _______ _____ _____    ______ ____
ROOT
ATOM      1  C   UNL     1     -33.476  43.868  -6.547  0.00  0.00    +0.000 C 
ENDROOT
BRANCH   1   2
ATOM      2  N   UNL     1     -34.333  42.980  -5.787  0.00  0.00    +0.000 N 
ATOM      3  C   UNL     1     -35.662  43.579  -5.634  0.00  0.00    +0.000 C 
ATOM      4  C   UNL     1     -34.463  41.696  -6.481  0.00  0.00    +0.000 C 
ATOM      5  C   UNL     1     -33.756  42.750  -4.460  0.00  0.00    +0.000 C 
ENDBRANCH   1   2
BRANCH   1   6
ATOM      6  C   UNL     1     -32.627  44.724  -7.262  0.00  0.00    +0.000 C 
ATOM      7  C   UNL     1     -32.704  46.197  -7.110  0.00  0.00    +0.000 C 
BRANCH   6   8
ATOM      8  O   UNL     1     -31.690  44.254  -8.130  0.00  0.00    +0.000 OA
ATOM      9  H   UNL     1     -31.932  44.544  -9.031  0.00  0.00    +0.000 HD
ENDBRANCH   6   8
ENDBRANCH   1   6
TORSDOF 3
ENDMDL
MODEL 4
REMARK VINA RESULT:      -3.0     37.894     38.952
REMARK  Name = 2Methylcholine.pdbqt.pdb
REMARK  3 active torsions:
REMARK  status: ('A' for Active; 'I' for Inactive)
REMARK    1  A    between atoms: C_1  and  N_2
REMARK    2  A    between atoms: C_1  and  C_6
REMARK    3  A    between atoms: C_6  and  O_8
REMARK                            x       y       z     vdW  Elec       q    Type
REMARK                         _______ _______ _______ _____ _____    ______ ____
ROOT
ATOM      1  C   UNL     1     -25.250  39.856   4.013  0.00  0.00    +0.000 C 
ENDROOT
BRANCH   1   2
ATOM      2  N   UNL     1     -25.235  38.486   3.539  0.00  0.00    +0.000 N 
ATOM      3  C   UNL     1     -25.884  38.403   2.228  0.00  0.00    +0.000 C 
ATOM      4  C   UNL     1     -23.853  38.013   3.422  0.00  0.00    +0.000 C 
ATOM      5  C   UNL     1     -25.954  37.628   4.484  0.00  0.00    +0.000 C 
ENDBRANCH   1   2
BRANCH   1   6
ATOM      6  C   UNL     1     -25.238  41.183   4.465  0.00  0.00    +0.000 C 
ATOM      7  C   UNL     1     -25.792  41.556   5.787  0.00  0.00    +0.000 C 
BRANCH   6   8
ATOM      8  O   UNL     1     -24.719  42.196   3.719  0.00  0.00    +0.000 OA
ATOM      9  H   UNL     1     -24.358  42.872   4.324  0.00  0.00    +0.000 HD
ENDBRANCH   6   8
ENDBRANCH   1   6
TORSDOF 3
ENDMDL
MODEL 5
REMARK VINA RESULT:      -3.0     27.361     28.749
REMARK  Name = 2Methylcholine.pdbqt.pdb
REMARK  3 active torsions:
REMARK  status: ('A' for Active; 'I' for Inactive)
REMARK    1  A    between atoms: C_1  and  N_2
REMARK    2  A    between atoms: C_1  and  C_6
REMARK    3  A    between atoms: C_6  and  O_8
REMARK                            x       y       z     vdW  Elec       q    Type
REMARK                         _______ _______ _______ _____ _____    ______ ____
ROOT
ATOM      1  C   UNL     1     -33.386  44.149  -7.217  0.00  0.00    +0.000 C 
ENDROOT
BRANCH   1   2
ATOM      2  N   UNL     1     -33.738  44.354  -5.826  0.00  0.00    +0.000 N 
ATOM      3  C   UNL     1     -34.727  43.355  -5.409  0.00  0.00    +0.000 C 
ATOM      4  C   UNL     1     -32.544  44.230  -4.985  0.00  0.00    +0.000 C 
ATOM      5  C   UNL     1     -34.308  45.693  -5.652  0.00  0.00    +0.000 C 
ENDBRANCH   1   2
BRANCH   1   6
ATOM      6  C   UNL     1     -33.057  43.976  -8.569  0.00  0.00    +0.000 C 
ATOM      7  C   UNL     1     -33.600  44.870  -9.619  0.00  0.00    +0.000 C 
BRANCH   6   8
ATOM      8  O   UNL     1     -32.227  42.983  -8.990  0.00  0.00    +0.000 OA
ATOM      9  H   UNL     1     -32.742  42.365  -9.543  0.00  0.00    +0.000 HD
ENDBRANCH   6   8
ENDBRANCH   1   6
TORSDOF 3
ENDMDL
MODEL 6
REMARK VINA RESULT:      -2.9     35.398     35.896
REMARK  Name = 2Methylcholine.pdbqt.pdb
REMARK  3 active torsions:
REMARK  status: ('A' for Active; 'I' for Inactive)
REMARK    1  A    between atoms: C_1  and  N_2
REMARK    2  A    between atoms: C_1  and  C_6
REMARK    3  A    between atoms: C_6  and  O_8
REMARK                            x       y       z     vdW  Elec       q    Type
REMARK                         _______ _______ _______ _____ _____    ______ ____
ROOT
ATOM      1  C   UNL     1     -16.397  49.227   2.034  0.00  0.00    +0.000 C 
ENDROOT
BRANCH   1   2
ATOM      2  N   UNL     1     -16.000  47.853   2.274  0.00  0.00    +0.000 N 
ATOM      3  C   UNL     1     -16.970  46.940   1.663  0.00  0.00    +0.000 C 
ATOM      4  C   UNL     1     -14.677  47.607   1.696  0.00  0.00    +0.000 C 
ATOM      5  C   UNL     1     -15.947  47.599   3.716  0.00  0.00    +0.000 C 
ENDBRANCH   1   2
BRANCH   1   6
ATOM      6  C   UNL     1     -16.757  50.564   1.816  0.00  0.00    +0.000 C 
ATOM      7  C   UNL     1     -15.735  51.624   1.647  0.00  0.00    +0.000 C 
BRANCH   6   8
ATOM      8  O   UNL     1     -18.057  50.961   1.748  0.00  0.00    +0.000 OA
ATOM      9  H   UNL     1     -18.271  51.155   0.815  0.00  0.00    +0.000 HD
ENDBRANCH   6   8
ENDBRANCH   1   6
TORSDOF 3
ENDMDL
MODEL 7
REMARK VINA RESULT:      -2.9     27.529     28.788
REMARK  Name = 2Methylcholine.pdbqt.pdb
REMARK  3 active torsions:
REMARK  status: ('A' for Active; 'I' for Inactive)
REMARK    1  A    between atoms: C_1  and  N_2
REMARK    2  A    between atoms: C_1  and  C_6
REMARK    3  A    between atoms: C_6  and  O_8
REMARK                            x       y       z     vdW  Elec       q    Type
REMARK                         _______ _______ _______ _____ _____    ______ ____
ROOT
ATOM      1  C   UNL     1     -33.676  44.709  -6.630  0.00  0.00    +0.000 C 
ENDROOT
BRANCH   1   2
ATOM      2  N   UNL     1     -33.988  44.511  -8.032  0.00  0.00    +0.000 N 
ATOM      3  C   UNL     1     -35.168  43.650  -8.163  0.00  0.00    +0.000 C 
ATOM      4  C   UNL     1     -34.261  45.801  -8.670  0.00  0.00    +0.000 C 
ATOM      5  C   UNL     1     -32.854  43.874  -8.706  0.00  0.00    +0.000 C 
ENDBRANCH   1   2
BRANCH   1   6
ATOM      6  C   UNL     1     -33.394  44.883  -5.268  0.00  0.00    +0.000 C 
ATOM      7  C   UNL     1     -32.456  43.988  -4.550  0.00  0.00    +0.000 C 
BRANCH   6   8
ATOM      8  O   UNL     1     -33.963  45.878  -4.533  0.00  0.00    +0.000 OA
ATOM      9  H   UNL     1     -34.454  45.472  -3.792  0.00  0.00    +0.000 HD
ENDBRANCH   6   8
ENDBRANCH   1   6
TORSDOF 3
ENDMDL
MODEL 8
REMARK VINA RESULT:      -2.7     39.001     40.184
REMARK  Name = 2Methylcholine.pdbqt.pdb
REMARK  3 active torsions:
REMARK  status: ('A' for Active; 'I' for Inactive)
REMARK    1  A    between atoms: C_1  and  N_2
REMARK    2  A    between atoms: C_1  and  C_6
REMARK    3  A    between atoms: C_6  and  O_8
REMARK                            x       y       z     vdW  Elec       q    Type
REMARK                         _______ _______ _______ _____ _____    ______ ____
ROOT
ATOM      1  C   UNL     1     -31.839  50.129   6.307  0.00  0.00    +0.000 C 
ENDROOT
BRANCH   1   2
ATOM      2  N   UNL     1     -32.603  49.932   7.523  0.00  0.00    +0.000 N 
ATOM      3  C   UNL     1     -33.171  48.581   7.543  0.00  0.00    +0.000 C 
ATOM      4  C   UNL     1     -31.736  50.106   8.691  0.00  0.00    +0.000 C 
ATOM      5  C   UNL     1     -33.692  50.910   7.586  0.00  0.00    +0.000 C 
ENDBRANCH   1   2
BRANCH   1   6
ATOM      6  C   UNL     1     -31.085  50.339   5.143  0.00  0.00    +0.000 C 
ATOM      7  C   UNL     1     -29.941  51.281   5.121  0.00  0.00    +0.000 C 
BRANCH   6   8
ATOM      8  O   UNL     1     -31.360  49.693   3.977  0.00  0.00    +0.000 OA
ATOM      9  H   UNL     1     -31.991  48.972   4.165  0.00  0.00    +0.000 HD
ENDBRANCH   6   8
ENDBRANCH   1   6
TORSDOF 3
ENDMDL
MODEL 9
REMARK VINA RESULT:      -2.7     27.549     28.166
REMARK  Name = 2Methylcholine.pdbqt.pdb
REMARK  3 active torsions:
REMARK  status: ('A' for Active; 'I' for Inactive)
REMARK    1  A    between atoms: C_1  and  N_2
REMARK    2  A    between atoms: C_1  and  C_6
REMARK    3  A    between atoms: C_6  and  O_8
REMARK                            x       y       z     vdW  Elec       q    Type
REMARK                         _______ _______ _______ _____ _____    ______ ____
ROOT
ATOM      1  C   UNL     1     -33.684  44.307  -7.725  0.00  0.00    +0.000 C 
ENDROOT
BRANCH   1   2
ATOM      2  N   UNL     1     -33.886  45.490  -6.913  0.00  0.00    +0.000 N 
ATOM      3  C   UNL     1     -32.810  45.608  -5.925  0.00  0.00    +0.000 C 
ATOM      4  C   UNL     1     -33.892  46.684  -7.762  0.00  0.00    +0.000 C 
ATOM      5  C   UNL     1     -35.170  45.396  -6.212  0.00  0.00    +0.000 C 
ENDBRANCH   1   2
BRANCH   1   6
ATOM      6  C   UNL     1     -33.461  43.167  -8.511  0.00  0.00    +0.000 C 
ATOM      7  C   UNL     1     -34.545  42.197  -8.795  0.00  0.00    +0.000 C 
BRANCH   6   8
ATOM      8  O   UNL     1     -32.244  42.889  -9.053  0.00  0.00    +0.000 OA
ATOM      9  H   UNL     1     -31.554  43.261  -8.469  0.00  0.00    +0.000 HD
ENDBRANCH   6   8
ENDBRANCH   1   6
TORSDOF 3
ENDMDL
