MODEL 1
REMARK VINA RESULT:      -7.5      0.000      0.000
REMARK  Name = 3035817_K252a.pdbqt.pdb
REMARK  3 active torsions:
REMARK  status: ('A' for Active; 'I' for Inactive)
REMARK    1  A    between atoms: C_3  and  O_7
REMARK    2  A    between atoms: C_3  and  C_9
REMARK    3  A    between atoms: C_9  and  O_11
REMARK                            x       y       z     vdW  Elec       q    Type
REMARK                         _______ _______ _______ _____ _____    ______ ____
ROOT
ATOM      1  O   UNL     1     -33.574  48.840 -17.980  0.00  0.00    +0.000 OA
ATOM      2  C   UNL     1     -35.037  49.003 -17.995  0.00  0.00    +0.000 C 
ATOM      3  C   UNL     1     -35.523  48.016 -19.142  0.00  0.00    +0.000 C 
ATOM      4  C   UNL     1     -33.376  47.469 -18.222  0.00  0.00    +0.000 C 
ATOM      5  C   UNL     1     -34.408  47.074 -19.109  0.00  0.00    +0.000 C 
ATOM      6  C   UNL     1     -35.277  50.519 -18.295  0.00  0.00    +0.000 C 
ATOM      7  N   UNL     1     -35.517  48.618 -16.652  0.00  0.00    +0.000 N 
ATOM      8  C   UNL     1     -35.011  47.732 -15.736  0.00  0.00    +0.000 A 
ATOM      9  C   UNL     1     -33.938  46.857 -15.913  0.00  0.00    +0.000 A 
ATOM     10  C   UNL     1     -35.651  47.587 -14.501  0.00  0.00    +0.000 A 
ATOM     11  N   UNL     1     -33.230  46.721 -17.067  0.00  0.00    +0.000 N 
ATOM     12  C   UNL     1     -33.687  45.989 -14.846  0.00  0.00    +0.000 A 
ATOM     13  C   UNL     1     -32.444  45.598 -16.749  0.00  0.00    +0.000 A 
ATOM     14  C   UNL     1     -32.687  45.155 -15.394  0.00  0.00    +0.000 A 
ATOM     15  C   UNL     1     -31.511  44.939 -17.566  0.00  0.00    +0.000 A 
ATOM     16  C   UNL     1     -31.967  44.037 -14.928  0.00  0.00    +0.000 A 
ATOM     17  C   UNL     1     -31.043  43.397 -15.753  0.00  0.00    +0.000 A 
ATOM     18  C   UNL     1     -30.823  43.842 -17.049  0.00  0.00    +0.000 A 
ATOM     19  C   UNL     1     -34.311  45.844 -13.590  0.00  0.00    +0.000 A 
ATOM     20  C   UNL     1     -35.403  46.742 -13.410  0.00  0.00    +0.000 A 
ATOM     21  C   UNL     1     -34.165  44.988 -12.437  0.00  0.00    +0.000 C 
ATOM     22  C   UNL     1     -35.987  46.440 -12.074  0.00  0.00    +0.000 C 
ATOM     23  N   UNL     1     -35.208  45.436 -11.615  0.00  0.00    +0.000 N 
ATOM     24  H   UNL     1     -35.358  45.008 -10.712  0.00  0.00    +0.000 HD
ATOM     25  O   UNL     1     -33.392  44.089 -12.141  0.00  0.00    +0.000 OA
ATOM     26  C   UNL     1     -36.752  48.451 -14.639  0.00  0.00    +0.000 A 
ATOM     27  C   UNL     1     -36.676  49.046 -15.955  0.00  0.00    +0.000 A 
ATOM     28  C   UNL     1     -37.845  48.785 -13.814  0.00  0.00    +0.000 A 
ATOM     29  C   UNL     1     -37.690  49.917 -16.389  0.00  0.00    +0.000 A 
ATOM     30  C   UNL     1     -38.751  50.216 -15.534  0.00  0.00    +0.000 A 
ATOM     31  C   UNL     1     -38.827  49.666 -14.265  0.00  0.00    +0.000 A 
ENDROOT
BRANCH   3  32
ATOM     32  O   UNL     1     -36.739  47.310 -18.854  0.00  0.00    +0.000 OA
ATOM     33  H   UNL     1     -36.532  46.350 -18.880  0.00  0.00    +0.000 HD
ENDBRANCH   3  32
BRANCH   3  34
ATOM     34  C   UNL     1     -35.624  48.723 -20.492  0.00  0.00    +0.000 C 
ATOM     35  O   UNL     1     -36.715  49.119 -20.911  0.00  0.00    +0.000 OA
BRANCH  34  36
ATOM     36  O   UNL     1     -34.413  48.783 -21.123  0.00  0.00    +0.000 OA
ATOM     37  C   UNL     1     -34.407  49.065 -22.496  0.00  0.00    +0.000 C 
ENDBRANCH  34  36
ENDBRANCH   3  34
TORSDOF 3
ENDMDL
MODEL 2
REMARK VINA RESULT:      -7.5      3.850      8.553
REMARK  Name = 3035817_K252a.pdbqt.pdb
REMARK  3 active torsions:
REMARK  status: ('A' for Active; 'I' for Inactive)
REMARK    1  A    between atoms: C_3  and  O_7
REMARK    2  A    between atoms: C_3  and  C_9
REMARK    3  A    between atoms: C_9  and  O_11
REMARK                            x       y       z     vdW  Elec       q    Type
REMARK                         _______ _______ _______ _____ _____    ______ ____
ROOT
ATOM      1  O   UNL     1     -35.955  44.311  -8.997  0.00  0.00    +0.000 OA
ATOM      2  C   UNL     1     -36.342  45.474  -8.182  0.00  0.00    +0.000 C 
ATOM      3  C   UNL     1     -34.957  46.087  -7.701  0.00  0.00    +0.000 C 
ATOM      4  C   UNL     1     -34.800  44.735  -9.677  0.00  0.00    +0.000 C 
ATOM      5  C   UNL     1     -34.111  45.593  -8.784  0.00  0.00    +0.000 C 
ATOM      6  C   UNL     1     -37.229  44.892  -7.032  0.00  0.00    +0.000 C 
ATOM      7  N   UNL     1     -37.104  46.376  -9.070  0.00  0.00    +0.000 N 
ATOM      8  C   UNL     1     -37.029  46.578 -10.424  0.00  0.00    +0.000 A 
ATOM      9  C   UNL     1     -36.092  46.038 -11.306  0.00  0.00    +0.000 A 
ATOM     10  C   UNL     1     -37.912  47.478 -11.030  0.00  0.00    +0.000 A 
ATOM     11  N   UNL     1     -35.057  45.233 -10.943  0.00  0.00    +0.000 N 
ATOM     12  C   UNL     1     -36.184  46.483 -12.629  0.00  0.00    +0.000 A 
ATOM     13  C   UNL     1     -34.348  45.170 -12.156  0.00  0.00    +0.000 A 
ATOM     14  C   UNL     1     -35.032  45.901 -13.201  0.00  0.00    +0.000 A 
ATOM     15  C   UNL     1     -33.143  44.499 -12.417  0.00  0.00    +0.000 A 
ATOM     16  C   UNL     1     -34.442  45.926 -14.480  0.00  0.00    +0.000 A 
ATOM     17  C   UNL     1     -33.246  45.251 -14.721  0.00  0.00    +0.000 A 
ATOM     18  C   UNL     1     -32.609  44.553 -13.704  0.00  0.00    +0.000 A 
ATOM     19  C   UNL     1     -37.079  47.374 -13.257  0.00  0.00    +0.000 A 
ATOM     20  C   UNL     1     -38.038  47.920 -12.354  0.00  0.00    +0.000 A 
ATOM     21  C   UNL     1     -37.260  47.923 -14.579  0.00  0.00    +0.000 C 
ATOM     22  C   UNL     1     -38.871  48.869 -13.142  0.00  0.00    +0.000 C 
ATOM     23  N   UNL     1     -38.345  48.788 -14.383  0.00  0.00    +0.000 N 
ATOM     24  H   UNL     1     -38.705  49.328 -15.157  0.00  0.00    +0.000 HD
ATOM     25  O   UNL     1     -36.693  47.760 -15.650  0.00  0.00    +0.000 OA
ATOM     26  C   UNL     1     -38.628  47.972  -9.925  0.00  0.00    +0.000 A 
ATOM     27  C   UNL     1     -38.109  47.321  -8.743  0.00  0.00    +0.000 A 
ATOM     28  C   UNL     1     -39.646  48.936  -9.769  0.00  0.00    +0.000 A 
ATOM     29  C   UNL     1     -38.608  47.670  -7.476  0.00  0.00    +0.000 A 
ATOM     30  C   UNL     1     -39.617  48.629  -7.375  0.00  0.00    +0.000 A 
ATOM     31  C   UNL     1     -40.133  49.248  -8.502  0.00  0.00    +0.000 A 
ENDROOT
BRANCH   3  32
ATOM     32  O   UNL     1     -34.905  47.522  -7.688  0.00  0.00    +0.000 OA
ATOM     33  H   UNL     1     -34.130  47.792  -8.228  0.00  0.00    +0.000 HD
ENDBRANCH   3  32
BRANCH   3  34
ATOM     34  C   UNL     1     -34.527  45.526  -6.349  0.00  0.00    +0.000 C 
ATOM     35  O   UNL     1     -34.848  46.097  -5.303  0.00  0.00    +0.000 OA
BRANCH  34  36
ATOM     36  O   UNL     1     -33.747  44.412  -6.488  0.00  0.00    +0.000 OA
ATOM     37  C   UNL     1     -34.131  43.255  -5.795  0.00  0.00    +0.000 C 
ENDBRANCH  34  36
ENDBRANCH   3  34
TORSDOF 3
ENDMDL
MODEL 3
REMARK VINA RESULT:      -7.5     26.245     29.498
REMARK  Name = 3035817_K252a.pdbqt.pdb
REMARK  3 active torsions:
REMARK  status: ('A' for Active; 'I' for Inactive)
REMARK    1  A    between atoms: C_3  and  O_7
REMARK    2  A    between atoms: C_3  and  C_9
REMARK    3  A    between atoms: C_9  and  O_11
REMARK                            x       y       z     vdW  Elec       q    Type
REMARK                         _______ _______ _______ _____ _____    ______ ____
ROOT
ATOM      1  O   UNL     1     -14.916  46.923   7.417  0.00  0.00    +0.000 OA
ATOM      2  C   UNL     1     -15.419  46.028   6.361  0.00  0.00    +0.000 C 
ATOM      3  C   UNL     1     -16.698  45.345   7.011  0.00  0.00    +0.000 C 
ATOM      4  C   UNL     1     -16.079  47.430   8.023  0.00  0.00    +0.000 C 
ATOM      5  C   UNL     1     -17.032  46.384   7.982  0.00  0.00    +0.000 C 
ATOM      6  C   UNL     1     -14.240  45.046   6.059  0.00  0.00    +0.000 C 
ATOM      7  N   UNL     1     -15.741  46.885   5.202  0.00  0.00    +0.000 N 
ATOM      8  C   UNL     1     -16.143  48.195   5.135  0.00  0.00    +0.000 A 
ATOM      9  C   UNL     1     -16.472  49.030   6.204  0.00  0.00    +0.000 A 
ATOM     10  C   UNL     1     -16.343  48.784   3.883  0.00  0.00    +0.000 A 
ATOM     11  N   UNL     1     -16.477  48.654   7.511  0.00  0.00    +0.000 N 
ATOM     12  C   UNL     1     -16.945  50.299   5.852  0.00  0.00    +0.000 A 
ATOM     13  C   UNL     1     -17.067  49.788   8.097  0.00  0.00    +0.000 A 
ATOM     14  C   UNL     1     -17.334  50.810   7.109  0.00  0.00    +0.000 A 
ATOM     15  C   UNL     1     -17.376  49.996   9.451  0.00  0.00    +0.000 A 
ATOM     16  C   UNL     1     -17.923  52.012   7.549  0.00  0.00    +0.000 A 
ATOM     17  C   UNL     1     -18.221  52.202   8.898  0.00  0.00    +0.000 A 
ATOM     18  C   UNL     1     -17.953  51.209   9.829  0.00  0.00    +0.000 A 
ATOM     19  C   UNL     1     -17.133  50.913   4.597  0.00  0.00    +0.000 A 
ATOM     20  C   UNL     1     -16.792  50.058   3.508  0.00  0.00    +0.000 A 
ATOM     21  C   UNL     1     -17.628  52.179   4.110  0.00  0.00    +0.000 C 
ATOM     22  C   UNL     1     -17.088  50.818   2.262  0.00  0.00    +0.000 C 
ATOM     23  N   UNL     1     -17.552  52.000   2.723  0.00  0.00    +0.000 N 
ATOM     24  H   UNL     1     -17.842  52.743   2.102  0.00  0.00    +0.000 HD
ATOM     25  O   UNL     1     -18.030  53.197   4.653  0.00  0.00    +0.000 OA
ATOM     26  C   UNL     1     -16.088  47.711   3.011  0.00  0.00    +0.000 A 
ATOM     27  C   UNL     1     -15.755  46.561   3.821  0.00  0.00    +0.000 A 
ATOM     28  C   UNL     1     -16.135  47.555   1.610  0.00  0.00    +0.000 A 
ATOM     29  C   UNL     1     -15.508  45.321   3.207  0.00  0.00    +0.000 A 
ATOM     30  C   UNL     1     -15.565  45.219   1.817  0.00  0.00    +0.000 A 
ATOM     31  C   UNL     1     -15.867  46.317   1.029  0.00  0.00    +0.000 A 
ENDROOT
BRANCH   3  32
ATOM     32  O   UNL     1     -17.807  45.169   6.117  0.00  0.00    +0.000 OA
ATOM     33  H   UNL     1     -17.757  45.883   5.444  0.00  0.00    +0.000 HD
ENDBRANCH   3  32
BRANCH   3  34
ATOM     34  C   UNL     1     -16.350  44.025   7.695  0.00  0.00    +0.000 C 
ATOM     35  O   UNL     1     -15.826  44.018   8.812  0.00  0.00    +0.000 OA
BRANCH  34  36
ATOM     36  O   UNL     1     -16.640  42.951   6.899  0.00  0.00    +0.000 OA
ATOM     37  C   UNL     1     -16.248  41.683   7.348  0.00  0.00    +0.000 C 
ENDBRANCH  34  36
ENDBRANCH   3  34
TORSDOF 3
ENDMDL
MODEL 4
REMARK VINA RESULT:      -7.3     16.511     19.264
REMARK  Name = 3035817_K252a.pdbqt.pdb
REMARK  3 active torsions:
REMARK  status: ('A' for Active; 'I' for Inactive)
REMARK    1  A    between atoms: C_3  and  O_7
REMARK    2  A    between atoms: C_3  and  C_9
REMARK    3  A    between atoms: C_9  and  O_11
REMARK                            x       y       z     vdW  Elec       q    Type
REMARK                         _______ _______ _______ _____ _____    ______ ____
ROOT
ATOM      1  O   UNL     1     -33.831  61.167  -5.782  0.00  0.00    +0.000 OA
ATOM      2  C   UNL     1     -35.289  61.173  -5.981  0.00  0.00    +0.000 C 
ATOM      3  C   UNL     1     -35.835  62.105  -4.815  0.00  0.00    +0.000 C 
ATOM      4  C   UNL     1     -33.533  62.480  -5.375  0.00  0.00    +0.000 C 
ATOM      5  C   UNL     1     -34.637  62.912  -4.601  0.00  0.00    +0.000 C 
ATOM      6  C   UNL     1     -35.724  59.674  -5.873  0.00  0.00    +0.000 C 
ATOM      7  N   UNL     1     -35.528  61.726  -7.330  0.00  0.00    +0.000 N 
ATOM      8  C   UNL     1     -34.806  62.624  -8.074  0.00  0.00    +0.000 A 
ATOM      9  C   UNL     1     -33.688  63.351  -7.664  0.00  0.00    +0.000 A 
ATOM     10  C   UNL     1     -35.242  62.949  -9.363  0.00  0.00    +0.000 A 
ATOM     11  N   UNL     1     -33.144  63.304  -6.418  0.00  0.00    +0.000 N 
ATOM     12  C   UNL     1     -33.197  64.274  -8.594  0.00  0.00    +0.000 A 
ATOM     13  C   UNL     1     -32.212  64.353  -6.510  0.00  0.00    +0.000 A 
ATOM     14  C   UNL     1     -32.209  64.937  -7.833  0.00  0.00    +0.000 A 
ATOM     15  C   UNL     1     -31.345  64.826  -5.511  0.00  0.00    +0.000 A 
ATOM     16  C   UNL     1     -31.319  66.001  -8.080  0.00  0.00    +0.000 A 
ATOM     17  C   UNL     1     -30.464  66.457  -7.076  0.00  0.00    +0.000 A 
ATOM     18  C   UNL     1     -30.481  65.878  -5.815  0.00  0.00    +0.000 A 
ATOM     19  C   UNL     1     -33.613  64.599  -9.901  0.00  0.00    +0.000 A 
ATOM     20  C   UNL     1     -34.753  63.851 -10.318  0.00  0.00    +0.000 A 
ATOM     21  C   UNL     1     -33.215  65.530 -10.930  0.00  0.00    +0.000 C 
ATOM     22  C   UNL     1     -35.103  64.334 -11.682  0.00  0.00    +0.000 C 
ATOM     23  N   UNL     1     -34.167  65.277 -11.926  0.00  0.00    +0.000 N 
ATOM     24  H   UNL     1     -34.140  65.797 -12.793  0.00  0.00    +0.000 HD
ATOM     25  O   UNL     1     -32.320  66.356 -11.025  0.00  0.00    +0.000 OA
ATOM     26  C   UNL     1     -36.433  62.208  -9.464  0.00  0.00    +0.000 A 
ATOM     27  C   UNL     1     -36.610  61.496  -8.217  0.00  0.00    +0.000 A 
ATOM     28  C   UNL     1     -37.422  62.075 -10.459  0.00  0.00    +0.000 A 
ATOM     29  C   UNL     1     -37.760  60.713  -8.017  0.00  0.00    +0.000 A 
ATOM     30  C   UNL     1     -38.709  60.613  -9.033  0.00  0.00    +0.000 A 
ATOM     31  C   UNL     1     -38.543  61.277 -10.238  0.00  0.00    +0.000 A 
ENDROOT
BRANCH   3  32
ATOM     32  O   UNL     1     -36.918  62.969  -5.191  0.00  0.00    +0.000 OA
ATOM     33  H   UNL     1     -37.717  62.407  -5.299  0.00  0.00    +0.000 HD
ENDBRANCH   3  32
BRANCH   3  34
ATOM     34  C   UNL     1     -36.203  61.300  -3.572  0.00  0.00    +0.000 C 
ATOM     35  O   UNL     1     -35.326  60.908  -2.798  0.00  0.00    +0.000 OA
BRANCH  34  36
ATOM     36  O   UNL     1     -37.548  61.061  -3.503  0.00  0.00    +0.000 OA
ATOM     37  C   UNL     1     -38.164  61.159  -2.248  0.00  0.00    +0.000 C 
ENDBRANCH  34  36
ENDBRANCH   3  34
TORSDOF 3
ENDMDL
MODEL 5
REMARK VINA RESULT:      -7.2      3.008      6.674
REMARK  Name = 3035817_K252a.pdbqt.pdb
REMARK  3 active torsions:
REMARK  status: ('A' for Active; 'I' for Inactive)
REMARK    1  A    between atoms: C_3  and  O_7
REMARK    2  A    between atoms: C_3  and  C_9
REMARK    3  A    between atoms: C_9  and  O_11
REMARK                            x       y       z     vdW  Elec       q    Type
REMARK                         _______ _______ _______ _____ _____    ______ ____
ROOT
ATOM      1  O   UNL     1     -38.511  46.648 -13.910  0.00  0.00    +0.000 OA
ATOM      2  C   UNL     1     -37.215  46.739 -14.601  0.00  0.00    +0.000 C 
ATOM      3  C   UNL     1     -37.045  48.291 -14.900  0.00  0.00    +0.000 C 
ATOM      4  C   UNL     1     -38.552  47.797 -13.101  0.00  0.00    +0.000 C 
ATOM      5  C   UNL     1     -37.887  48.814 -13.828  0.00  0.00    +0.000 C 
ATOM      6  C   UNL     1     -37.366  45.844 -15.875  0.00  0.00    +0.000 C 
ATOM      7  N   UNL     1     -36.201  46.210 -13.667  0.00  0.00    +0.000 N 
ATOM      8  C   UNL     1     -36.162  46.197 -12.296  0.00  0.00    +0.000 A 
ATOM      9  C   UNL     1     -37.057  46.815 -11.421  0.00  0.00    +0.000 A 
ATOM     10  C   UNL     1     -35.083  45.584 -11.650  0.00  0.00    +0.000 A 
ATOM     11  N   UNL     1     -38.118  47.575 -11.805  0.00  0.00    +0.000 N 
ATOM     12  C   UNL     1     -36.731  46.724 -10.064  0.00  0.00    +0.000 A 
ATOM     13  C   UNL     1     -38.521  48.091 -10.561  0.00  0.00    +0.000 A 
ATOM     14  C   UNL     1     -37.708  47.565  -9.486  0.00  0.00    +0.000 A 
ATOM     15  C   UNL     1     -39.570  48.987 -10.297  0.00  0.00    +0.000 A 
ATOM     16  C   UNL     1     -37.996  47.989  -8.174  0.00  0.00    +0.000 A 
ATOM     17  C   UNL     1     -39.043  48.878  -7.932  0.00  0.00    +0.000 A 
ATOM     18  C   UNL     1     -39.813  49.367  -8.978  0.00  0.00    +0.000 A 
ATOM     19  C   UNL     1     -35.660  46.094  -9.398  0.00  0.00    +0.000 A 
ATOM     20  C   UNL     1     -34.750  45.461 -10.294  0.00  0.00    +0.000 A 
ATOM     21  C   UNL     1     -35.208  45.953  -8.034  0.00  0.00    +0.000 C 
ATOM     22  C   UNL     1     -33.658  44.890  -9.458  0.00  0.00    +0.000 C 
ATOM     23  N   UNL     1     -34.022  45.226  -8.201  0.00  0.00    +0.000 N 
ATOM     24  H   UNL     1     -33.469  44.972  -7.394  0.00  0.00    +0.000 HD
ATOM     25  O   UNL     1     -35.646  46.320  -6.954  0.00  0.00    +0.000 OA
ATOM     26  C   UNL     1     -34.282  45.184 -12.734  0.00  0.00    +0.000 A 
ATOM     27  C   UNL     1     -34.954  45.596 -13.947  0.00  0.00    +0.000 A 
ATOM     28  C   UNL     1     -33.029  44.547 -12.844  0.00  0.00    +0.000 A 
ATOM     29  C   UNL     1     -34.344  45.374 -15.194  0.00  0.00    +0.000 A 
ATOM     30  C   UNL     1     -33.104  44.737 -15.249  0.00  0.00    +0.000 A 
ATOM     31  C   UNL     1     -32.458  44.324 -14.095  0.00  0.00    +0.000 A 
ENDROOT
BRANCH   3  32
ATOM     32  O   UNL     1     -35.711  48.794 -14.733  0.00  0.00    +0.000 OA
ATOM     33  H   UNL     1     -35.781  49.665 -14.284  0.00  0.00    +0.000 HD
ENDBRANCH   3  32
BRANCH   3  34
ATOM     34  C   UNL     1     -37.587  48.665 -16.277  0.00  0.00    +0.000 C 
ATOM     35  O   UNL     1     -38.798  48.823 -16.452  0.00  0.00    +0.000 OA
BRANCH  34  36
ATOM     36  O   UNL     1     -36.591  48.732 -17.212  0.00  0.00    +0.000 OA
ATOM     37  C   UNL     1     -36.547  49.864 -18.037  0.00  0.00    +0.000 C 
ENDBRANCH  34  36
ENDBRANCH   3  34
TORSDOF 3
ENDMDL
MODEL 6
REMARK VINA RESULT:      -7.1      2.271      5.624
REMARK  Name = 3035817_K252a.pdbqt.pdb
REMARK  3 active torsions:
REMARK  status: ('A' for Active; 'I' for Inactive)
REMARK    1  A    between atoms: C_3  and  O_7
REMARK    2  A    between atoms: C_3  and  C_9
REMARK    3  A    between atoms: C_9  and  O_11
REMARK                            x       y       z     vdW  Elec       q    Type
REMARK                         _______ _______ _______ _____ _____    ______ ____
ROOT
ATOM      1  O   UNL     1     -38.492  47.232 -15.331  0.00  0.00    +0.000 OA
ATOM      2  C   UNL     1     -37.349  47.669 -16.148  0.00  0.00    +0.000 C 
ATOM      3  C   UNL     1     -37.316  49.246 -15.955  0.00  0.00    +0.000 C 
ATOM      4  C   UNL     1     -38.448  48.065 -14.200  0.00  0.00    +0.000 C 
ATOM      5  C   UNL     1     -37.979  49.321 -14.655  0.00  0.00    +0.000 C 
ATOM      6  C   UNL     1     -37.679  47.198 -17.602  0.00  0.00    +0.000 C 
ATOM      7  N   UNL     1     -36.156  46.990 -15.601  0.00  0.00    +0.000 N 
ATOM      8  C   UNL     1     -35.871  46.560 -14.330  0.00  0.00    +0.000 A 
ATOM      9  C   UNL     1     -36.625  46.779 -13.177  0.00  0.00    +0.000 A 
ATOM     10  C   UNL     1     -34.663  45.896 -14.089  0.00  0.00    +0.000 A 
ATOM     11  N   UNL     1     -37.777  47.502 -13.128  0.00  0.00    +0.000 N 
ATOM     12  C   UNL     1     -36.057  46.310 -11.987  0.00  0.00    +0.000 A 
ATOM     13  C   UNL     1     -37.976  47.564 -11.737  0.00  0.00    +0.000 A 
ATOM     14  C   UNL     1     -36.957  46.823 -11.027  0.00  0.00    +0.000 A 
ATOM     15  C   UNL     1     -39.006  48.218 -11.041  0.00  0.00    +0.000 A 
ATOM     16  C   UNL     1     -37.026  46.790  -9.620  0.00  0.00    +0.000 A 
ATOM     17  C   UNL     1     -38.058  47.444  -8.948  0.00  0.00    +0.000 A 
ATOM     18  C   UNL     1     -39.028  48.146  -9.649  0.00  0.00    +0.000 A 
ATOM     19  C   UNL     1     -34.852  45.624 -11.733  0.00  0.00    +0.000 A 
ATOM     20  C   UNL     1     -34.086  45.398 -12.913  0.00  0.00    +0.000 A 
ATOM     21  C   UNL     1     -34.155  45.120 -10.573  0.00  0.00    +0.000 C 
ATOM     22  C   UNL     1     -32.833  44.718 -12.484  0.00  0.00    +0.000 C 
ATOM     23  N   UNL     1     -32.982  44.610 -11.145  0.00  0.00    +0.000 N 
ATOM     24  H   UNL     1     -32.280  44.181 -10.558  0.00  0.00    +0.000 HD
ATOM     25  O   UNL     1     -34.410  45.087  -9.379  0.00  0.00    +0.000 OA
ATOM     26  C   UNL     1     -34.050  45.938 -15.354  0.00  0.00    +0.000 A 
ATOM     27  C   UNL     1     -34.950  46.628 -16.251  0.00  0.00    +0.000 A 
ATOM     28  C   UNL     1     -32.806  45.502 -15.854  0.00  0.00    +0.000 A 
ATOM     29  C   UNL     1     -34.563  46.867 -17.582  0.00  0.00    +0.000 A 
ATOM     30  C   UNL     1     -33.322  46.414 -18.029  0.00  0.00    +0.000 A 
ATOM     31  C   UNL     1     -32.458  45.738 -17.183  0.00  0.00    +0.000 A 
ENDROOT
BRANCH   3  32
ATOM     32  O   UNL     1     -36.002  49.813 -15.842  0.00  0.00    +0.000 OA
ATOM     33  H   UNL     1     -35.616  49.490 -14.999  0.00  0.00    +0.000 HD
ENDBRANCH   3  32
BRANCH   3  34
ATOM     34  C   UNL     1     -38.116  49.966 -17.037  0.00  0.00    +0.000 C 
ATOM     35  O   UNL     1     -39.348  50.011 -16.980  0.00  0.00    +0.000 OA
BRANCH  34  36
ATOM     36  O   UNL     1     -37.306  50.457 -18.024  0.00  0.00    +0.000 OA
ATOM     37  C   UNL     1     -37.708  51.632 -18.673  0.00  0.00    +0.000 C 
ENDBRANCH  34  36
ENDBRANCH   3  34
TORSDOF 3
ENDMDL
MODEL 7
REMARK VINA RESULT:      -7.1      3.962      7.326
REMARK  Name = 3035817_K252a.pdbqt.pdb
REMARK  3 active torsions:
REMARK  status: ('A' for Active; 'I' for Inactive)
REMARK    1  A    between atoms: C_3  and  O_7
REMARK    2  A    between atoms: C_3  and  C_9
REMARK    3  A    between atoms: C_9  and  O_11
REMARK                            x       y       z     vdW  Elec       q    Type
REMARK                         _______ _______ _______ _____ _____    ______ ____
ROOT
ATOM      1  O   UNL     1     -40.132  50.874 -17.036  0.00  0.00    +0.000 OA
ATOM      2  C   UNL     1     -39.889  52.146 -17.734  0.00  0.00    +0.000 C 
ATOM      3  C   UNL     1     -39.398  53.129 -16.586  0.00  0.00    +0.000 C 
ATOM      4  C   UNL     1     -39.105  50.803 -16.078  0.00  0.00    +0.000 C 
ATOM      5  C   UNL     1     -38.868  52.135 -15.657  0.00  0.00    +0.000 C 
ATOM      6  C   UNL     1     -41.261  52.530 -18.377  0.00  0.00    +0.000 C 
ATOM      7  N   UNL     1     -38.853  51.876 -18.752  0.00  0.00    +0.000 N 
ATOM      8  C   UNL     1     -37.831  50.962 -18.775  0.00  0.00    +0.000 A 
ATOM      9  C   UNL     1     -37.438  50.112 -17.740  0.00  0.00    +0.000 A 
ATOM     10  C   UNL     1     -37.005  50.889 -19.902  0.00  0.00    +0.000 A 
ATOM     11  N   UNL     1     -38.003  50.081 -16.503  0.00  0.00    +0.000 N 
ATOM     12  C   UNL     1     -36.298  49.342 -17.995  0.00  0.00    +0.000 A 
ATOM     13  C   UNL     1     -37.108  49.225 -15.838  0.00  0.00    +0.000 A 
ATOM     14  C   UNL     1     -36.080  48.743 -16.735  0.00  0.00    +0.000 A 
ATOM     15  C   UNL     1     -37.138  48.821 -14.493  0.00  0.00    +0.000 A 
ATOM     16  C   UNL     1     -35.107  47.868 -16.211  0.00  0.00    +0.000 A 
ATOM     17  C   UNL     1     -35.155  47.476 -14.873  0.00  0.00    +0.000 A 
ATOM     18  C   UNL     1     -36.152  47.948 -14.032  0.00  0.00    +0.000 A 
ATOM     19  C   UNL     1     -35.469  49.244 -19.131  0.00  0.00    +0.000 A 
ATOM     20  C   UNL     1     -35.875  50.110 -20.187  0.00  0.00    +0.000 A 
ATOM     21  C   UNL     1     -34.274  48.522 -19.500  0.00  0.00    +0.000 C 
ATOM     22  C   UNL     1     -34.886  49.935 -21.286  0.00  0.00    +0.000 C 
ATOM     23  N   UNL     1     -34.032  49.014 -20.789  0.00  0.00    +0.000 N 
ATOM     24  H   UNL     1     -33.235  48.680 -21.314  0.00  0.00    +0.000 HD
ATOM     25  O   UNL     1     -33.578  47.691 -18.937  0.00  0.00    +0.000 OA
ATOM     26  C   UNL     1     -37.518  51.923 -20.706  0.00  0.00    +0.000 A 
ATOM     27  C   UNL     1     -38.614  52.531 -19.987  0.00  0.00    +0.000 A 
ATOM     28  C   UNL     1     -37.160  52.455 -21.962  0.00  0.00    +0.000 A 
ATOM     29  C   UNL     1     -39.281  53.640 -20.537  0.00  0.00    +0.000 A 
ATOM     30  C   UNL     1     -38.891  54.128 -21.784  0.00  0.00    +0.000 A 
ATOM     31  C   UNL     1     -37.852  53.543 -22.490  0.00  0.00    +0.000 A 
ENDROOT
BRANCH   3  32
ATOM     32  O   UNL     1     -38.340  54.022 -16.967  0.00  0.00    +0.000 OA
ATOM     33  H   UNL     1     -38.550  54.903 -16.586  0.00  0.00    +0.000 HD
ENDBRANCH   3  32
BRANCH   3  34
ATOM     34  C   UNL     1     -40.559  53.910 -15.974  0.00  0.00    +0.000 C 
ATOM     35  O   UNL     1     -41.325  53.368 -15.173  0.00  0.00    +0.000 OA
BRANCH  34  36
ATOM     36  O   UNL     1     -40.631  55.182 -16.470  0.00  0.00    +0.000 OA
ATOM     37  C   UNL     1     -41.890  55.796 -16.513  0.00  0.00    +0.000 C 
ENDBRANCH  34  36
ENDBRANCH   3  34
TORSDOF 3
ENDMDL
MODEL 8
REMARK VINA RESULT:      -7.1      2.424      6.164
REMARK  Name = 3035817_K252a.pdbqt.pdb
REMARK  3 active torsions:
REMARK  status: ('A' for Active; 'I' for Inactive)
REMARK    1  A    between atoms: C_3  and  O_7
REMARK    2  A    between atoms: C_3  and  C_9
REMARK    3  A    between atoms: C_9  and  O_11
REMARK                            x       y       z     vdW  Elec       q    Type
REMARK                         _______ _______ _______ _____ _____    ______ ____
ROOT
ATOM      1  O   UNL     1     -35.931  46.304 -17.005  0.00  0.00    +0.000 OA
ATOM      2  C   UNL     1     -35.218  46.142 -15.729  0.00  0.00    +0.000 C 
ATOM      3  C   UNL     1     -33.864  46.949 -15.937  0.00  0.00    +0.000 C 
ATOM      4  C   UNL     1     -35.645  47.624 -17.396  0.00  0.00    +0.000 C 
ATOM      5  C   UNL     1     -34.323  47.885 -16.961  0.00  0.00    +0.000 C 
ATOM      6  C   UNL     1     -35.034  44.599 -15.554  0.00  0.00    +0.000 C 
ATOM      7  N   UNL     1     -36.087  46.720 -14.684  0.00  0.00    +0.000 N 
ATOM      8  C   UNL     1     -37.012  47.732 -14.742  0.00  0.00    +0.000 A 
ATOM      9  C   UNL     1     -37.277  48.570 -15.826  0.00  0.00    +0.000 A 
ATOM     10  C   UNL     1     -37.740  48.058 -13.593  0.00  0.00    +0.000 A 
ATOM     11  N   UNL     1     -36.616  48.534 -17.015  0.00  0.00    +0.000 N 
ATOM     12  C   UNL     1     -38.209  49.586 -15.588  0.00  0.00    +0.000 A 
ATOM     13  C   UNL     1     -37.133  49.691 -17.625  0.00  0.00    +0.000 A 
ATOM     14  C   UNL     1     -38.123  50.329 -16.785  0.00  0.00    +0.000 A 
ATOM     15  C   UNL     1     -36.807  50.222 -18.884  0.00  0.00    +0.000 A 
ATOM     16  C   UNL     1     -38.737  51.503 -17.266  0.00  0.00    +0.000 A 
ATOM     17  C   UNL     1     -38.401  52.013 -18.520  0.00  0.00    +0.000 A 
ATOM     18  C   UNL     1     -37.452  51.382 -19.311  0.00  0.00    +0.000 A 
ATOM     19  C   UNL     1     -38.963  49.914 -14.442  0.00  0.00    +0.000 A 
ATOM     20  C   UNL     1     -38.693  49.053 -13.339  0.00  0.00    +0.000 A 
ATOM     21  C   UNL     1     -39.917  50.931 -14.070  0.00  0.00    +0.000 C 
ATOM     22  C   UNL     1     -39.516  49.550 -12.201  0.00  0.00    +0.000 C 
ATOM     23  N   UNL     1     -40.167  50.609 -12.729  0.00  0.00    +0.000 N 
ATOM     24  H   UNL     1     -40.815  51.166 -12.190  0.00  0.00    +0.000 HD
ATOM     25  O   UNL     1     -40.439  51.863 -14.663  0.00  0.00    +0.000 OA
ATOM     26  C   UNL     1     -37.188  47.183 -12.640  0.00  0.00    +0.000 A 
ATOM     27  C   UNL     1     -36.169  46.401 -13.305  0.00  0.00    +0.000 A 
ATOM     28  C   UNL     1     -37.402  46.976 -11.262  0.00  0.00    +0.000 A 
ATOM     29  C   UNL     1     -35.407  45.477 -12.570  0.00  0.00    +0.000 A 
ATOM     30  C   UNL     1     -35.658  45.307 -11.208  0.00  0.00    +0.000 A 
ATOM     31  C   UNL     1     -36.642  46.039 -10.564  0.00  0.00    +0.000 A 
ENDROOT
BRANCH   3  32
ATOM     32  O   UNL     1     -33.422  47.691 -14.791  0.00  0.00    +0.000 OA
ATOM     33  H   UNL     1     -33.803  47.257 -13.996  0.00  0.00    +0.000 HD
ENDBRANCH   3  32
BRANCH   3  34
ATOM     34  C   UNL     1     -32.744  46.052 -16.456  0.00  0.00    +0.000 C 
ATOM     35  O   UNL     1     -32.059  45.389 -15.672  0.00  0.00    +0.000 OA
BRANCH  34  36
ATOM     36  O   UNL     1     -32.606  46.146 -17.813  0.00  0.00    +0.000 OA
ATOM     37  C   UNL     1     -32.630  44.958 -18.555  0.00  0.00    +0.000 C 
ENDBRANCH  34  36
ENDBRANCH   3  34
TORSDOF 3
ENDMDL
MODEL 9
REMARK VINA RESULT:      -7.1      4.386      8.478
REMARK  Name = 3035817_K252a.pdbqt.pdb
REMARK  3 active torsions:
REMARK  status: ('A' for Active; 'I' for Inactive)
REMARK    1  A    between atoms: C_3  and  O_7
REMARK    2  A    between atoms: C_3  and  C_9
REMARK    3  A    between atoms: C_9  and  O_11
REMARK                            x       y       z     vdW  Elec       q    Type
REMARK                         _______ _______ _______ _____ _____    ______ ____
ROOT
ATOM      1  O   UNL     1     -37.621  49.707 -21.104  0.00  0.00    +0.000 OA
ATOM      2  C   UNL     1     -36.951  49.471 -19.815  0.00  0.00    +0.000 C 
ATOM      3  C   UNL     1     -35.425  49.804 -20.106  0.00  0.00    +0.000 C 
ATOM      4  C   UNL     1     -36.963  50.830 -21.635  0.00  0.00    +0.000 C 
ATOM      5  C   UNL     1     -35.611  50.722 -21.227  0.00  0.00    +0.000 C 
ATOM      6  C   UNL     1     -37.236  47.972 -19.473  0.00  0.00    +0.000 C 
ATOM      7  N   UNL     1     -37.574  50.392 -18.842  0.00  0.00    +0.000 N 
ATOM      8  C   UNL     1     -38.153  51.623 -19.013  0.00  0.00    +0.000 A 
ATOM      9  C   UNL     1     -38.185  52.384 -20.182  0.00  0.00    +0.000 A 
ATOM     10  C   UNL     1     -38.713  52.273 -17.908  0.00  0.00    +0.000 A 
ATOM     11  N   UNL     1     -37.603  52.026 -21.359  0.00  0.00    +0.000 N 
ATOM     12  C   UNL     1     -38.760  53.653 -20.059  0.00  0.00    +0.000 A 
ATOM     13  C   UNL     1     -37.766  53.214 -22.093  0.00  0.00    +0.000 A 
ATOM     14  C   UNL     1     -38.491  54.206 -21.330  0.00  0.00    +0.000 A 
ATOM     15  C   UNL     1     -37.333  53.486 -23.401  0.00  0.00    +0.000 A 
ATOM     16  C   UNL     1     -38.737  55.453 -21.938  0.00  0.00    +0.000 A 
ATOM     17  C   UNL     1     -38.301  55.704 -23.239  0.00  0.00    +0.000 A 
ATOM     18  C   UNL     1     -37.610  54.736 -23.954  0.00  0.00    +0.000 A 
ATOM     19  C   UNL     1     -39.346  54.313 -18.959  0.00  0.00    +0.000 A 
ATOM     20  C   UNL     1     -39.314  53.531 -17.767  0.00  0.00    +0.000 A 
ATOM     21  C   UNL     1     -39.938  55.604 -18.702  0.00  0.00    +0.000 C 
ATOM     22  C   UNL     1     -39.915  54.370 -16.693  0.00  0.00    +0.000 C 
ATOM     23  N   UNL     1     -40.232  55.515 -17.335  0.00  0.00    +0.000 N 
ATOM     24  H   UNL     1     -40.666  56.296 -16.861  0.00  0.00    +0.000 HD
ATOM     25  O   UNL     1     -40.172  56.582 -19.395  0.00  0.00    +0.000 OA
ATOM     26  C   UNL     1     -38.423  51.377 -16.864  0.00  0.00    +0.000 A 
ATOM     27  C   UNL     1     -37.707  50.259 -17.436  0.00  0.00    +0.000 A 
ATOM     28  C   UNL     1     -38.647  51.390 -15.472  0.00  0.00    +0.000 A 
ATOM     29  C   UNL     1     -37.237  49.229 -16.603  0.00  0.00    +0.000 A 
ATOM     30  C   UNL     1     -37.486  49.287 -15.232  0.00  0.00    +0.000 A 
ATOM     31  C   UNL     1     -38.184  50.346 -14.673  0.00  0.00    +0.000 A 
ENDROOT
BRANCH   3  32
ATOM     32  O   UNL     1     -34.745  50.493 -19.046  0.00  0.00    +0.000 OA
ATOM     33  H   UNL     1     -34.940  51.451 -19.149  0.00  0.00    +0.000 HD
ENDBRANCH   3  32
BRANCH   3  34
ATOM     34  C   UNL     1     -34.643  48.560 -20.520  0.00  0.00    +0.000 C 
ATOM     35  O   UNL     1     -34.064  47.874 -19.674  0.00  0.00    +0.000 OA
BRANCH  34  36
ATOM     36  O   UNL     1     -34.647  48.388 -21.877  0.00  0.00    +0.000 OA
ATOM     37  C   UNL     1     -35.148  47.179 -22.379  0.00  0.00    +0.000 C 
ENDBRANCH  34  36
ENDBRANCH   3  34
TORSDOF 3
ENDMDL
