MODEL 1
REMARK VINA RESULT:      -4.6      0.000      0.000
REMARK  Name = 3136_Dimethoxy.pdbqt.pdb
REMARK  2 active torsions:
REMARK  status: ('A' for Active; 'I' for Inactive)
REMARK    1  A    between atoms: C_7  and  O_13
REMARK    2  A    between atoms: C_8  and  O_15
REMARK                            x       y       z     vdW  Elec       q    Type
REMARK                         _______ _______ _______ _____ _____    ______ ____
ROOT
ATOM      1  O   UNL     1     -34.343  46.972 -13.839  0.00  0.00    +0.000 OA
ATOM      2  O   UNL     1     -32.128  45.509 -18.460  0.00  0.00    +0.000 OA
ATOM      3  C   UNL     1     -34.094  47.393 -16.126  0.00  0.00    +0.000 A 
ATOM      4  C   UNL     1     -33.497  47.026 -17.324  0.00  0.00    +0.000 A 
ATOM      5  C   UNL     1     -33.856  46.617 -14.904  0.00  0.00    +0.000 C 
ATOM      6  C   UNL     1     -32.611  45.860 -17.392  0.00  0.00    +0.000 C 
ATOM      7  C   UNL     1     -32.997  45.411 -14.999  0.00  0.00    +0.000 C 
ATOM      8  C   UNL     1     -32.340  45.115 -16.139  0.00  0.00    +0.000 C 
ATOM      9  C   UNL     1     -34.930  48.508 -16.074  0.00  0.00    +0.000 A 
ATOM     10  C   UNL     1     -33.736  47.770 -18.481  0.00  0.00    +0.000 A 
ATOM     11  C   UNL     1     -35.168  49.252 -17.227  0.00  0.00    +0.000 A 
ATOM     12  C   UNL     1     -34.572  48.883 -18.431  0.00  0.00    +0.000 A 
ENDROOT
BRANCH   7  13
ATOM     13  O   UNL     1     -32.851  44.696 -13.824  0.00  0.00    +0.000 OA
ATOM     14  C   UNL     1     -33.714  43.584 -13.836  0.00  0.00    +0.000 C 
ENDBRANCH   7  13
BRANCH   8  15
ATOM     15  O   UNL     1     -31.457  44.056 -16.260  0.00  0.00    +0.000 OA
ATOM     16  C   UNL     1     -30.187  44.443 -15.793  0.00  0.00    +0.000 C 
ENDBRANCH   8  15
TORSDOF 2
ENDMDL
MODEL 2
REMARK VINA RESULT:      -4.5     25.196     27.065
REMARK  Name = 3136_Dimethoxy.pdbqt.pdb
REMARK  2 active torsions:
REMARK  status: ('A' for Active; 'I' for Inactive)
REMARK    1  A    between atoms: C_7  and  O_13
REMARK    2  A    between atoms: C_8  and  O_15
REMARK                            x       y       z     vdW  Elec       q    Type
REMARK                         _______ _______ _______ _____ _____    ______ ____
ROOT
ATOM      1  O   UNL     1     -15.714  47.904   5.112  0.00  0.00    +0.000 OA
ATOM      2  O   UNL     1     -17.633  52.638   3.593  0.00  0.00    +0.000 OA
ATOM      3  C   UNL     1     -16.717  49.919   5.745  0.00  0.00    +0.000 A 
ATOM      4  C   UNL     1     -17.194  51.162   5.353  0.00  0.00    +0.000 A 
ATOM      5  C   UNL     1     -16.181  48.978   4.756  0.00  0.00    +0.000 C 
ATOM      6  C   UNL     1     -17.165  51.563   3.942  0.00  0.00    +0.000 C 
ATOM      7  C   UNL     1     -16.203  49.378   3.328  0.00  0.00    +0.000 C 
ATOM      8  C   UNL     1     -16.573  50.622   2.961  0.00  0.00    +0.000 C 
ATOM      9  C   UNL     1     -16.746  49.553   7.091  0.00  0.00    +0.000 A 
ATOM     10  C   UNL     1     -17.708  52.046   6.303  0.00  0.00    +0.000 A 
ATOM     11  C   UNL     1     -17.257  50.434   8.040  0.00  0.00    +0.000 A 
ATOM     12  C   UNL     1     -17.738  51.681   7.647  0.00  0.00    +0.000 A 
ENDROOT
BRANCH   7  13
ATOM     13  O   UNL     1     -15.727  48.428   2.441  0.00  0.00    +0.000 OA
ATOM     14  C   UNL     1     -16.809  47.740   1.861  0.00  0.00    +0.000 C 
ENDBRANCH   7  13
BRANCH   8  15
ATOM     15  O   UNL     1     -16.529  51.079   1.656  0.00  0.00    +0.000 OA
ATOM     16  C   UNL     1     -15.284  51.688   1.409  0.00  0.00    +0.000 C 
ENDBRANCH   8  15
TORSDOF 2
ENDMDL
MODEL 3
REMARK VINA RESULT:      -4.5     20.389     20.936
REMARK  Name = 3136_Dimethoxy.pdbqt.pdb
REMARK  2 active torsions:
REMARK  status: ('A' for Active; 'I' for Inactive)
REMARK    1  A    between atoms: C_7  and  O_13
REMARK    2  A    between atoms: C_8  and  O_15
REMARK                            x       y       z     vdW  Elec       q    Type
REMARK                         _______ _______ _______ _____ _____    ______ ____
ROOT
ATOM      1  O   UNL     1     -15.124  52.787 -22.412  0.00  0.00    +0.000 OA
ATOM      2  O   UNL     1     -16.980  57.747 -23.001  0.00  0.00    +0.000 OA
ATOM      3  C   UNL     1     -15.960  54.419 -23.863  0.00  0.00    +0.000 A 
ATOM      4  C   UNL     1     -16.467  55.702 -24.012  0.00  0.00    +0.000 A 
ATOM      5  C   UNL     1     -15.522  53.936 -22.549  0.00  0.00    +0.000 C 
ATOM      6  C   UNL     1     -16.582  56.600 -22.858  0.00  0.00    +0.000 C 
ATOM      7  C   UNL     1     -15.598  54.871 -21.400  0.00  0.00    +0.000 C 
ATOM      8  C   UNL     1     -16.183  56.080 -21.527  0.00  0.00    +0.000 C 
ATOM      9  C   UNL     1     -15.862  53.573 -24.968  0.00  0.00    +0.000 A 
ATOM     10  C   UNL     1     -16.874  56.151 -25.268  0.00  0.00    +0.000 A 
ATOM     11  C   UNL     1     -16.269  54.020 -26.223  0.00  0.00    +0.000 A 
ATOM     12  C   UNL     1     -16.775  55.309 -26.374  0.00  0.00    +0.000 A 
ENDROOT
BRANCH   7  13
ATOM     13  O   UNL     1     -15.126  54.372 -20.200  0.00  0.00    +0.000 OA
ATOM     14  C   UNL     1     -13.755  54.662 -20.073  0.00  0.00    +0.000 C 
ENDBRANCH   7  13
BRANCH   8  15
ATOM     15  O   UNL     1     -16.362  56.957 -20.472  0.00  0.00    +0.000 OA
ATOM     16  C   UNL     1     -15.248  57.813 -20.374  0.00  0.00    +0.000 C 
ENDBRANCH   8  15
TORSDOF 2
ENDMDL
MODEL 4
REMARK VINA RESULT:      -4.4     25.668     26.879
REMARK  Name = 3136_Dimethoxy.pdbqt.pdb
REMARK  2 active torsions:
REMARK  status: ('A' for Active; 'I' for Inactive)
REMARK    1  A    between atoms: C_7  and  O_13
REMARK    2  A    between atoms: C_8  and  O_15
REMARK                            x       y       z     vdW  Elec       q    Type
REMARK                         _______ _______ _______ _____ _____    ______ ____
ROOT
ATOM      1  O   UNL     1     -16.110  47.643   6.423  0.00  0.00    +0.000 OA
ATOM      2  O   UNL     1     -16.968  50.957   2.338  0.00  0.00    +0.000 OA
ATOM      3  C   UNL     1     -16.827  49.753   5.714  0.00  0.00    +0.000 A 
ATOM      4  C   UNL     1     -17.027  50.624   4.652  0.00  0.00    +0.000 A 
ATOM      5  C   UNL     1     -16.333  48.392   5.480  0.00  0.00    +0.000 C 
ATOM      6  C   UNL     1     -16.742  50.205   3.276  0.00  0.00    +0.000 C 
ATOM      7  C   UNL     1     -16.097  47.965   4.080  0.00  0.00    +0.000 C 
ATOM      8  C   UNL     1     -16.196  48.843   3.061  0.00  0.00    +0.000 C 
ATOM      9  C   UNL     1     -17.096  50.167   7.018  0.00  0.00    +0.000 A 
ATOM     10  C   UNL     1     -17.503  51.915   4.887  0.00  0.00    +0.000 A 
ATOM     11  C   UNL     1     -17.570  51.456   7.254  0.00  0.00    +0.000 A 
ATOM     12  C   UNL     1     -17.774  52.330   6.189  0.00  0.00    +0.000 A 
ENDROOT
BRANCH   7  13
ATOM     13  O   UNL     1     -15.678  46.656   3.924  0.00  0.00    +0.000 OA
ATOM     14  C   UNL     1     -16.781  45.841   3.607  0.00  0.00    +0.000 C 
ENDBRANCH   7  13
BRANCH   8  15
ATOM     15  O   UNL     1     -15.901  48.525   1.746  0.00  0.00    +0.000 OA
ATOM     16  C   UNL     1     -14.533  48.747   1.501  0.00  0.00    +0.000 C 
ENDBRANCH   8  15
TORSDOF 2
ENDMDL
MODEL 5
REMARK VINA RESULT:      -4.3     20.356     20.958
REMARK  Name = 3136_Dimethoxy.pdbqt.pdb
REMARK  2 active torsions:
REMARK  status: ('A' for Active; 'I' for Inactive)
REMARK    1  A    between atoms: C_7  and  O_13
REMARK    2  A    between atoms: C_8  and  O_15
REMARK                            x       y       z     vdW  Elec       q    Type
REMARK                         _______ _______ _______ _____ _____    ______ ____
ROOT
ATOM      1  O   UNL     1     -17.142  56.550 -25.673  0.00  0.00    +0.000 OA
ATOM      2  O   UNL     1     -15.109  52.587 -22.747  0.00  0.00    +0.000 OA
ATOM      3  C   UNL     1     -16.426  55.820 -23.570  0.00  0.00    +0.000 A 
ATOM      4  C   UNL     1     -15.919  54.780 -22.803  0.00  0.00    +0.000 A 
ATOM      5  C   UNL     1     -16.648  55.648 -25.009  0.00  0.00    +0.000 C 
ATOM      6  C   UNL     1     -15.603  53.485 -23.415  0.00  0.00    +0.000 C 
ATOM      7  C   UNL     1     -16.277  54.350 -25.624  0.00  0.00    +0.000 C 
ATOM      8  C   UNL     1     -15.881  53.310 -24.861  0.00  0.00    +0.000 C 
ATOM      9  C   UNL     1     -16.728  57.045 -22.974  0.00  0.00    +0.000 A 
ATOM     10  C   UNL     1     -15.706  54.958 -21.436  0.00  0.00    +0.000 A 
ATOM     11  C   UNL     1     -16.517  57.224 -21.609  0.00  0.00    +0.000 A 
ATOM     12  C   UNL     1     -16.006  56.181 -20.840  0.00  0.00    +0.000 A 
ENDROOT
BRANCH   7  13
ATOM     13  O   UNL     1     -16.467  54.268 -26.991  0.00  0.00    +0.000 OA
ATOM     14  C   UNL     1     -17.745  53.744 -27.261  0.00  0.00    +0.000 C 
ENDBRANCH   7  13
BRANCH   8  15
ATOM     15  O   UNL     1     -15.608  52.051 -25.367  0.00  0.00    +0.000 OA
ATOM     16  C   UNL     1     -14.324  52.041 -25.944  0.00  0.00    +0.000 C 
ENDBRANCH   8  15
TORSDOF 2
ENDMDL
MODEL 6
REMARK VINA RESULT:      -4.3     18.830     20.365
REMARK  Name = 3136_Dimethoxy.pdbqt.pdb
REMARK  2 active torsions:
REMARK  status: ('A' for Active; 'I' for Inactive)
REMARK    1  A    between atoms: C_7  and  O_13
REMARK    2  A    between atoms: C_8  and  O_15
REMARK                            x       y       z     vdW  Elec       q    Type
REMARK                         _______ _______ _______ _____ _____    ______ ____
ROOT
ATOM      1  O   UNL     1     -31.371  60.693 -29.174  0.00  0.00    +0.000 OA
ATOM      2  O   UNL     1     -26.223  60.017 -30.373  0.00  0.00    +0.000 OA
ATOM      3  C   UNL     1     -29.161  60.635 -28.411  0.00  0.00    +0.000 A 
ATOM      4  C   UNL     1     -27.823  60.435 -28.719  0.00  0.00    +0.000 A 
ATOM      5  C   UNL     1     -30.187  60.566 -29.457  0.00  0.00    +0.000 C 
ATOM      6  C   UNL     1     -27.408  60.142 -30.095  0.00  0.00    +0.000 C 
ATOM      7  C   UNL     1     -29.748  60.319 -30.852  0.00  0.00    +0.000 C 
ATOM      8  C   UNL     1     -28.461  60.025 -31.133  0.00  0.00    +0.000 C 
ATOM      9  C   UNL     1     -29.543  60.906 -27.098  0.00  0.00    +0.000 A 
ATOM     10  C   UNL     1     -26.856  60.509 -27.716  0.00  0.00    +0.000 A 
ATOM     11  C   UNL     1     -28.579  60.980 -26.095  0.00  0.00    +0.000 A 
ATOM     12  C   UNL     1     -27.235  60.781 -26.404  0.00  0.00    +0.000 A 
ENDROOT
BRANCH   7  13
ATOM     13  O   UNL     1     -30.757  60.313 -31.798  0.00  0.00    +0.000 OA
ATOM     14  C   UNL     1     -30.813  61.564 -32.438  0.00  0.00    +0.000 C 
ENDBRANCH   7  13
BRANCH   8  15
ATOM     15  O   UNL     1     -28.010  59.699 -32.399  0.00  0.00    +0.000 OA
ATOM     16  C   UNL     1     -28.280  58.343 -32.663  0.00  0.00    +0.000 C 
ENDBRANCH   8  15
TORSDOF 2
ENDMDL
MODEL 7
REMARK VINA RESULT:      -4.3     24.531     25.207
REMARK  Name = 3136_Dimethoxy.pdbqt.pdb
REMARK  2 active torsions:
REMARK  status: ('A' for Active; 'I' for Inactive)
REMARK    1  A    between atoms: C_7  and  O_13
REMARK    2  A    between atoms: C_8  and  O_15
REMARK                            x       y       z     vdW  Elec       q    Type
REMARK                         _______ _______ _______ _____ _____    ______ ____
ROOT
ATOM      1  O   UNL     1     -33.103  49.485   9.111  0.00  0.00    +0.000 OA
ATOM      2  O   UNL     1     -30.029  53.290   6.996  0.00  0.00    +0.000 OA
ATOM      3  C   UNL     1     -30.995  50.091   8.300  0.00  0.00    +0.000 A 
ATOM      4  C   UNL     1     -30.202  51.074   7.726  0.00  0.00    +0.000 A 
ATOM      5  C   UNL     1     -32.392  50.369   8.652  0.00  0.00    +0.000 C 
ATOM      6  C   UNL     1     -30.744  52.410   7.453  0.00  0.00    +0.000 C 
ATOM      7  C   UNL     1     -32.913  51.738   8.416  0.00  0.00    +0.000 C 
ATOM      8  C   UNL     1     -32.172  52.660   7.768  0.00  0.00    +0.000 C 
ATOM      9  C   UNL     1     -30.468  48.824   8.548  0.00  0.00    +0.000 A 
ATOM     10  C   UNL     1     -28.873  50.800   7.401  0.00  0.00    +0.000 A 
ATOM     11  C   UNL     1     -29.142  48.547   8.223  0.00  0.00    +0.000 A 
ATOM     12  C   UNL     1     -28.344  49.535   7.650  0.00  0.00    +0.000 A 
ENDROOT
BRANCH   7  13
ATOM     13  O   UNL     1     -34.221  51.948   8.814  0.00  0.00    +0.000 OA
ATOM     14  C   UNL     1     -35.084  51.760   7.718  0.00  0.00    +0.000 C 
ENDBRANCH   7  13
BRANCH   8  15
ATOM     15  O   UNL     1     -32.636  53.922   7.442  0.00  0.00    +0.000 OA
ATOM     16  C   UNL     1     -32.558  54.761   8.569  0.00  0.00    +0.000 C 
ENDBRANCH   8  15
TORSDOF 2
ENDMDL
MODEL 8
REMARK VINA RESULT:      -4.2     20.338     20.896
REMARK  Name = 3136_Dimethoxy.pdbqt.pdb
REMARK  2 active torsions:
REMARK  status: ('A' for Active; 'I' for Inactive)
REMARK    1  A    between atoms: C_7  and  O_13
REMARK    2  A    between atoms: C_8  and  O_15
REMARK                            x       y       z     vdW  Elec       q    Type
REMARK                         _______ _______ _______ _____ _____    ______ ____
ROOT
ATOM      1  O   UNL     1     -15.286  58.534 -18.980  0.00  0.00    +0.000 OA
ATOM      2  O   UNL     1     -15.359  53.698 -21.220  0.00  0.00    +0.000 OA
ATOM      3  C   UNL     1     -15.872  57.227 -20.829  0.00  0.00    +0.000 A 
ATOM      4  C   UNL     1     -15.868  55.972 -21.422  0.00  0.00    +0.000 A 
ATOM      5  C   UNL     1     -15.327  57.417 -19.480  0.00  0.00    +0.000 C 
ATOM      6  C   UNL     1     -15.314  54.812 -20.716  0.00  0.00    +0.000 C 
ATOM      7  C   UNL     1     -14.816  56.226 -18.758  0.00  0.00    +0.000 C 
ATOM      8  C   UNL     1     -14.721  55.030 -19.373  0.00  0.00    +0.000 C 
ATOM      9  C   UNL     1     -16.397  58.322 -21.514  0.00  0.00    +0.000 A 
ATOM     10  C   UNL     1     -16.395  55.803 -22.703  0.00  0.00    +0.000 A 
ATOM     11  C   UNL     1     -16.921  58.155 -22.793  0.00  0.00    +0.000 A 
ATOM     12  C   UNL     1     -16.921  56.896 -23.388  0.00  0.00    +0.000 A 
ENDROOT
BRANCH   7  13
ATOM     13  O   UNL     1     -14.361  56.464 -17.474  0.00  0.00    +0.000 OA
ATOM     14  C   UNL     1     -15.362  56.124 -16.547  0.00  0.00    +0.000 C 
ENDBRANCH   7  13
BRANCH   8  15
ATOM     15  O   UNL     1     -14.171  53.907 -18.782  0.00  0.00    +0.000 OA
ATOM     16  C   UNL     1     -12.771  53.936 -18.923  0.00  0.00    +0.000 C 
ENDBRANCH   8  15
TORSDOF 2
ENDMDL
MODEL 9
REMARK VINA RESULT:      -4.2      2.322      5.490
REMARK  Name = 3136_Dimethoxy.pdbqt.pdb
REMARK  2 active torsions:
REMARK  status: ('A' for Active; 'I' for Inactive)
REMARK    1  A    between atoms: C_7  and  O_13
REMARK    2  A    between atoms: C_8  and  O_15
REMARK                            x       y       z     vdW  Elec       q    Type
REMARK                         _______ _______ _______ _____ _____    ______ ____
ROOT
ATOM      1  O   UNL     1     -32.897  42.399 -15.033  0.00  0.00    +0.000 OA
ATOM      2  O   UNL     1     -29.922  45.071 -18.556  0.00  0.00    +0.000 OA
ATOM      3  C   UNL     1     -30.923  42.482 -16.284  0.00  0.00    +0.000 A 
ATOM      4  C   UNL     1     -30.160  43.166 -17.220  0.00  0.00    +0.000 A 
ATOM      5  C   UNL     1     -32.203  43.029 -15.820  0.00  0.00    +0.000 C 
ATOM      6  C   UNL     1     -30.620  44.446 -17.770  0.00  0.00    +0.000 C 
ATOM      7  C   UNL     1     -32.632  44.347 -16.347  0.00  0.00    +0.000 C 
ATOM      8  C   UNL     1     -31.940  44.960 -17.329  0.00  0.00    +0.000 C 
ATOM      9  C   UNL     1     -30.476  41.264 -15.774  0.00  0.00    +0.000 A 
ATOM     10  C   UNL     1     -28.942  42.639 -17.649  0.00  0.00    +0.000 A 
ATOM     11  C   UNL     1     -29.261  40.735 -16.202  0.00  0.00    +0.000 A 
ATOM     12  C   UNL     1     -28.493  41.422 -17.139  0.00  0.00    +0.000 A 
ENDROOT
BRANCH   7  13
ATOM     13  O   UNL     1     -33.823  44.829 -15.835  0.00  0.00    +0.000 OA
ATOM     14  C   UNL     1     -33.556  45.746 -14.801  0.00  0.00    +0.000 C 
ENDBRANCH   7  13
BRANCH   8  15
ATOM     15  O   UNL     1     -32.340  46.145 -17.921  0.00  0.00    +0.000 OA
ATOM     16  C   UNL     1     -33.276  45.874 -18.937  0.00  0.00    +0.000 C 
ENDBRANCH   8  15
TORSDOF 2
ENDMDL
