MODEL 1
REMARK VINA RESULT:      -4.5      0.000      0.000
REMARK  Name = 326_Cuminaldehyde.pdb
REMARK  1 active torsions:
REMARK  status: ('A' for Active; 'I' for Inactive)
REMARK    1  A    between atoms: C_1  and  C_7
REMARK                            x       y       z     vdW  Elec       q    Type
REMARK                         _______ _______ _______ _____ _____    ______ ____
ROOT
ATOM      1  C   UNL     1     -35.431  46.288  -7.913  0.00  0.00    +0.000 C 
ATOM      2  C   UNL     1     -35.974  45.514  -6.885  0.00  0.00    +0.000 C 
ATOM      3  C   UNL     1     -34.053  46.512  -7.949  0.00  0.00    +0.000 C 
ATOM      4  C   UNL     1     -35.148  44.968  -5.904  0.00  0.00    +0.000 C 
ATOM      5  C   UNL     1     -33.225  45.968  -6.968  0.00  0.00    +0.000 C 
ATOM      6  C   UNL     1     -33.775  45.196  -5.947  0.00  0.00    +0.000 C 
ATOM      7  O   UNL     1     -32.232  44.179  -4.115  0.00  0.00    +0.000 OA
ATOM      8  C   UNL     1     -32.929  44.639  -4.943  0.00  0.00    +0.000 C 
ENDROOT
BRANCH   1   9
ATOM      9  C   UNL     1     -36.297  46.859  -8.941  0.00  0.00    +0.000 C 
ATOM     10  C   UNL     1     -36.261  46.364 -10.365  0.00  0.00    +0.000 C 
ATOM     11  C   UNL     1     -37.267  47.969  -8.625  0.00  0.00    +0.000 C 
ENDBRANCH   1   9
TORSDOF 1
ENDMDL
MODEL 2
REMARK VINA RESULT:      -4.4      1.081      2.171
REMARK  Name = 326_Cuminaldehyde.pdb
REMARK  1 active torsions:
REMARK  status: ('A' for Active; 'I' for Inactive)
REMARK    1  A    between atoms: C_1  and  C_7
REMARK                            x       y       z     vdW  Elec       q    Type
REMARK                         _______ _______ _______ _____ _____    ______ ____
ROOT
ATOM      1  C   UNL     1     -34.543  45.484  -7.563  0.00  0.00    +0.000 C 
ATOM      2  C   UNL     1     -33.369  46.090  -7.110  0.00  0.00    +0.000 C 
ATOM      3  C   UNL     1     -35.035  44.357  -6.899  0.00  0.00    +0.000 C 
ATOM      4  C   UNL     1     -32.694  45.576  -6.004  0.00  0.00    +0.000 C 
ATOM      5  C   UNL     1     -34.361  43.842  -5.794  0.00  0.00    +0.000 C 
ATOM      6  C   UNL     1     -33.190  44.453  -5.348  0.00  0.00    +0.000 C 
ATOM      7  O   UNL     1     -31.930  43.491  -3.284  0.00  0.00    +0.000 OA
ATOM      8  C   UNL     1     -32.500  43.925  -4.217  0.00  0.00    +0.000 C 
ENDROOT
BRANCH   1   9
ATOM      9  C   UNL     1     -35.250  46.024  -8.720  0.00  0.00    +0.000 C 
ATOM     10  C   UNL     1     -36.232  47.161  -8.585  0.00  0.00    +0.000 C 
ATOM     11  C   UNL     1     -35.032  45.468 -10.105  0.00  0.00    +0.000 C 
ENDBRANCH   1   9
TORSDOF 1
ENDMDL
MODEL 3
REMARK VINA RESULT:      -4.4     25.492     26.202
REMARK  Name = 326_Cuminaldehyde.pdb
REMARK  1 active torsions:
REMARK  status: ('A' for Active; 'I' for Inactive)
REMARK    1  A    between atoms: C_1  and  C_7
REMARK                            x       y       z     vdW  Elec       q    Type
REMARK                         _______ _______ _______ _____ _____    ______ ____
ROOT
ATOM      1  C   UNL     1     -15.914  54.616 -23.172  0.00  0.00    +0.000 C 
ATOM      2  C   UNL     1     -15.511  54.447 -21.845  0.00  0.00    +0.000 C 
ATOM      3  C   UNL     1     -16.539  55.806 -23.554  0.00  0.00    +0.000 C 
ATOM      4  C   UNL     1     -15.728  55.457 -20.910  0.00  0.00    +0.000 C 
ATOM      5  C   UNL     1     -16.758  56.817 -22.619  0.00  0.00    +0.000 C 
ATOM      6  C   UNL     1     -16.352  56.640 -21.298  0.00  0.00    +0.000 C 
ATOM      7  O   UNL     1     -16.760  58.527 -19.553  0.00  0.00    +0.000 OA
ATOM      8  C   UNL     1     -16.575  57.674 -20.342  0.00  0.00    +0.000 C 
ENDROOT
BRANCH   1   9
ATOM      9  C   UNL     1     -15.686  53.558 -24.151  0.00  0.00    +0.000 C 
ATOM     10  C   UNL     1     -16.017  53.749 -25.610  0.00  0.00    +0.000 C 
ATOM     11  C   UNL     1     -15.107  52.224 -23.749  0.00  0.00    +0.000 C 
ENDBRANCH   1   9
TORSDOF 1
ENDMDL
MODEL 4
REMARK VINA RESULT:      -4.3     25.537     26.265
REMARK  Name = 326_Cuminaldehyde.pdb
REMARK  1 active torsions:
REMARK  status: ('A' for Active; 'I' for Inactive)
REMARK    1  A    between atoms: C_1  and  C_7
REMARK                            x       y       z     vdW  Elec       q    Type
REMARK                         _______ _______ _______ _____ _____    ______ ____
ROOT
ATOM      1  C   UNL     1     -15.929  54.635 -23.279  0.00  0.00    +0.000 C 
ATOM      2  C   UNL     1     -16.554  55.829 -23.649  0.00  0.00    +0.000 C 
ATOM      3  C   UNL     1     -15.519  54.455 -21.956  0.00  0.00    +0.000 C 
ATOM      4  C   UNL     1     -16.768  56.832 -22.704  0.00  0.00    +0.000 C 
ATOM      5  C   UNL     1     -15.732  55.458 -21.011  0.00  0.00    +0.000 C 
ATOM      6  C   UNL     1     -16.356  56.645 -21.387  0.00  0.00    +0.000 C 
ATOM      7  O   UNL     1     -16.753  58.517 -19.624  0.00  0.00    +0.000 OA
ATOM      8  C   UNL     1     -16.573  57.671 -20.421  0.00  0.00    +0.000 C 
ENDROOT
BRANCH   1   9
ATOM      9  C   UNL     1     -15.707  53.585 -24.269  0.00  0.00    +0.000 C 
ATOM     10  C   UNL     1     -16.048  53.788 -25.724  0.00  0.00    +0.000 C 
ATOM     11  C   UNL     1     -15.124  52.249 -23.881  0.00  0.00    +0.000 C 
ENDBRANCH   1   9
TORSDOF 1
ENDMDL
MODEL 5
REMARK VINA RESULT:      -4.3     25.675     26.712
REMARK  Name = 326_Cuminaldehyde.pdb
REMARK  1 active torsions:
REMARK  status: ('A' for Active; 'I' for Inactive)
REMARK    1  A    between atoms: C_1  and  C_7
REMARK                            x       y       z     vdW  Elec       q    Type
REMARK                         _______ _______ _______ _____ _____    ______ ____
ROOT
ATOM      1  C   UNL     1     -16.732  55.880 -24.841  0.00  0.00    +0.000 C 
ATOM      2  C   UNL     1     -16.108  54.643 -24.657  0.00  0.00    +0.000 C 
ATOM      3  C   UNL     1     -16.942  56.714 -23.740  0.00  0.00    +0.000 C 
ATOM      4  C   UNL     1     -15.697  54.246 -23.386  0.00  0.00    +0.000 C 
ATOM      5  C   UNL     1     -16.532  56.317 -22.468  0.00  0.00    +0.000 C 
ATOM      6  C   UNL     1     -15.910  55.082 -22.293  0.00  0.00    +0.000 C 
ATOM      7  O   UNL     1     -15.145  54.340 -19.919  0.00  0.00    +0.000 OA
ATOM      8  C   UNL     1     -15.491  54.676 -20.992  0.00  0.00    +0.000 C 
ENDROOT
BRANCH   1   9
ATOM      9  C   UNL     1     -17.161  56.296 -26.172  0.00  0.00    +0.000 C 
ATOM     10  C   UNL     1     -16.925  57.699 -26.674  0.00  0.00    +0.000 C 
ATOM     11  C   UNL     1     -17.860  55.343 -27.108  0.00  0.00    +0.000 C 
ENDBRANCH   1   9
TORSDOF 1
ENDMDL
MODEL 6
REMARK VINA RESULT:      -4.2     25.816     26.775
REMARK  Name = 326_Cuminaldehyde.pdb
REMARK  1 active torsions:
REMARK  status: ('A' for Active; 'I' for Inactive)
REMARK    1  A    between atoms: C_1  and  C_7
REMARK                            x       y       z     vdW  Elec       q    Type
REMARK                         _______ _______ _______ _____ _____    ______ ____
ROOT
ATOM      1  C   UNL     1     -16.169  55.069 -23.406  0.00  0.00    +0.000 C 
ATOM      2  C   UNL     1     -16.328  54.860 -24.778  0.00  0.00    +0.000 C 
ATOM      3  C   UNL     1     -15.605  54.063 -22.618  0.00  0.00    +0.000 C 
ATOM      4  C   UNL     1     -15.926  53.657 -25.357  0.00  0.00    +0.000 C 
ATOM      5  C   UNL     1     -15.204  52.859 -23.196  0.00  0.00    +0.000 C 
ATOM      6  C   UNL     1     -15.366  52.658 -24.565  0.00  0.00    +0.000 C 
ATOM      7  O   UNL     1     -14.617  50.411 -25.643  0.00  0.00    +0.000 OA
ATOM      8  C   UNL     1     -14.955  51.427 -25.156  0.00  0.00    +0.000 C 
ENDROOT
BRANCH   1   9
ATOM      9  C   UNL     1     -16.589  56.330 -22.801  0.00  0.00    +0.000 C 
ATOM     10  C   UNL     1     -17.128  57.464 -23.636  0.00  0.00    +0.000 C 
ATOM     11  C   UNL     1     -16.503  56.555 -21.312  0.00  0.00    +0.000 C 
ENDBRANCH   1   9
TORSDOF 1
ENDMDL
MODEL 7
REMARK VINA RESULT:      -4.2     24.292     26.042
REMARK  Name = 326_Cuminaldehyde.pdb
REMARK  1 active torsions:
REMARK  status: ('A' for Active; 'I' for Inactive)
REMARK    1  A    between atoms: C_1  and  C_7
REMARK                            x       y       z     vdW  Elec       q    Type
REMARK                         _______ _______ _______ _____ _____    ______ ____
ROOT
ATOM      1  C   UNL     1     -28.607  61.440 -25.771  0.00  0.00    +0.000 C 
ATOM      2  C   UNL     1     -27.218  61.510 -25.909  0.00  0.00    +0.000 C 
ATOM      3  C   UNL     1     -29.383  61.006 -26.848  0.00  0.00    +0.000 C 
ATOM      4  C   UNL     1     -26.612  61.149 -27.111  0.00  0.00    +0.000 C 
ATOM      5  C   UNL     1     -28.778  60.645 -28.051  0.00  0.00    +0.000 C 
ATOM      6  C   UNL     1     -27.392  60.717 -28.180  0.00  0.00    +0.000 C 
ATOM      7  O   UNL     1     -26.262  60.043 -30.425  0.00  0.00    +0.000 OA
ATOM      8  C   UNL     1     -26.773  60.348 -29.411  0.00  0.00    +0.000 C 
ENDROOT
BRANCH   1   9
ATOM      9  C   UNL     1     -29.241  61.818 -24.512  0.00  0.00    +0.000 C 
ATOM     10  C   UNL     1     -28.445  62.409 -23.375  0.00  0.00    +0.000 C 
ATOM     11  C   UNL     1     -30.721  61.634 -24.290  0.00  0.00    +0.000 C 
ENDBRANCH   1   9
TORSDOF 1
ENDMDL
MODEL 8
REMARK VINA RESULT:      -4.2     21.014     22.339
REMARK  Name = 326_Cuminaldehyde.pdb
REMARK  1 active torsions:
REMARK  status: ('A' for Active; 'I' for Inactive)
REMARK    1  A    between atoms: C_1  and  C_7
REMARK                            x       y       z     vdW  Elec       q    Type
REMARK                         _______ _______ _______ _____ _____    ______ ____
ROOT
ATOM      1  C   UNL     1     -16.834  50.127   4.252  0.00  0.00    +0.000 C 
ATOM      2  C   UNL     1     -16.471  49.012   5.011  0.00  0.00    +0.000 C 
ATOM      3  C   UNL     1     -17.290  51.279   4.898  0.00  0.00    +0.000 C 
ATOM      4  C   UNL     1     -16.561  49.049   6.402  0.00  0.00    +0.000 C 
ATOM      5  C   UNL     1     -17.381  51.317   6.288  0.00  0.00    +0.000 C 
ATOM      6  C   UNL     1     -17.016  50.200   7.039  0.00  0.00    +0.000 C 
ATOM      7  O   UNL     1     -17.186  50.270   9.634  0.00  0.00    +0.000 OA
ATOM      8  C   UNL     1     -17.109  50.239   8.461  0.00  0.00    +0.000 C 
ENDROOT
BRANCH   1   9
ATOM      9  C   UNL     1     -16.739  50.088   2.796  0.00  0.00    +0.000 C 
ATOM     10  C   UNL     1     -16.218  48.871   2.073  0.00  0.00    +0.000 C 
ATOM     11  C   UNL     1     -17.157  51.263   1.948  0.00  0.00    +0.000 C 
ENDBRANCH   1   9
TORSDOF 1
ENDMDL
MODEL 9
REMARK VINA RESULT:      -4.1     26.020     27.281
REMARK  Name = 326_Cuminaldehyde.pdb
REMARK  1 active torsions:
REMARK  status: ('A' for Active; 'I' for Inactive)
REMARK    1  A    between atoms: C_1  and  C_7
REMARK                            x       y       z     vdW  Elec       q    Type
REMARK                         _______ _______ _______ _____ _____    ______ ____
ROOT
ATOM      1  C   UNL     1     -16.354  55.735 -23.146  0.00  0.00    +0.000 C 
ATOM      2  C   UNL     1     -16.912  56.816 -23.833  0.00  0.00    +0.000 C 
ATOM      3  C   UNL     1     -16.012  54.577 -23.848  0.00  0.00    +0.000 C 
ATOM      4  C   UNL     1     -17.124  56.739 -25.209  0.00  0.00    +0.000 C 
ATOM      5  C   UNL     1     -16.225  54.499 -25.223  0.00  0.00    +0.000 C 
ATOM      6  C   UNL     1     -16.781  55.582 -25.902  0.00  0.00    +0.000 C 
ATOM      7  O   UNL     1     -17.178  55.438 -28.470  0.00  0.00    +0.000 OA
ATOM      8  C   UNL     1     -16.998  55.503 -27.309  0.00  0.00    +0.000 C 
ENDROOT
BRANCH   1   9
ATOM      9  C   UNL     1     -16.131  55.815 -21.705  0.00  0.00    +0.000 C 
ATOM     10  C   UNL     1     -16.532  57.035 -20.913  0.00  0.00    +0.000 C 
ATOM     11  C   UNL     1     -15.491  54.683 -20.943  0.00  0.00    +0.000 C 
ENDBRANCH   1   9
TORSDOF 1
ENDMDL
