MODEL 1
REMARK VINA RESULT:      -4.5      0.000      0.000
REMARK  Name = 3363_5FluorouracilDeoxyriboside.pdbqt.pdb
REMARK  4 active torsions:
REMARK  status: ('A' for Active; 'I' for Inactive)
REMARK    1  A    between atoms: N_4  and  C1*_13
REMARK    2  A    between atoms: C3*_12  and  O3*_16
REMARK    3  A    between atoms: C4*_15  and  C5*_18
REMARK    4  A    between atoms: C5*_18  and  O5*_19
REMARK                            x       y       z     vdW  Elec       q    Type
REMARK                         _______ _______ _______ _____ _____    ______ ____
ROOT
ATOM      1  F   UNL     1     -25.091  37.008   4.311  0.00  0.00    +0.000 F 
ATOM      2  O   UNL     1     -25.357  42.431   4.157  0.00  0.00    +0.000 OA
ATOM      3  O   UNL     1     -25.960  38.416   2.017  0.00  0.00    +0.000 OA
ATOM      4  N   UNL     1     -25.097  40.447   5.428  0.00  0.00    +0.000 N 
ATOM      5  N   UNL     1     -25.726  40.400   3.164  0.00  0.00    +0.000 N 
ATOM      6  C   UNL     1     -25.384  41.212   4.273  0.00  0.00    +0.000 C 
ATOM      7  C   UNL     1     -25.187  39.106   5.317  0.00  0.00    +0.000 C 
ATOM      8  C   UNL     1     -25.487  38.290   4.364  0.00  0.00    +0.000 C 
ATOM      9  C   UNL     1     -25.753  39.002   3.073  0.00  0.00    +0.000 C 
ATOM     10  H   UNL     1     -25.900  40.901   2.304  0.00  0.00    +0.000 HD
ENDROOT
BRANCH   4  13
ATOM     11  O4* UNL     1     -23.462  41.543   6.835  0.00  0.00    +0.000 OA
ATOM     12  C3* UNL     1     -24.700  41.728   8.785  0.00  0.00    +0.000 A 
ATOM     13  C1* UNL     1     -24.731  40.986   6.629  0.00  0.00    +0.000 A 
ATOM     14  C2* UNL     1     -25.493  41.102   7.807  0.00  0.00    +0.000 A 
ATOM     15  C4* UNL     1     -23.431  42.003   8.157  0.00  0.00    +0.000 A 
BRANCH  12  16
ATOM     16  O3* UNL     1     -25.209  42.527   9.771  0.00  0.00    +0.000 OA
ATOM     17  H3* UNL     1     -26.175  42.631   9.697  0.00  0.00    +0.000 HD
ENDBRANCH  12  16
BRANCH  15  18
ATOM     18  C5* UNL     1     -22.380  42.798   8.657  0.00  0.00    +0.000 C 
BRANCH  18  19
ATOM     19  O5* UNL     1     -21.394  43.562   9.114  0.00  0.00    +0.000 OA
ATOM     20  H5* UNL     1     -20.529  43.165   8.909  0.00  0.00    +0.000 HD
ENDBRANCH  18  19
ENDBRANCH  15  18
ENDBRANCH   4  13
TORSDOF 4
ENDMDL
MODEL 2
REMARK VINA RESULT:      -4.5     19.164     21.700
REMARK  Name = 3363_5FluorouracilDeoxyriboside.pdbqt.pdb
REMARK  4 active torsions:
REMARK  status: ('A' for Active; 'I' for Inactive)
REMARK    1  A    between atoms: N_4  and  C1*_13
REMARK    2  A    between atoms: C3*_12  and  O3*_16
REMARK    3  A    between atoms: C4*_15  and  C5*_18
REMARK    4  A    between atoms: C5*_18  and  O5*_19
REMARK                            x       y       z     vdW  Elec       q    Type
REMARK                         _______ _______ _______ _____ _____    ______ ____
ROOT
ATOM      1  F   UNL     1     -31.221  43.585 -16.230  0.00  0.00    +0.000 F 
ATOM      2  O   UNL     1     -34.438  47.508 -14.288  0.00  0.00    +0.000 OA
ATOM      3  O   UNL     1     -32.114  45.740 -17.829  0.00  0.00    +0.000 OA
ATOM      4  N   UNL     1     -33.441  45.375 -14.007  0.00  0.00    +0.000 N 
ATOM      5  N   UNL     1     -33.335  46.539 -16.047  0.00  0.00    +0.000 N 
ATOM      6  C   UNL     1     -33.804  46.548 -14.711  0.00  0.00    +0.000 C 
ATOM      7  C   UNL     1     -32.730  44.448 -14.681  0.00  0.00    +0.000 C 
ATOM      8  C   UNL     1     -32.267  44.352 -15.881  0.00  0.00    +0.000 C 
ATOM      9  C   UNL     1     -32.548  45.578 -16.696  0.00  0.00    +0.000 C 
ATOM     10  H   UNL     1     -33.535  47.374 -16.577  0.00  0.00    +0.000 HD
ENDROOT
BRANCH   4  13
ATOM     11  O4* UNL     1     -32.826  44.627 -11.790  0.00  0.00    +0.000 OA
ATOM     12  C3* UNL     1     -34.840  44.973 -10.698  0.00  0.00    +0.000 A 
ATOM     13  C1* UNL     1     -33.760  45.139 -12.700  0.00  0.00    +0.000 A 
ATOM     14  C2* UNL     1     -34.985  45.361 -12.042  0.00  0.00    +0.000 A 
ATOM     15  C4* UNL     1     -33.478  44.520 -10.556  0.00  0.00    +0.000 A 
BRANCH  12  16
ATOM     16  O3* UNL     1     -35.521  45.557  -9.667  0.00  0.00    +0.000 OA
ATOM     17  H3* UNL     1     -35.005  45.558  -8.840  0.00  0.00    +0.000 HD
ENDBRANCH  12  16
BRANCH  15  18
ATOM     18  C5* UNL     1     -32.792  44.224  -9.361  0.00  0.00    +0.000 C 
BRANCH  18  19
ATOM     19  O5* UNL     1     -32.162  43.952  -8.224  0.00  0.00    +0.000 OA
ATOM     20  H5* UNL     1     -31.685  43.107  -8.289  0.00  0.00    +0.000 HD
ENDBRANCH  18  19
ENDBRANCH  15  18
ENDBRANCH   4  13
TORSDOF 4
ENDMDL
MODEL 3
REMARK VINA RESULT:      -4.4     23.580     26.328
REMARK  Name = 3363_5FluorouracilDeoxyriboside.pdbqt.pdb
REMARK  4 active torsions:
REMARK  status: ('A' for Active; 'I' for Inactive)
REMARK    1  A    between atoms: N_4  and  C1*_13
REMARK    2  A    between atoms: C3*_12  and  O3*_16
REMARK    3  A    between atoms: C4*_15  and  C5*_18
REMARK    4  A    between atoms: C5*_18  and  O5*_19
REMARK                            x       y       z     vdW  Elec       q    Type
REMARK                         _______ _______ _______ _____ _____    ______ ____
ROOT
ATOM      1  F   UNL     1     -32.268  44.208 -17.117  0.00  0.00    +0.000 F 
ATOM      2  O   UNL     1     -34.859  48.220 -14.528  0.00  0.00    +0.000 OA
ATOM      3  O   UNL     1     -32.382  44.363 -14.295  0.00  0.00    +0.000 OA
ATOM      4  N   UNL     1     -33.984  47.340 -16.548  0.00  0.00    +0.000 N 
ATOM      5  N   UNL     1     -33.547  46.343 -14.464  0.00  0.00    +0.000 N 
ATOM      6  C   UNL     1     -34.198  47.397 -15.150  0.00  0.00    +0.000 C 
ATOM      7  C   UNL     1     -33.219  46.332 -17.012  0.00  0.00    +0.000 C 
ATOM      8  C   UNL     1     -32.592  45.342 -16.473  0.00  0.00    +0.000 C 
ATOM      9  C   UNL     1     -32.804  45.278 -14.991  0.00  0.00    +0.000 C 
ATOM     10  H   UNL     1     -33.704  46.319 -13.467  0.00  0.00    +0.000 HD
ENDROOT
BRANCH   4  13
ATOM     11  O4* UNL     1     -35.649  48.992 -17.141  0.00  0.00    +0.000 OA
ATOM     12  C3* UNL     1     -34.904  49.537 -19.267  0.00  0.00    +0.000 A 
ATOM     13  C1* UNL     1     -34.510  48.233 -17.438  0.00  0.00    +0.000 A 
ATOM     14  C2* UNL     1     -34.045  48.565 -18.725  0.00  0.00    +0.000 A 
ATOM     15  C4* UNL     1     -35.902  49.798 -18.258  0.00  0.00    +0.000 A 
BRANCH  12  16
ATOM     16  O3* UNL     1     -34.495  50.500 -20.146  0.00  0.00    +0.000 OA
ATOM     17  H3* UNL     1     -34.833  50.343 -21.046  0.00  0.00    +0.000 HD
ENDBRANCH  12  16
BRANCH  15  18
ATOM     18  C5* UNL     1     -36.857  50.833 -18.243  0.00  0.00    +0.000 C 
BRANCH  18  19
ATOM     19  O5* UNL     1     -37.743  51.823 -18.222  0.00  0.00    +0.000 OA
ATOM     20  H5* UNL     1     -38.647  51.477 -18.311  0.00  0.00    +0.000 HD
ENDBRANCH  18  19
ENDBRANCH  15  18
ENDBRANCH   4  13
TORSDOF 4
ENDMDL
MODEL 4
REMARK VINA RESULT:      -4.4     23.919     24.900
REMARK  Name = 3363_5FluorouracilDeoxyriboside.pdbqt.pdb
REMARK  4 active torsions:
REMARK  status: ('A' for Active; 'I' for Inactive)
REMARK    1  A    between atoms: N_4  and  C1*_13
REMARK    2  A    between atoms: C3*_12  and  O3*_16
REMARK    3  A    between atoms: C4*_15  and  C5*_18
REMARK    4  A    between atoms: C5*_18  and  O5*_19
REMARK                            x       y       z     vdW  Elec       q    Type
REMARK                         _______ _______ _______ _____ _____    ______ ____
ROOT
ATOM      1  F   UNL     1     -30.721  40.298 -16.725  0.00  0.00    +0.000 F 
ATOM      2  O   UNL     1     -29.148  44.954 -19.038  0.00  0.00    +0.000 OA
ATOM      3  O   UNL     1     -28.362  40.498 -18.274  0.00  0.00    +0.000 OA
ATOM      4  N   UNL     1     -30.830  43.706 -17.928  0.00  0.00    +0.000 N 
ATOM      5  N   UNL     1     -28.847  42.708 -18.702  0.00  0.00    +0.000 N 
ATOM      6  C   UNL     1     -29.596  43.905 -18.591  0.00  0.00    +0.000 C 
ATOM      7  C   UNL     1     -31.111  42.454 -17.513  0.00  0.00    +0.000 C 
ATOM      8  C   UNL     1     -30.502  41.318 -17.570  0.00  0.00    +0.000 C 
ATOM      9  C   UNL     1     -29.150  41.433 -18.206  0.00  0.00    +0.000 C 
ATOM     10  H   UNL     1     -27.940  42.809 -19.133  0.00  0.00    +0.000 HD
ENDROOT
BRANCH   4  13
ATOM     11  O4* UNL     1     -32.123  45.043 -16.380  0.00  0.00    +0.000 OA
ATOM     12  C3* UNL     1     -33.228  46.411 -17.890  0.00  0.00    +0.000 A 
ATOM     13  C1* UNL     1     -31.734  44.700 -17.682  0.00  0.00    +0.000 A 
ATOM     14  C2* UNL     1     -32.395  45.533 -18.606  0.00  0.00    +0.000 A 
ATOM     15  C4* UNL     1     -33.041  46.093 -16.495  0.00  0.00    +0.000 A 
BRANCH  12  16
ATOM     16  O3* UNL     1     -33.531  47.675 -18.311  0.00  0.00    +0.000 OA
ATOM     17  H3* UNL     1     -33.197  47.853 -19.208  0.00  0.00    +0.000 HD
ENDBRANCH  12  16
BRANCH  15  18
ATOM     18  C5* UNL     1     -33.497  46.824 -15.380  0.00  0.00    +0.000 C 
BRANCH  18  19
ATOM     19  O5* UNL     1     -33.921  47.498 -14.316  0.00  0.00    +0.000 OA
ATOM     20  H5* UNL     1     -33.575  48.407 -14.325  0.00  0.00    +0.000 HD
ENDBRANCH  18  19
ENDBRANCH  15  18
ENDBRANCH   4  13
TORSDOF 4
ENDMDL
MODEL 5
REMARK VINA RESULT:      -4.3     23.300     25.460
REMARK  Name = 3363_5FluorouracilDeoxyriboside.pdbqt.pdb
REMARK  4 active torsions:
REMARK  status: ('A' for Active; 'I' for Inactive)
REMARK    1  A    between atoms: N_4  and  C1*_13
REMARK    2  A    between atoms: C3*_12  and  O3*_16
REMARK    3  A    between atoms: C4*_15  and  C5*_18
REMARK    4  A    between atoms: C5*_18  and  O5*_19
REMARK                            x       y       z     vdW  Elec       q    Type
REMARK                         _______ _______ _______ _____ _____    ______ ____
ROOT
ATOM      1  F   UNL     1     -32.767  41.476 -20.551  0.00  0.00    +0.000 F 
ATOM      2  O   UNL     1     -29.121  45.157 -18.915  0.00  0.00    +0.000 OA
ATOM      3  O   UNL     1     -30.498  42.152 -22.100  0.00  0.00    +0.000 OA
ATOM      4  N   UNL     1     -31.244  44.139 -18.636  0.00  0.00    +0.000 N 
ATOM      5  N   UNL     1     -29.897  43.711 -20.514  0.00  0.00    +0.000 N 
ATOM      6  C   UNL     1     -30.021  44.416 -19.293  0.00  0.00    +0.000 C 
ATOM      7  C   UNL     1     -32.087  43.279 -19.242  0.00  0.00    +0.000 C 
ATOM      8  C   UNL     1     -32.062  42.600 -20.338  0.00  0.00    +0.000 C 
ATOM      9  C   UNL     1     -30.775  42.779 -21.085  0.00  0.00    +0.000 C 
ATOM     10  H   UNL     1     -29.022  43.846 -21.000  0.00  0.00    +0.000 HD
ENDROOT
BRANCH   4  13
ATOM     11  O4* UNL     1     -32.484  45.770 -17.348  0.00  0.00    +0.000 OA
ATOM     12  C3* UNL     1     -31.848  45.132 -15.213  0.00  0.00    +0.000 A 
ATOM     13  C1* UNL     1     -31.606  44.681 -17.435  0.00  0.00    +0.000 A 
ATOM     14  C2* UNL     1     -31.221  44.282 -16.141  0.00  0.00    +0.000 A 
ATOM     15  C4* UNL     1     -32.641  46.056 -15.987  0.00  0.00    +0.000 A 
BRANCH  12  16
ATOM     16  O3* UNL     1     -32.216  44.738 -13.957  0.00  0.00    +0.000 OA
ATOM     17  H3* UNL     1     -31.703  45.193 -13.265  0.00  0.00    +0.000 HD
ENDBRANCH  12  16
BRANCH  15  18
ATOM     18  C5* UNL     1     -33.606  46.966 -15.512  0.00  0.00    +0.000 C 
BRANCH  18  19
ATOM     19  O5* UNL     1     -34.502  47.840 -15.066  0.00  0.00    +0.000 OA
ATOM     20  H5* UNL     1     -35.110  48.103 -15.780  0.00  0.00    +0.000 HD
ENDBRANCH  18  19
ENDBRANCH  15  18
ENDBRANCH   4  13
TORSDOF 4
ENDMDL
MODEL 6
REMARK VINA RESULT:      -4.2     24.985     26.326
REMARK  Name = 3363_5FluorouracilDeoxyriboside.pdbqt.pdb
REMARK  4 active torsions:
REMARK  status: ('A' for Active; 'I' for Inactive)
REMARK    1  A    between atoms: N_4  and  C1*_13
REMARK    2  A    between atoms: C3*_12  and  O3*_16
REMARK    3  A    between atoms: C4*_15  and  C5*_18
REMARK    4  A    between atoms: C5*_18  and  O5*_19
REMARK                            x       y       z     vdW  Elec       q    Type
REMARK                         _______ _______ _______ _____ _____    ______ ____
ROOT
ATOM      1  F   UNL     1     -39.645  63.698  -2.238  0.00  0.00    +0.000 F 
ATOM      2  O   UNL     1     -35.158  60.723  -1.510  0.00  0.00    +0.000 OA
ATOM      3  O   UNL     1     -38.600  63.137   0.331  0.00  0.00    +0.000 OA
ATOM      4  N   UNL     1     -36.872  61.491  -2.957  0.00  0.00    +0.000 N 
ATOM      5  N   UNL     1     -36.944  61.863  -0.637  0.00  0.00    +0.000 N 
ATOM      6  C   UNL     1     -36.222  61.296  -1.715  0.00  0.00    +0.000 C 
ATOM      7  C   UNL     1     -38.042  62.162  -2.940  0.00  0.00    +0.000 C 
ATOM      8  C   UNL     1     -38.766  62.705  -2.021  0.00  0.00    +0.000 C 
ATOM      9  C   UNL     1     -38.133  62.604  -0.668  0.00  0.00    +0.000 C 
ATOM     10  H   UNL     1     -36.498  61.783   0.266  0.00  0.00    +0.000 HD
ENDROOT
BRANCH   4  13
ATOM     11  O4* UNL     1     -35.434  61.785  -4.880  0.00  0.00    +0.000 OA
ATOM     12  C3* UNL     1     -35.933  59.836  -6.030  0.00  0.00    +0.000 A 
ATOM     13  C1* UNL     1     -36.381  61.052  -4.154  0.00  0.00    +0.000 A 
ATOM     14  C2* UNL     1     -36.684  59.861  -4.841  0.00  0.00    +0.000 A 
ATOM     15  C4* UNL     1     -35.150  61.048  -6.036  0.00  0.00    +0.000 A 
BRANCH  12  16
ATOM     16  O3* UNL     1     -35.489  58.685  -6.618  0.00  0.00    +0.000 OA
ATOM     17  H3* UNL     1     -35.888  57.891  -6.218  0.00  0.00    +0.000 HD
ENDBRANCH  12  16
BRANCH  15  18
ATOM     18  C5* UNL     1     -34.096  61.385  -6.908  0.00  0.00    +0.000 C 
BRANCH  18  19
ATOM     19  O5* UNL     1     -33.088  61.694  -7.717  0.00  0.00    +0.000 OA
ATOM     20  H5* UNL     1     -32.665  62.524  -7.436  0.00  0.00    +0.000 HD
ENDBRANCH  18  19
ENDBRANCH  15  18
ENDBRANCH   4  13
TORSDOF 4
ENDMDL
MODEL 7
REMARK VINA RESULT:      -4.1     24.385     27.273
REMARK  Name = 3363_5FluorouracilDeoxyriboside.pdbqt.pdb
REMARK  4 active torsions:
REMARK  status: ('A' for Active; 'I' for Inactive)
REMARK    1  A    between atoms: N_4  and  C1*_13
REMARK    2  A    between atoms: C3*_12  and  O3*_16
REMARK    3  A    between atoms: C4*_15  and  C5*_18
REMARK    4  A    between atoms: C5*_18  and  O5*_19
REMARK                            x       y       z     vdW  Elec       q    Type
REMARK                         _______ _______ _______ _____ _____    ______ ____
ROOT
ATOM      1  F   UNL     1     -35.682  48.071 -13.845  0.00  0.00    +0.000 F 
ATOM      2  O   UNL     1     -32.449  46.336 -17.851  0.00  0.00    +0.000 OA
ATOM      3  O   UNL     1     -33.906  45.893 -13.522  0.00  0.00    +0.000 OA
ATOM      4  N   UNL     1     -34.277  47.675 -17.154  0.00  0.00    +0.000 N 
ATOM      5  N   UNL     1     -33.273  46.100 -15.726  0.00  0.00    +0.000 N 
ATOM      6  C   UNL     1     -33.270  46.690 -17.013  0.00  0.00    +0.000 C 
ATOM      7  C   UNL     1     -35.067  47.903 -16.085  0.00  0.00    +0.000 C 
ATOM      8  C   UNL     1     -35.145  47.421 -14.891  0.00  0.00    +0.000 C 
ATOM      9  C   UNL     1     -34.078  46.405 -14.621  0.00  0.00    +0.000 C 
ATOM     10  H   UNL     1     -32.545  45.418 -15.566  0.00  0.00    +0.000 HD
ENDROOT
BRANCH   4  13
ATOM     11  O4* UNL     1     -34.325  47.843 -19.567  0.00  0.00    +0.000 OA
ATOM     12  C3* UNL     1     -34.963  50.060 -19.782  0.00  0.00    +0.000 A 
ATOM     13  C1* UNL     1     -34.481  48.402 -18.292  0.00  0.00    +0.000 A 
ATOM     14  C2* UNL     1     -34.877  49.748 -18.414  0.00  0.00    +0.000 A 
ATOM     15  C4* UNL     1     -34.619  48.852 -20.492  0.00  0.00    +0.000 A 
BRANCH  12  16
ATOM     16  O3* UNL     1     -35.839  50.975 -20.294  0.00  0.00    +0.000 OA
ATOM     17  H3* UNL     1     -35.641  51.881 -19.994  0.00  0.00    +0.000 HD
ENDBRANCH  12  16
BRANCH  15  18
ATOM     18  C5* UNL     1     -34.755  48.598 -21.871  0.00  0.00    +0.000 C 
BRANCH  18  19
ATOM     19  O5* UNL     1     -34.905  48.363 -23.170  0.00  0.00    +0.000 OA
ATOM     20  H5* UNL     1     -34.430  49.030 -23.696  0.00  0.00    +0.000 HD
ENDBRANCH  18  19
ENDBRANCH  15  18
ENDBRANCH   4  13
TORSDOF 4
ENDMDL
MODEL 8
REMARK VINA RESULT:      -4.0     39.016     40.947
REMARK  Name = 3363_5FluorouracilDeoxyriboside.pdbqt.pdb
REMARK  4 active torsions:
REMARK  status: ('A' for Active; 'I' for Inactive)
REMARK    1  A    between atoms: N_4  and  C1*_13
REMARK    2  A    between atoms: C3*_12  and  O3*_16
REMARK    3  A    between atoms: C4*_15  and  C5*_18
REMARK    4  A    between atoms: C5*_18  and  O5*_19
REMARK                            x       y       z     vdW  Elec       q    Type
REMARK                         _______ _______ _______ _____ _____    ______ ____
ROOT
ATOM      1  F   UNL     1     -29.274  62.065 -33.173  0.00  0.00    +0.000 F 
ATOM      2  O   UNL     1     -26.434  59.799 -29.135  0.00  0.00    +0.000 OA
ATOM      3  O   UNL     1     -26.487  61.615 -33.349  0.00  0.00    +0.000 OA
ATOM      4  N   UNL     1     -28.453  60.784 -29.892  0.00  0.00    +0.000 N 
ATOM      5  N   UNL     1     -26.497  60.794 -31.198  0.00  0.00    +0.000 N 
ATOM      6  C   UNL     1     -27.092  60.403 -29.973  0.00  0.00    +0.000 C 
ATOM      7  C   UNL     1     -28.971  61.441 -30.950  0.00  0.00    +0.000 C 
ATOM      8  C   UNL     1     -28.514  61.837 -32.089  0.00  0.00    +0.000 C 
ATOM      9  C   UNL     1     -27.088  61.428 -32.299  0.00  0.00    +0.000 C 
ATOM     10  H   UNL     1     -25.536  60.508 -31.317  0.00  0.00    +0.000 HD
ENDROOT
BRANCH   4  13
ATOM     11  O4* UNL     1     -28.858  60.788 -27.507  0.00  0.00    +0.000 OA
ATOM     12  C3* UNL     1     -30.993  59.889 -27.482  0.00  0.00    +0.000 A 
ATOM     13  C1* UNL     1     -29.259  60.517 -28.822  0.00  0.00    +0.000 A 
ATOM     14  C2* UNL     1     -30.559  59.978 -28.816  0.00  0.00    +0.000 A 
ATOM     15  C4* UNL     1     -29.916  60.406 -26.674  0.00  0.00    +0.000 A 
BRANCH  12  16
ATOM     16  O3* UNL     1     -32.302  60.005 -27.105  0.00  0.00    +0.000 OA
ATOM     17  H3* UNL     1     -32.459  60.801 -26.566  0.00  0.00    +0.000 HD
ENDBRANCH  12  16
BRANCH  15  18
ATOM     18  C5* UNL     1     -29.945  60.714 -25.299  0.00  0.00    +0.000 C 
BRANCH  18  19
ATOM     19  O5* UNL     1     -29.983  61.023 -24.008  0.00  0.00    +0.000 OA
ATOM     20  H5* UNL     1     -29.284  60.551 -23.521  0.00  0.00    +0.000 HD
ENDBRANCH  18  19
ENDBRANCH  15  18
ENDBRANCH   4  13
TORSDOF 4
ENDMDL
MODEL 9
REMARK VINA RESULT:      -4.0     16.507     18.739
REMARK  Name = 3363_5FluorouracilDeoxyriboside.pdbqt.pdb
REMARK  4 active torsions:
REMARK  status: ('A' for Active; 'I' for Inactive)
REMARK    1  A    between atoms: N_4  and  C1*_13
REMARK    2  A    between atoms: C3*_12  and  O3*_16
REMARK    3  A    between atoms: C4*_15  and  C5*_18
REMARK    4  A    between atoms: C5*_18  and  O5*_19
REMARK                            x       y       z     vdW  Elec       q    Type
REMARK                         _______ _______ _______ _____ _____    ______ ____
ROOT
ATOM      1  F   UNL     1     -38.939  43.210  -9.658  0.00  0.00    +0.000 F 
ATOM      2  O   UNL     1     -36.597  47.935  -8.354  0.00  0.00    +0.000 OA
ATOM      3  O   UNL     1     -40.303  45.680  -9.852  0.00  0.00    +0.000 OA
ATOM      4  N   UNL     1     -36.541  45.565  -8.324  0.00  0.00    +0.000 N 
ATOM      5  N   UNL     1     -38.448  46.755  -9.013  0.00  0.00    +0.000 N 
ATOM      6  C   UNL     1     -37.118  46.840  -8.533  0.00  0.00    +0.000 C 
ATOM      7  C   UNL     1     -37.309  44.490  -8.597  0.00  0.00    +0.000 C 
ATOM      8  C   UNL     1     -38.511  44.317  -9.029  0.00  0.00    +0.000 C 
ATOM      9  C   UNL     1     -39.193  45.614  -9.339  0.00  0.00    +0.000 C 
ATOM     10  H   UNL     1     -38.887  47.642  -9.216  0.00  0.00    +0.000 HD
ENDROOT
BRANCH   4  13
ATOM     11  O4* UNL     1     -34.958  45.335  -6.509  0.00  0.00    +0.000 OA
ATOM     12  C3* UNL     1     -33.021  44.995  -7.734  0.00  0.00    +0.000 A 
ATOM     13  C1* UNL     1     -35.266  45.367  -7.875  0.00  0.00    +0.000 A 
ATOM     14  C2* UNL     1     -34.095  45.152  -8.627  0.00  0.00    +0.000 A 
ATOM     15  C4* UNL     1     -33.580  45.107  -6.409  0.00  0.00    +0.000 A 
BRANCH  12  16
ATOM     16  O3* UNL     1     -31.930  44.214  -7.996  0.00  0.00    +0.000 OA
ATOM     17  H3* UNL     1     -32.076  43.622  -8.755  0.00  0.00    +0.000 HD
ENDBRANCH  12  16
BRANCH  15  18
ATOM     18  C5* UNL     1     -32.948  44.820  -5.183  0.00  0.00    +0.000 C 
BRANCH  18  19
ATOM     19  O5* UNL     1     -32.356  44.529  -4.030  0.00  0.00    +0.000 OA
ATOM     20  H5* UNL     1     -32.981  44.098  -3.422  0.00  0.00    +0.000 HD
ENDBRANCH  18  19
ENDBRANCH  15  18
ENDBRANCH   4  13
TORSDOF 4
ENDMDL
