MODEL 1
REMARK VINA RESULT:      -3.7      0.000      0.000
REMARK  Name = 3385_5Fluorouracil.pdbqt.pdb
REMARK  0 active torsions:
REMARK  status: ('A' for Active; 'I' for Inactive)
REMARK                            x       y       z     vdW  Elec       q    Type
REMARK                         _______ _______ _______ _____ _____    ______ ____
ROOT
ATOM      1  F   UNL     1     -29.307  52.622   8.787  0.00  0.00    +0.000 F 
ATOM      2  O   UNL     1     -28.989  53.550   6.129  0.00  0.00    +0.000 OA
ATOM      3  O   UNL     1     -31.225  49.843   4.537  0.00  0.00    +0.000 OA
ATOM      4  N   UNL     1     -30.044  51.664   5.338  0.00  0.00    +0.000 N 
ATOM      5  N   UNL     1     -30.738  49.985   6.783  0.00  0.00    +0.000 N 
ATOM      6  C   UNL     1     -29.469  52.445   6.351  0.00  0.00    +0.000 C 
ATOM      7  C   UNL     1     -30.713  50.439   5.473  0.00  0.00    +0.000 C 
ATOM      8  C   UNL     1     -29.505  51.829   7.721  0.00  0.00    +0.000 C 
ATOM      9  C   UNL     1     -30.151  50.712   7.745  0.00  0.00    +0.000 C 
ATOM     10  H   UNL     1     -30.029  52.058   4.409  0.00  0.00    +0.000 HD
ATOM     11  H   UNL     1     -31.204  49.110   6.989  0.00  0.00    +0.000 HD
ENDROOT
TORSDOF 0
ENDMDL
MODEL 2
REMARK VINA RESULT:      -3.7     24.152     24.761
REMARK  Name = 3385_5Fluorouracil.pdbqt.pdb
REMARK  0 active torsions:
REMARK  status: ('A' for Active; 'I' for Inactive)
REMARK                            x       y       z     vdW  Elec       q    Type
REMARK                         _______ _______ _______ _____ _____    ______ ____
ROOT
ATOM      1  F   UNL     1     -33.870  47.145 -15.574  0.00  0.00    +0.000 F 
ATOM      2  O   UNL     1     -32.796  47.315 -18.190  0.00  0.00    +0.000 OA
ATOM      3  O   UNL     1     -35.541  50.905 -19.115  0.00  0.00    +0.000 OA
ATOM      4  N   UNL     1     -34.218  49.061 -18.667  0.00  0.00    +0.000 N 
ATOM      5  N   UNL     1     -35.777  49.794 -17.110  0.00  0.00    +0.000 N 
ATOM      6  C   UNL     1     -33.740  48.022 -17.856  0.00  0.00    +0.000 C 
ATOM      7  C   UNL     1     -35.214  50.000 -18.361  0.00  0.00    +0.000 C 
ATOM      8  C   UNL     1     -34.460  47.858 -16.547  0.00  0.00    +0.000 C 
ATOM      9  C   UNL     1     -35.348  48.774 -16.353  0.00  0.00    +0.000 C 
ATOM     10  H   UNL     1     -33.749  49.187 -19.551  0.00  0.00    +0.000 HD
ATOM     11  H   UNL     1     -36.503  50.423 -16.792  0.00  0.00    +0.000 HD
ENDROOT
TORSDOF 0
ENDMDL
MODEL 3
REMARK VINA RESULT:      -3.7     35.349     36.044
REMARK  Name = 3385_5Fluorouracil.pdbqt.pdb
REMARK  0 active torsions:
REMARK  status: ('A' for Active; 'I' for Inactive)
REMARK                            x       y       z     vdW  Elec       q    Type
REMARK                         _______ _______ _______ _____ _____    ______ ____
ROOT
ATOM      1  F   UNL     1     -29.759  61.277 -26.560  0.00  0.00    +0.000 F 
ATOM      2  O   UNL     1     -27.001  60.954 -26.001  0.00  0.00    +0.000 OA
ATOM      3  O   UNL     1     -26.179  60.025 -30.443  0.00  0.00    +0.000 OA
ATOM      4  N   UNL     1     -26.610  60.423 -28.206  0.00  0.00    +0.000 N 
ATOM      5  N   UNL     1     -28.354  60.284 -29.731  0.00  0.00    +0.000 N 
ATOM      6  C   UNL     1     -27.445  60.704 -27.115  0.00  0.00    +0.000 C 
ATOM      7  C   UNL     1     -26.981  60.223 -29.542  0.00  0.00    +0.000 C 
ATOM      8  C   UNL     1     -28.915  60.690 -27.424  0.00  0.00    +0.000 C 
ATOM      9  C   UNL     1     -29.155  60.510 -28.680  0.00  0.00    +0.000 C 
ATOM     10  H   UNL     1     -25.618  60.426 -28.019  0.00  0.00    +0.000 HD
ATOM     11  H   UNL     1     -28.725  60.157 -30.664  0.00  0.00    +0.000 HD
ENDROOT
TORSDOF 0
ENDMDL
MODEL 4
REMARK VINA RESULT:      -3.6     20.641     20.947
REMARK  Name = 3385_5Fluorouracil.pdbqt.pdb
REMARK  0 active torsions:
REMARK  status: ('A' for Active; 'I' for Inactive)
REMARK                            x       y       z     vdW  Elec       q    Type
REMARK                         _______ _______ _______ _____ _____    ______ ____
ROOT
ATOM      1  F   UNL     1     -23.424  41.311 -10.158  0.00  0.00    +0.000 F 
ATOM      2  O   UNL     1     -22.688  38.721  -9.279  0.00  0.00    +0.000 OA
ATOM      3  O   UNL     1     -27.108  37.405  -9.362  0.00  0.00    +0.000 OA
ATOM      4  N   UNL     1     -24.902  38.093  -9.257  0.00  0.00    +0.000 N 
ATOM      5  N   UNL     1     -26.582  39.609  -9.774  0.00  0.00    +0.000 N 
ATOM      6  C   UNL     1     -23.868  39.031  -9.386  0.00  0.00    +0.000 C 
ATOM      7  C   UNL     1     -26.275  38.295  -9.454  0.00  0.00    +0.000 C 
ATOM      8  C   UNL     1     -24.321  40.434  -9.679  0.00  0.00    +0.000 C 
ATOM      9  C   UNL     1     -25.597  40.515  -9.855  0.00  0.00    +0.000 C 
ATOM     10  H   UNL     1     -24.620  37.144  -9.058  0.00  0.00    +0.000 HD
ATOM     11  H   UNL     1     -27.548  39.858  -9.942  0.00  0.00    +0.000 HD
ENDROOT
TORSDOF 0
ENDMDL
MODEL 5
REMARK VINA RESULT:      -3.5     14.107     15.409
REMARK  Name = 3385_5Fluorouracil.pdbqt.pdb
REMARK  0 active torsions:
REMARK  status: ('A' for Active; 'I' for Inactive)
REMARK                            x       y       z     vdW  Elec       q    Type
REMARK                         _______ _______ _______ _____ _____    ______ ____
ROOT
ATOM      1  F   UNL     1     -33.206  45.605  -8.840  0.00  0.00    +0.000 F 
ATOM      2  O   UNL     1     -33.590  42.902  -8.086  0.00  0.00    +0.000 OA
ATOM      3  O   UNL     1     -33.227  44.063  -3.636  0.00  0.00    +0.000 OA
ATOM      4  N   UNL     1     -33.339  43.478  -5.871  0.00  0.00    +0.000 N 
ATOM      5  N   UNL     1     -32.847  45.661  -5.251  0.00  0.00    +0.000 N 
ATOM      6  C   UNL     1     -33.310  43.750  -7.247  0.00  0.00    +0.000 C 
ATOM      7  C   UNL     1     -33.141  44.377  -4.814  0.00  0.00    +0.000 C 
ATOM      8  C   UNL     1     -32.927  45.158  -7.605  0.00  0.00    +0.000 C 
ATOM      9  C   UNL     1     -32.778  45.910  -6.567  0.00  0.00    +0.000 C 
ATOM     10  H   UNL     1     -33.592  42.537  -5.609  0.00  0.00    +0.000 HD
ATOM     11  H   UNL     1     -32.692  46.387  -4.564  0.00  0.00    +0.000 HD
ENDROOT
TORSDOF 0
ENDMDL
MODEL 6
REMARK VINA RESULT:      -3.5     13.606     14.634
REMARK  Name = 3385_5Fluorouracil.pdbqt.pdb
REMARK  0 active torsions:
REMARK  status: ('A' for Active; 'I' for Inactive)
REMARK                            x       y       z     vdW  Elec       q    Type
REMARK                         _______ _______ _______ _____ _____    ______ ____
ROOT
ATOM      1  F   UNL     1     -34.488  42.122  -4.408  0.00  0.00    +0.000 F 
ATOM      2  O   UNL     1     -33.002  44.124  -3.063  0.00  0.00    +0.000 OA
ATOM      3  O   UNL     1     -32.428  46.405  -7.031  0.00  0.00    +0.000 OA
ATOM      4  N   UNL     1     -32.661  45.220  -5.059  0.00  0.00    +0.000 N 
ATOM      5  N   UNL     1     -33.448  44.340  -7.057  0.00  0.00    +0.000 N 
ATOM      6  C   UNL     1     -33.106  44.139  -4.284  0.00  0.00    +0.000 C 
ATOM      7  C   UNL     1     -32.811  45.406  -6.440  0.00  0.00    +0.000 C 
ATOM      8  C   UNL     1     -33.732  43.017  -5.064  0.00  0.00    +0.000 C 
ATOM      9  C   UNL     1     -33.836  43.288  -6.322  0.00  0.00    +0.000 C 
ATOM     10  H   UNL     1     -32.236  45.983  -4.554  0.00  0.00    +0.000 HD
ATOM     11  H   UNL     1     -33.610  44.379  -8.055  0.00  0.00    +0.000 HD
ENDROOT
TORSDOF 0
ENDMDL
MODEL 7
REMARK VINA RESULT:      -3.3     23.796     24.869
REMARK  Name = 3385_5Fluorouracil.pdbqt.pdb
REMARK  0 active torsions:
REMARK  status: ('A' for Active; 'I' for Inactive)
REMARK                            x       y       z     vdW  Elec       q    Type
REMARK                         _______ _______ _______ _____ _____    ______ ____
ROOT
ATOM      1  F   UNL     1     -31.413  41.964 -15.269  0.00  0.00    +0.000 F 
ATOM      2  O   UNL     1     -31.322  44.792 -15.123  0.00  0.00    +0.000 OA
ATOM      3  O   UNL     1     -29.187  44.963 -19.209  0.00  0.00    +0.000 OA
ATOM      4  N   UNL     1     -30.195  44.865 -17.129  0.00  0.00    +0.000 N 
ATOM      5  N   UNL     1     -29.591  42.915 -18.234  0.00  0.00    +0.000 N 
ATOM      6  C   UNL     1     -30.756  44.195 -16.032  0.00  0.00    +0.000 C 
ATOM      7  C   UNL     1     -29.616  44.301 -18.274  0.00  0.00    +0.000 C 
ATOM      8  C   UNL     1     -30.623  42.699 -16.069  0.00  0.00    +0.000 C 
ATOM      9  C   UNL     1     -30.089  42.277 -17.165  0.00  0.00    +0.000 C 
ATOM     10  H   UNL     1     -30.272  45.871 -17.123  0.00  0.00    +0.000 HD
ATOM     11  H   UNL     1     -29.197  42.410 -19.018  0.00  0.00    +0.000 HD
ENDROOT
TORSDOF 0
ENDMDL
MODEL 8
REMARK VINA RESULT:      -3.3     39.475     40.300
REMARK  Name = 3385_5Fluorouracil.pdbqt.pdb
REMARK  0 active torsions:
REMARK  status: ('A' for Active; 'I' for Inactive)
REMARK                            x       y       z     vdW  Elec       q    Type
REMARK                         _______ _______ _______ _____ _____    ______ ____
ROOT
ATOM      1  F   UNL     1     -21.785  54.267 -34.135  0.00  0.00    +0.000 F 
ATOM      2  O   UNL     1     -22.063  51.505 -34.697  0.00  0.00    +0.000 OA
ATOM      3  O   UNL     1     -25.736  51.278 -31.917  0.00  0.00    +0.000 OA
ATOM      4  N   UNL     1     -23.852  51.385 -33.255  0.00  0.00    +0.000 N 
ATOM      5  N   UNL     1     -24.535  53.240 -32.038  0.00  0.00    +0.000 N 
ATOM      6  C   UNL     1     -22.768  52.044 -33.852  0.00  0.00    +0.000 C 
ATOM      7  C   UNL     1     -24.791  51.915 -32.359  0.00  0.00    +0.000 C 
ATOM      8  C   UNL     1     -22.553  53.457 -33.389  0.00  0.00    +0.000 C 
ATOM      9  C   UNL     1     -23.473  53.856 -32.577  0.00  0.00    +0.000 C 
ATOM     10  H   UNL     1     -24.013  50.434 -33.551  0.00  0.00    +0.000 HD
ATOM     11  H   UNL     1     -25.160  53.718 -31.401  0.00  0.00    +0.000 HD
ENDROOT
TORSDOF 0
ENDMDL
MODEL 9
REMARK VINA RESULT:      -3.2     14.444     15.434
REMARK  Name = 3385_5Fluorouracil.pdbqt.pdb
REMARK  0 active torsions:
REMARK  status: ('A' for Active; 'I' for Inactive)
REMARK                            x       y       z     vdW  Elec       q    Type
REMARK                         _______ _______ _______ _____ _____    ______ ____
ROOT
ATOM      1  F   UNL     1     -34.974  44.489  -8.763  0.00  0.00    +0.000 F 
ATOM      2  O   UNL     1     -34.758  46.705  -7.012  0.00  0.00    +0.000 OA
ATOM      3  O   UNL     1     -32.302  44.162  -4.049  0.00  0.00    +0.000 OA
ATOM      4  N   UNL     1     -33.593  45.410  -5.507  0.00  0.00    +0.000 N 
ATOM      5  N   UNL     1     -33.214  43.156  -5.909  0.00  0.00    +0.000 N 
ATOM      6  C   UNL     1     -34.344  45.602  -6.676  0.00  0.00    +0.000 C 
ATOM      7  C   UNL     1     -32.978  44.231  -5.065  0.00  0.00    +0.000 C 
ATOM      8  C   UNL     1     -34.583  44.359  -7.485  0.00  0.00    +0.000 C 
ATOM      9  C   UNL     1     -33.968  43.330  -7.004  0.00  0.00    +0.000 C 
ATOM     10  H   UNL     1     -33.422  46.233  -4.949  0.00  0.00    +0.000 HD
ATOM     11  H   UNL     1     -32.809  42.257  -5.681  0.00  0.00    +0.000 HD
ENDROOT
TORSDOF 0
ENDMDL
