MODEL 1
REMARK VINA RESULT:      -7.2      0.000      0.000
REMARK  Name = 342374_SipholenolA.pdbqt.pdb
REMARK  5 active torsions:
REMARK  status: ('A' for Active; 'I' for Inactive)
REMARK    1  A    between atoms: C_3  and  C_20
REMARK    2  A    between atoms: C_4  and  O_16
REMARK    3  A    between atoms: C_13  and  O_18
REMARK    4  A    between atoms: C_21  and  C_25
REMARK    5  A    between atoms: C_26  and  O_36
REMARK                            x       y       z     vdW  Elec       q    Type
REMARK                         _______ _______ _______ _____ _____    ______ ____
ROOT
ATOM      1  O   UNL     1     -15.196  50.742   4.794  0.00  0.00    +0.000 OA
ATOM      2  C   UNL     1     -14.653  48.707   3.249  0.00  0.00    +0.000 C 
ATOM      3  C   UNL     1     -15.195  47.374   2.726  0.00  0.00    +0.000 C 
ATOM      4  C   UNL     1     -15.895  46.418   3.677  0.00  0.00    +0.000 C 
ATOM      5  C   UNL     1     -15.487  49.432   4.395  0.00  0.00    +0.000 C 
ATOM      6  C   UNL     1     -14.682  49.722   2.184  0.00  0.00    +0.000 C 
ATOM      7  C   UNL     1     -16.333  47.157   4.845  0.00  0.00    +0.000 C 
ATOM      8  C   UNL     1     -16.199  48.582   5.264  0.00  0.00    +0.000 C 
ATOM      9  C   UNL     1     -13.203  48.508   3.771  0.00  0.00    +0.000 C 
ATOM     10  C   UNL     1     -15.008  51.177   1.951  0.00  0.00    +0.000 C 
ATOM     11  C   UNL     1     -15.962  51.850   4.218  0.00  0.00    +0.000 C 
ATOM     12  C   UNL     1     -17.072  45.715   2.984  0.00  0.00    +0.000 C 
ATOM     13  C   UNL     1     -15.496  52.213   2.776  0.00  0.00    +0.000 C 
ATOM     14  C   UNL     1     -17.489  51.545   4.180  0.00  0.00    +0.000 C 
ATOM     15  C   UNL     1     -15.704  53.098   5.112  0.00  0.00    +0.000 C 
ENDROOT
BRANCH   4  16
ATOM     16  O   UNL     1     -15.012  45.395   4.061  0.00  0.00    +0.000 OA
ATOM     17  H   UNL     1     -15.529  44.601   3.833  0.00  0.00    +0.000 HD
ENDBRANCH   4  16
BRANCH  13  18
ATOM     18  O   UNL     1     -15.530  53.512   2.279  0.00  0.00    +0.000 OA
ATOM     19  H   UNL     1     -16.078  53.570   1.468  0.00  0.00    +0.000 HD
ENDBRANCH  13  18
BRANCH   3  20
ATOM     20  C   UNL     1     -14.836  46.927   1.405  0.00  0.00    +0.000 C 
ATOM     21  C   UNL     1     -14.448  46.468  -0.004  0.00  0.00    +0.000 C 
BRANCH  21  25
ATOM     22  C   UNL     1     -12.920  47.680  -3.023  0.00  0.00    +0.000 C 
ATOM     23  C   UNL     1     -12.777  46.509  -2.012  0.00  0.00    +0.000 C 
ATOM     24  C   UNL     1     -13.784  47.666  -4.250  0.00  0.00    +0.000 C 
ATOM     25  C   UNL     1     -14.084  46.046  -1.326  0.00  0.00    +0.000 C 
ATOM     26  C   UNL     1     -13.421  48.761  -5.247  0.00  0.00    +0.000 C 
ATOM     27  C   UNL     1     -12.013  48.767  -3.204  0.00  0.00    +0.000 C 
ATOM     28  C   UNL     1     -12.318  49.396  -4.535  0.00  0.00    +0.000 C 
ATOM     29  C   UNL     1     -14.808  46.703  -4.304  0.00  0.00    +0.000 C 
ATOM     30  C   UNL     1     -15.068  45.280  -2.091  0.00  0.00    +0.000 C 
ATOM     31  C   UNL     1     -11.764  46.964  -0.895  0.00  0.00    +0.000 C 
ATOM     32  C   UNL     1     -12.105  45.303  -2.754  0.00  0.00    +0.000 C 
ATOM     33  C   UNL     1     -15.287  45.687  -3.301  0.00  0.00    +0.000 C 
ATOM     34  C   UNL     1     -14.600  49.669  -5.568  0.00  0.00    +0.000 C 
ATOM     35  C   UNL     1     -16.117  44.399  -1.465  0.00  0.00    +0.000 C 
BRANCH  26  36
ATOM     36  O   UNL     1     -12.986  48.196  -6.456  0.00  0.00    +0.000 OA
ATOM     37  H   UNL     1     -13.062  48.961  -7.054  0.00  0.00    +0.000 HD
ENDBRANCH  26  36
ENDBRANCH  21  25
ENDBRANCH   3  20
TORSDOF 5
ENDMDL
MODEL 2
REMARK VINA RESULT:      -7.1     21.454     24.082
REMARK  Name = 342374_SipholenolA.pdbqt.pdb
REMARK  5 active torsions:
REMARK  status: ('A' for Active; 'I' for Inactive)
REMARK    1  A    between atoms: C_3  and  C_20
REMARK    2  A    between atoms: C_4  and  O_16
REMARK    3  A    between atoms: C_13  and  O_18
REMARK    4  A    between atoms: C_21  and  C_25
REMARK    5  A    between atoms: C_26  and  O_36
REMARK                            x       y       z     vdW  Elec       q    Type
REMARK                         _______ _______ _______ _____ _____    ______ ____
ROOT
ATOM      1  O   UNL     1     -35.362  44.803  -8.506  0.00  0.00    +0.000 OA
ATOM      2  C   UNL     1     -35.477  44.657 -11.111  0.00  0.00    +0.000 C 
ATOM      3  C   UNL     1     -35.727  45.471 -12.383  0.00  0.00    +0.000 C 
ATOM      4  C   UNL     1     -36.866  46.475 -12.426  0.00  0.00    +0.000 C 
ATOM      5  C   UNL     1     -35.752  45.380  -9.719  0.00  0.00    +0.000 C 
ATOM      6  C   UNL     1     -34.048  44.330 -10.988  0.00  0.00    +0.000 C 
ATOM      7  C   UNL     1     -37.242  46.815 -11.068  0.00  0.00    +0.000 C 
ATOM      8  C   UNL     1     -36.763  46.361  -9.730  0.00  0.00    +0.000 C 
ATOM      9  C   UNL     1     -36.330  43.360 -11.149  0.00  0.00    +0.000 C 
ATOM     10  C   UNL     1     -32.940  44.251  -9.966  0.00  0.00    +0.000 C 
ATOM     11  C   UNL     1     -34.090  45.206  -7.901  0.00  0.00    +0.000 C 
ATOM     12  C   UNL     1     -36.471  47.724 -13.228  0.00  0.00    +0.000 C 
ATOM     13  C   UNL     1     -32.863  44.533  -8.586  0.00  0.00    +0.000 C 
ATOM     14  C   UNL     1     -33.890  46.749  -7.938  0.00  0.00    +0.000 C 
ATOM     15  C   UNL     1     -34.113  44.721  -6.421  0.00  0.00    +0.000 C 
ENDROOT
BRANCH   4  16
ATOM     16  O   UNL     1     -37.967  45.921 -13.102  0.00  0.00    +0.000 OA
ATOM     17  H   UNL     1     -37.783  44.968 -13.015  0.00  0.00    +0.000 HD
ENDBRANCH   4  16
BRANCH  13  18
ATOM     18  O   UNL     1     -31.708  44.190  -7.891  0.00  0.00    +0.000 OA
ATOM     19  H   UNL     1     -31.375  43.309  -8.162  0.00  0.00    +0.000 HD
ENDBRANCH  13  18
BRANCH   3  20
ATOM     20  C   UNL     1     -35.044  45.118 -13.601  0.00  0.00    +0.000 C 
ATOM     21  C   UNL     1     -34.332  44.742 -14.904  0.00  0.00    +0.000 C 
BRANCH  21  25
ATOM     22  C   UNL     1     -31.950  42.408 -16.243  0.00  0.00    +0.000 C 
ATOM     23  C   UNL     1     -33.390  42.918 -16.521  0.00  0.00    +0.000 C 
ATOM     24  C   UNL     1     -30.694  43.001 -16.813  0.00  0.00    +0.000 C 
ATOM     25  C   UNL     1     -33.673  44.387 -16.128  0.00  0.00    +0.000 C 
ATOM     26  C   UNL     1     -29.492  42.070 -16.703  0.00  0.00    +0.000 C 
ATOM     27  C   UNL     1     -31.580  41.116 -15.762  0.00  0.00    +0.000 C 
ATOM     28  C   UNL     1     -30.116  40.926 -16.049  0.00  0.00    +0.000 C 
ATOM     29  C   UNL     1     -30.775  44.311 -17.320  0.00  0.00    +0.000 C 
ATOM     30  C   UNL     1     -33.121  45.471 -16.942  0.00  0.00    +0.000 C 
ATOM     31  C   UNL     1     -34.386  41.991 -15.727  0.00  0.00    +0.000 C 
ATOM     32  C   UNL     1     -33.700  42.701 -18.042  0.00  0.00    +0.000 C 
ATOM     33  C   UNL     1     -31.898  45.314 -17.340  0.00  0.00    +0.000 C 
ATOM     34  C   UNL     1     -28.333  42.703 -15.947  0.00  0.00    +0.000 C 
ATOM     35  C   UNL     1     -33.672  46.872 -16.959  0.00  0.00    +0.000 C 
BRANCH  26  36
ATOM     36  O   UNL     1     -29.021  41.729 -17.981  0.00  0.00    +0.000 OA
ATOM     37  H   UNL     1     -29.188  40.770 -17.988  0.00  0.00    +0.000 HD
ENDBRANCH  26  36
ENDBRANCH  21  25
ENDBRANCH   3  20
TORSDOF 5
ENDMDL
MODEL 3
REMARK VINA RESULT:      -6.7      1.697      4.162
REMARK  Name = 342374_SipholenolA.pdbqt.pdb
REMARK  5 active torsions:
REMARK  status: ('A' for Active; 'I' for Inactive)
REMARK    1  A    between atoms: C_3  and  C_20
REMARK    2  A    between atoms: C_4  and  O_16
REMARK    3  A    between atoms: C_13  and  O_18
REMARK    4  A    between atoms: C_21  and  C_25
REMARK    5  A    between atoms: C_26  and  O_36
REMARK                            x       y       z     vdW  Elec       q    Type
REMARK                         _______ _______ _______ _____ _____    ______ ____
ROOT
ATOM      1  O   UNL     1     -16.248  45.803   6.084  0.00  0.00    +0.000 OA
ATOM      2  C   UNL     1     -16.044  46.330   3.535  0.00  0.00    +0.000 C 
ATOM      3  C   UNL     1     -15.609  47.395   2.525  0.00  0.00    +0.000 C 
ATOM      4  C   UNL     1     -15.971  48.852   2.760  0.00  0.00    +0.000 C 
ATOM      5  C   UNL     1     -16.067  46.750   5.070  0.00  0.00    +0.000 C 
ATOM      6  C   UNL     1     -15.078  45.220   3.553  0.00  0.00    +0.000 C 
ATOM      7  C   UNL     1     -16.285  49.036   4.163  0.00  0.00    +0.000 C 
ATOM      8  C   UNL     1     -16.343  48.107   5.328  0.00  0.00    +0.000 C 
ATOM      9  C   UNL     1     -17.461  45.812   3.163  0.00  0.00    +0.000 C 
ATOM     10  C   UNL     1     -14.366  44.293   4.507  0.00  0.00    +0.000 C 
ATOM     11  C   UNL     1     -15.072  45.251   6.762  0.00  0.00    +0.000 C 
ATOM     12  C   UNL     1     -14.833  49.782   2.312  0.00  0.00    +0.000 C 
ATOM     13  C   UNL     1     -14.347  44.165   5.913  0.00  0.00    +0.000 C 
ATOM     14  C   UNL     1     -14.040  46.357   7.132  0.00  0.00    +0.000 C 
ATOM     15  C   UNL     1     -15.577  44.556   8.061  0.00  0.00    +0.000 C 
ENDROOT
BRANCH   4  16
ATOM     16  O   UNL     1     -17.081  49.201   1.971  0.00  0.00    +0.000 OA
ATOM     17  H   UNL     1     -16.926  50.153   1.835  0.00  0.00    +0.000 HD
ENDBRANCH   4  16
BRANCH  13  18
ATOM     18  O   UNL     1     -13.696  43.075   6.482  0.00  0.00    +0.000 OA
ATOM     19  H   UNL     1     -12.767  43.013   6.176  0.00  0.00    +0.000 HD
ENDBRANCH  13  18
BRANCH   3  20
ATOM     20  C   UNL     1     -15.071  46.993   1.251  0.00  0.00    +0.000 C 
ATOM     21  C   UNL     1     -14.513  46.554  -0.106  0.00  0.00    +0.000 C 
BRANCH  21  25
ATOM     22  C   UNL     1     -12.752  47.811  -2.977  0.00  0.00    +0.000 C 
ATOM     23  C   UNL     1     -12.652  46.661  -1.939  0.00  0.00    +0.000 C 
ATOM     24  C   UNL     1     -13.487  47.739  -4.284  0.00  0.00    +0.000 C 
ATOM     25  C   UNL     1     -13.996  46.138  -1.379  0.00  0.00    +0.000 C 
ATOM     26  C   UNL     1     -13.081  48.840  -5.257  0.00  0.00    +0.000 C 
ATOM     27  C   UNL     1     -11.888  48.942  -3.084  0.00  0.00    +0.000 C 
ATOM     28  C   UNL     1     -12.089  49.540  -4.449  0.00  0.00    +0.000 C 
ATOM     29  C   UNL     1     -14.450  46.724  -4.424  0.00  0.00    +0.000 C 
ATOM     30  C   UNL     1     -14.859  45.313  -2.226  0.00  0.00    +0.000 C 
ATOM     31  C   UNL     1     -11.781  47.180  -0.733  0.00  0.00    +0.000 C 
ATOM     32  C   UNL     1     -11.849  45.483  -2.590  0.00  0.00    +0.000 C 
ATOM     33  C   UNL     1     -14.975  45.695  -3.458  0.00  0.00    +0.000 C 
ATOM     34  C   UNL     1     -14.266  49.682  -5.709  0.00  0.00    +0.000 C 
ATOM     35  C   UNL     1     -15.919  44.386  -1.693  0.00  0.00    +0.000 C 
BRANCH  26  36
ATOM     36  O   UNL     1     -12.499  48.286  -6.407  0.00  0.00    +0.000 OA
ATOM     37  H   UNL     1     -11.738  48.881  -6.534  0.00  0.00    +0.000 HD
ENDBRANCH  26  36
ENDBRANCH  21  25
ENDBRANCH   3  20
TORSDOF 5
ENDMDL
MODEL 4
REMARK VINA RESULT:      -6.5     22.863     26.238
REMARK  Name = 342374_SipholenolA.pdbqt.pdb
REMARK  5 active torsions:
REMARK  status: ('A' for Active; 'I' for Inactive)
REMARK    1  A    between atoms: C_3  and  C_20
REMARK    2  A    between atoms: C_4  and  O_16
REMARK    3  A    between atoms: C_13  and  O_18
REMARK    4  A    between atoms: C_21  and  C_25
REMARK    5  A    between atoms: C_26  and  O_36
REMARK                            x       y       z     vdW  Elec       q    Type
REMARK                         _______ _______ _______ _____ _____    ______ ____
ROOT
ATOM      1  O   UNL     1     -35.915  47.896 -17.351  0.00  0.00    +0.000 OA
ATOM      2  C   UNL     1     -36.411  47.704 -14.794  0.00  0.00    +0.000 C 
ATOM      3  C   UNL     1     -37.286  46.997 -13.756  0.00  0.00    +0.000 C 
ATOM      4  C   UNL     1     -38.770  46.809 -14.020  0.00  0.00    +0.000 C 
ATOM      5  C   UNL     1     -36.769  47.469 -16.328  0.00  0.00    +0.000 C 
ATOM      6  C   UNL     1     -35.034  47.189 -14.736  0.00  0.00    +0.000 C 
ATOM      7  C   UNL     1     -39.012  46.937 -15.444  0.00  0.00    +0.000 C 
ATOM      8  C   UNL     1     -38.128  47.233 -16.608  0.00  0.00    +0.000 C 
ATOM      9  C   UNL     1     -36.430  49.235 -14.532  0.00  0.00    +0.000 C 
ATOM     10  C   UNL     1     -33.889  46.780 -15.631  0.00  0.00    +0.000 C 
ATOM     11  C   UNL     1     -34.969  46.942 -17.935  0.00  0.00    +0.000 C 
ATOM     12  C   UNL     1     -39.257  45.453 -13.488  0.00  0.00    +0.000 C 
ATOM     13  C   UNL     1     -33.723  46.706 -17.030  0.00  0.00    +0.000 C 
ATOM     14  C   UNL     1     -35.634  45.565 -18.226  0.00  0.00    +0.000 C 
ATOM     15  C   UNL     1     -34.457  47.564 -19.268  0.00  0.00    +0.000 C 
ENDROOT
BRANCH   4  16
ATOM     16  O   UNL     1     -39.507  47.780 -13.320  0.00  0.00    +0.000 OA
ATOM     17  H   UNL     1     -39.825  47.265 -12.558  0.00  0.00    +0.000 HD
ENDBRANCH   4  16
BRANCH  13  18
ATOM     18  O   UNL     1     -32.458  46.440 -17.546  0.00  0.00    +0.000 OA
ATOM     19  H   UNL     1     -32.227  47.062 -18.267  0.00  0.00    +0.000 HD
ENDBRANCH  13  18
BRANCH   3  20
ATOM     20  C   UNL     1     -36.757  46.727 -12.443  0.00  0.00    +0.000 C 
ATOM     21  C   UNL     1     -36.208  46.450 -11.041  0.00  0.00    +0.000 C 
BRANCH  21  25
ATOM     22  C   UNL     1     -34.819  43.822  -9.019  0.00  0.00    +0.000 C 
ATOM     23  C   UNL     1     -34.485  45.271  -9.469  0.00  0.00    +0.000 C 
ATOM     24  C   UNL     1     -35.599  43.453  -7.791  0.00  0.00    +0.000 C 
ATOM     25  C   UNL     1     -35.699  46.196  -9.724  0.00  0.00    +0.000 C 
ATOM     26  C   UNL     1     -35.424  41.993  -7.391  0.00  0.00    +0.000 C 
ATOM     27  C   UNL     1     -34.151  42.628  -9.423  0.00  0.00    +0.000 C 
ATOM     28  C   UNL     1     -34.514  41.549  -8.440  0.00  0.00    +0.000 C 
ATOM     29  C   UNL     1     -36.396  44.457  -7.211  0.00  0.00    +0.000 C 
ATOM     30  C   UNL     1     -36.462  46.713  -8.588  0.00  0.00    +0.000 C 
ATOM     31  C   UNL     1     -33.645  45.176 -10.798  0.00  0.00    +0.000 C 
ATOM     32  C   UNL     1     -33.540  45.910  -8.394  0.00  0.00    +0.000 C 
ATOM     33  C   UNL     1     -36.701  45.869  -7.634  0.00  0.00    +0.000 C 
ATOM     34  C   UNL     1     -36.749  41.247  -7.316  0.00  0.00    +0.000 C 
ATOM     35  C   UNL     1     -37.334  47.940  -8.651  0.00  0.00    +0.000 C 
BRANCH  26  36
ATOM     36  O   UNL     1     -34.822  41.902  -6.126  0.00  0.00    +0.000 OA
ATOM     37  H   UNL     1     -34.792  40.937  -6.005  0.00  0.00    +0.000 HD
ENDBRANCH  26  36
ENDBRANCH  21  25
ENDBRANCH   3  20
TORSDOF 5
ENDMDL
MODEL 5
REMARK VINA RESULT:      -6.4     23.066     25.745
REMARK  Name = 342374_SipholenolA.pdbqt.pdb
REMARK  5 active torsions:
REMARK  status: ('A' for Active; 'I' for Inactive)
REMARK    1  A    between atoms: C_3  and  C_20
REMARK    2  A    between atoms: C_4  and  O_16
REMARK    3  A    between atoms: C_13  and  O_18
REMARK    4  A    between atoms: C_21  and  C_25
REMARK    5  A    between atoms: C_26  and  O_36
REMARK                            x       y       z     vdW  Elec       q    Type
REMARK                         _______ _______ _______ _____ _____    ______ ____
ROOT
ATOM      1  O   UNL     1     -35.620  43.735  -9.236  0.00  0.00    +0.000 OA
ATOM      2  C   UNL     1     -35.803  44.645 -11.677  0.00  0.00    +0.000 C 
ATOM      3  C   UNL     1     -36.382  45.775 -12.534  0.00  0.00    +0.000 C 
ATOM      4  C   UNL     1     -37.799  46.261 -12.285  0.00  0.00    +0.000 C 
ATOM      5  C   UNL     1     -36.245  44.593 -10.148  0.00  0.00    +0.000 C 
ATOM      6  C   UNL     1     -34.345  44.797 -11.551  0.00  0.00    +0.000 C 
ATOM      7  C   UNL     1     -38.204  45.864 -10.951  0.00  0.00    +0.000 C 
ATOM      8  C   UNL     1     -37.533  45.090  -9.868  0.00  0.00    +0.000 C 
ATOM      9  C   UNL     1     -36.153  43.275 -12.320  0.00  0.00    +0.000 C 
ATOM     10  C   UNL     1     -33.230  44.682 -10.540  0.00  0.00    +0.000 C 
ATOM     11  C   UNL     1     -34.539  44.255  -8.394  0.00  0.00    +0.000 C 
ATOM     12  C   UNL     1     -37.901  47.782 -12.474  0.00  0.00    +0.000 C 
ATOM     13  C   UNL     1     -33.189  44.378  -9.162  0.00  0.00    +0.000 C 
ATOM     14  C   UNL     1     -34.890  45.646  -7.788  0.00  0.00    +0.000 C 
ATOM     15  C   UNL     1     -34.321  43.227  -7.244  0.00  0.00    +0.000 C 
ENDROOT
BRANCH   4  16
ATOM     16  O   UNL     1     -38.670  45.700 -13.236  0.00  0.00    +0.000 OA
ATOM     17  H   UNL     1     -38.829  44.819 -12.852  0.00  0.00    +0.000 HD
ENDBRANCH   4  16
BRANCH  13  18
ATOM     18  O   UNL     1     -31.955  44.189  -8.550  0.00  0.00    +0.000 OA
ATOM     19  H   UNL     1     -31.835  44.798  -7.790  0.00  0.00    +0.000 HD
ENDBRANCH  13  18
BRANCH   3  20
ATOM     20  C   UNL     1     -35.678  46.206 -13.714  0.00  0.00    +0.000 C 
ATOM     21  C   UNL     1     -34.929  46.649 -14.975  0.00  0.00    +0.000 C 
BRANCH  21  25
ATOM     22  C   UNL     1     -35.497  47.670 -18.374  0.00  0.00    +0.000 C 
ATOM     23  C   UNL     1     -34.759  48.162 -17.099  0.00  0.00    +0.000 C 
ATOM     24  C   UNL     1     -34.904  46.789 -19.435  0.00  0.00    +0.000 C 
ATOM     25  C   UNL     1     -34.227  47.055 -16.158  0.00  0.00    +0.000 C 
ATOM     26  C   UNL     1     -35.698  46.805 -20.735  0.00  0.00    +0.000 C 
ATOM     27  C   UNL     1     -36.662  48.248 -18.962  0.00  0.00    +0.000 C 
ATOM     28  C   UNL     1     -36.765  47.730 -20.370  0.00  0.00    +0.000 C 
ATOM     29  C   UNL     1     -33.754  46.055 -19.091  0.00  0.00    +0.000 C 
ATOM     30  C   UNL     1     -33.051  46.277 -16.551  0.00  0.00    +0.000 C 
ATOM     31  C   UNL     1     -35.761  49.065 -16.286  0.00  0.00    +0.000 C 
ATOM     32  C   UNL     1     -33.583  49.097 -17.545  0.00  0.00    +0.000 C 
ATOM     33  C   UNL     1     -33.007  45.907 -17.792  0.00  0.00    +0.000 C 
ATOM     34  C   UNL     1     -36.154  45.415 -21.156  0.00  0.00    +0.000 C 
ATOM     35  C   UNL     1     -32.177  45.528 -15.581  0.00  0.00    +0.000 C 
BRANCH  26  36
ATOM     36  O   UNL     1     -34.915  47.322 -21.779  0.00  0.00    +0.000 OA
ATOM     37  H   UNL     1     -34.823  46.537 -22.347  0.00  0.00    +0.000 HD
ENDBRANCH  26  36
ENDBRANCH  21  25
ENDBRANCH   3  20
TORSDOF 5
ENDMDL
MODEL 6
REMARK VINA RESULT:      -6.3      3.570      8.493
REMARK  Name = 342374_SipholenolA.pdbqt.pdb
REMARK  5 active torsions:
REMARK  status: ('A' for Active; 'I' for Inactive)
REMARK    1  A    between atoms: C_3  and  C_20
REMARK    2  A    between atoms: C_4  and  O_16
REMARK    3  A    between atoms: C_13  and  O_18
REMARK    4  A    between atoms: C_21  and  C_25
REMARK    5  A    between atoms: C_26  and  O_36
REMARK                            x       y       z     vdW  Elec       q    Type
REMARK                         _______ _______ _______ _____ _____    ______ ____
ROOT
ATOM      1  O   UNL     1     -15.235  44.173   2.253  0.00  0.00    +0.000 OA
ATOM      2  C   UNL     1     -16.158  46.022   3.851  0.00  0.00    +0.000 C 
ATOM      3  C   UNL     1     -15.911  46.742   5.179  0.00  0.00    +0.000 C 
ATOM      4  C   UNL     1     -15.488  45.948   6.402  0.00  0.00    +0.000 C 
ATOM      5  C   UNL     1     -15.232  44.770   3.519  0.00  0.00    +0.000 C 
ATOM      6  C   UNL     1     -15.852  46.914   2.722  0.00  0.00    +0.000 C 
ATOM      7  C   UNL     1     -14.946  44.675   5.970  0.00  0.00    +0.000 C 
ATOM      8  C   UNL     1     -14.771  44.040   4.632  0.00  0.00    +0.000 C 
ATOM      9  C   UNL     1     -17.636  45.549   3.785  0.00  0.00    +0.000 C 
ATOM     10  C   UNL     1     -15.195  46.914   1.363  0.00  0.00    +0.000 C 
ATOM     11  C   UNL     1     -14.213  44.563   1.279  0.00  0.00    +0.000 C 
ATOM     12  C   UNL     1     -14.473  46.733   7.247  0.00  0.00    +0.000 C 
ATOM     13  C   UNL     1     -14.520  45.934   0.605  0.00  0.00    +0.000 C 
ATOM     14  C   UNL     1     -12.795  44.636   1.919  0.00  0.00    +0.000 C 
ATOM     15  C   UNL     1     -14.219  43.486   0.154  0.00  0.00    +0.000 C 
ENDROOT
BRANCH   4  16
ATOM     16  O   UNL     1     -16.597  45.735   7.240  0.00  0.00    +0.000 OA
ATOM     17  H   UNL     1     -17.323  46.072   6.684  0.00  0.00    +0.000 HD
ENDBRANCH   4  16
BRANCH  13  18
ATOM     18  O   UNL     1     -14.170  46.221  -0.710  0.00  0.00    +0.000 OA
ATOM     19  H   UNL     1     -13.984  47.176  -0.830  0.00  0.00    +0.000 HD
ENDBRANCH  13  18
BRANCH   3  20
ATOM     20  C   UNL     1     -16.304  48.120   5.326  0.00  0.00    +0.000 C 
ATOM     21  C   UNL     1     -16.708  49.590   5.475  0.00  0.00    +0.000 C 
BRANCH  21  25
ATOM     22  C   UNL     1     -16.037  52.835   4.082  0.00  0.00    +0.000 C 
ATOM     23  C   UNL     1     -17.244  51.908   4.393  0.00  0.00    +0.000 C 
ATOM     24  C   UNL     1     -15.458  53.850   5.025  0.00  0.00    +0.000 C 
ATOM     25  C   UNL     1     -17.078  50.970   5.612  0.00  0.00    +0.000 C 
ATOM     26  C   UNL     1     -14.570  54.873   4.326  0.00  0.00    +0.000 C 
ATOM     27  C   UNL     1     -15.534  53.178   2.792  0.00  0.00    +0.000 C 
ATOM     28  C   UNL     1     -14.669  54.398   2.951  0.00  0.00    +0.000 C 
ATOM     29  C   UNL     1     -15.765  53.707   6.390  0.00  0.00    +0.000 C 
ATOM     30  C   UNL     1     -17.144  51.525   6.964  0.00  0.00    +0.000 C 
ATOM     31  C   UNL     1     -17.505  51.021   3.117  0.00  0.00    +0.000 C 
ATOM     32  C   UNL     1     -18.515  52.805   4.576  0.00  0.00    +0.000 C 
ATOM     33  C   UNL     1     -16.528  52.651   7.144  0.00  0.00    +0.000 C 
ATOM     34  C   UNL     1     -13.163  54.913   4.904  0.00  0.00    +0.000 C 
ATOM     35  C   UNL     1     -17.458  50.712   8.192  0.00  0.00    +0.000 C 
BRANCH  26  36
ATOM     36  O   UNL     1     -15.113  56.161   4.457  0.00  0.00    +0.000 OA
ATOM     37  H   UNL     1     -15.886  55.979   5.021  0.00  0.00    +0.000 HD
ENDBRANCH  26  36
ENDBRANCH  21  25
ENDBRANCH   3  20
TORSDOF 5
ENDMDL
MODEL 7
REMARK VINA RESULT:      -6.2      4.037      6.626
REMARK  Name = 342374_SipholenolA.pdbqt.pdb
REMARK  5 active torsions:
REMARK  status: ('A' for Active; 'I' for Inactive)
REMARK    1  A    between atoms: C_3  and  C_20
REMARK    2  A    between atoms: C_4  and  O_16
REMARK    3  A    between atoms: C_13  and  O_18
REMARK    4  A    between atoms: C_21  and  C_25
REMARK    5  A    between atoms: C_26  and  O_36
REMARK                            x       y       z     vdW  Elec       q    Type
REMARK                         _______ _______ _______ _____ _____    ______ ____
ROOT
ATOM      1  O   UNL     1     -18.540  53.564   9.511  0.00  0.00    +0.000 OA
ATOM      2  C   UNL     1     -17.249  51.983   7.881  0.00  0.00    +0.000 C 
ATOM      3  C   UNL     1     -16.917  50.518   7.586  0.00  0.00    +0.000 C 
ATOM      4  C   UNL     1     -16.552  49.581   8.725  0.00  0.00    +0.000 C 
ATOM      5  C   UNL     1     -18.011  52.296   9.244  0.00  0.00    +0.000 C 
ATOM      6  C   UNL     1     -18.207  52.499   6.890  0.00  0.00    +0.000 C 
ATOM      7  C   UNL     1     -17.032  50.148   9.970  0.00  0.00    +0.000 C 
ATOM      8  C   UNL     1     -17.742  51.415  10.309  0.00  0.00    +0.000 C 
ATOM      9  C   UNL     1     -15.943  52.824   7.864  0.00  0.00    +0.000 C 
ATOM     10  C   UNL     1     -19.440  53.362   6.780  0.00  0.00    +0.000 C 
ATOM     11  C   UNL     1     -19.956  53.818   9.235  0.00  0.00    +0.000 C 
ATOM     12  C   UNL     1     -17.126  48.176   8.489  0.00  0.00    +0.000 C 
ATOM     13  C   UNL     1     -20.238  54.048   7.720  0.00  0.00    +0.000 C 
ATOM     14  C   UNL     1     -20.865  52.656   9.734  0.00  0.00    +0.000 C 
ATOM     15  C   UNL     1     -20.338  55.132   9.978  0.00  0.00    +0.000 C 
ENDROOT
BRANCH   4  16
ATOM     16  O   UNL     1     -15.157  49.419   8.780  0.00  0.00    +0.000 OA
ATOM     17  H   UNL     1     -14.863  50.336   8.921  0.00  0.00    +0.000 HD
ENDBRANCH   4  16
BRANCH  13  18
ATOM     18  O   UNL     1     -21.232  54.907   7.262  0.00  0.00    +0.000 OA
ATOM     19  H   UNL     1     -20.852  55.744   6.922  0.00  0.00    +0.000 HD
ENDBRANCH  13  18
BRANCH   3  20
ATOM     20  C   UNL     1     -16.722  50.092   6.224  0.00  0.00    +0.000 C 
ATOM     21  C   UNL     1     -16.513  49.623   4.781  0.00  0.00    +0.000 C 
BRANCH  21  25
ATOM     22  C   UNL     1     -14.427  47.454   2.815  0.00  0.00    +0.000 C 
ATOM     23  C   UNL     1     -15.933  47.714   3.092  0.00  0.00    +0.000 C 
ATOM     24  C   UNL     1     -13.615  48.117   1.740  0.00  0.00    +0.000 C 
ATOM     25  C   UNL     1     -16.314  49.175   3.432  0.00  0.00    +0.000 C 
ATOM     26  C   UNL     1     -12.311  47.386   1.442  0.00  0.00    +0.000 C 
ATOM     27  C   UNL     1     -13.669  46.315   3.222  0.00  0.00    +0.000 C 
ATOM     28  C   UNL     1     -12.416  46.283   2.391  0.00  0.00    +0.000 C 
ATOM     29  C   UNL     1     -14.125  49.308   1.193  0.00  0.00    +0.000 C 
ATOM     30  C   UNL     1     -16.323  50.184   2.373  0.00  0.00    +0.000 C 
ATOM     31  C   UNL     1     -16.362  46.796   4.297  0.00  0.00    +0.000 C 
ATOM     32  C   UNL     1     -16.751  47.224   1.848  0.00  0.00    +0.000 C 
ATOM     33  C   UNL     1     -15.336  50.134   1.534  0.00  0.00    +0.000 C 
ATOM     34  C   UNL     1     -11.091  48.281   1.612  0.00  0.00    +0.000 C 
ATOM     35  C   UNL     1     -17.090  51.477   2.452  0.00  0.00    +0.000 C 
BRANCH  26  36
ATOM     36  O   UNL     1     -12.305  46.917   0.119  0.00  0.00    +0.000 OA
ATOM     37  H   UNL     1     -12.947  47.521  -0.294  0.00  0.00    +0.000 HD
ENDBRANCH  26  36
ENDBRANCH  21  25
ENDBRANCH   3  20
TORSDOF 5
ENDMDL
MODEL 8
REMARK VINA RESULT:      -6.2      3.779      6.406
REMARK  Name = 342374_SipholenolA.pdbqt.pdb
REMARK  5 active torsions:
REMARK  status: ('A' for Active; 'I' for Inactive)
REMARK    1  A    between atoms: C_3  and  C_20
REMARK    2  A    between atoms: C_4  and  O_16
REMARK    3  A    between atoms: C_13  and  O_18
REMARK    4  A    between atoms: C_21  and  C_25
REMARK    5  A    between atoms: C_26  and  O_36
REMARK                            x       y       z     vdW  Elec       q    Type
REMARK                         _______ _______ _______ _____ _____    ______ ____
ROOT
ATOM      1  O   UNL     1     -16.382  46.030   6.574  0.00  0.00    +0.000 OA
ATOM      2  C   UNL     1     -16.317  45.637   3.993  0.00  0.00    +0.000 C 
ATOM      3  C   UNL     1     -15.837  46.229   2.665  0.00  0.00    +0.000 C 
ATOM      4  C   UNL     1     -15.999  47.715   2.397  0.00  0.00    +0.000 C 
ATOM      5  C   UNL     1     -16.168  46.546   5.291  0.00  0.00    +0.000 C 
ATOM      6  C   UNL     1     -15.495  44.473   4.359  0.00  0.00    +0.000 C 
ATOM      7  C   UNL     1     -16.177  48.402   3.662  0.00  0.00    +0.000 C 
ATOM      8  C   UNL     1     -16.255  47.936   5.076  0.00  0.00    +0.000 C 
ATOM      9  C   UNL     1     -17.811  45.229   3.868  0.00  0.00    +0.000 C 
ATOM     10  C   UNL     1     -14.828  43.828   5.550  0.00  0.00    +0.000 C 
ATOM     11  C   UNL     1     -15.232  45.577   7.361  0.00  0.00    +0.000 C 
ATOM     12  C   UNL     1     -14.796  48.270   1.621  0.00  0.00    +0.000 C 
ATOM     13  C   UNL     1     -14.714  44.178   6.912  0.00  0.00    +0.000 C 
ATOM     14  C   UNL     1     -14.047  46.585   7.295  0.00  0.00    +0.000 C 
ATOM     15  C   UNL     1     -15.713  45.437   8.835  0.00  0.00    +0.000 C 
ENDROOT
BRANCH   4  16
ATOM     16  O   UNL     1     -17.117  47.933   1.574  0.00  0.00    +0.000 OA
ATOM     17  H   UNL     1     -17.771  48.252   2.221  0.00  0.00    +0.000 HD
ENDBRANCH   4  16
BRANCH  13  18
ATOM     18  O   UNL     1     -14.158  43.261   7.799  0.00  0.00    +0.000 OA
ATOM     19  H   UNL     1     -13.402  43.650   8.288  0.00  0.00    +0.000 HD
ENDBRANCH  13  18
BRANCH   3  20
ATOM     20  C   UNL     1     -15.454  45.350   1.589  0.00  0.00    +0.000 C 
ATOM     21  C   UNL     1     -15.032  44.420   0.448  0.00  0.00    +0.000 C 
BRANCH  21  25
ATOM     22  C   UNL     1     -16.384  42.322  -2.138  0.00  0.00    +0.000 C 
ATOM     23  C   UNL     1     -15.381  43.496  -1.971  0.00  0.00    +0.000 C 
ATOM     24  C   UNL     1     -16.037  40.864  -2.053  0.00  0.00    +0.000 C 
ATOM     25  C   UNL     1     -14.627  43.553  -0.621  0.00  0.00    +0.000 C 
ATOM     26  C   UNL     1     -17.110  39.961  -2.649  0.00  0.00    +0.000 C 
ATOM     27  C   UNL     1     -17.663  42.376  -2.770  0.00  0.00    +0.000 C 
ATOM     28  C   UNL     1     -18.079  40.964  -3.076  0.00  0.00    +0.000 C 
ATOM     29  C   UNL     1     -14.827  40.529  -1.419  0.00  0.00    +0.000 C 
ATOM     30  C   UNL     1     -13.561  42.588  -0.348  0.00  0.00    +0.000 C 
ATOM     31  C   UNL     1     -16.183  44.839  -2.149  0.00  0.00    +0.000 C 
ATOM     32  C   UNL     1     -14.355  43.433  -3.154  0.00  0.00    +0.000 C 
ATOM     33  C   UNL     1     -13.798  41.366  -0.707  0.00  0.00    +0.000 C 
ATOM     34  C   UNL     1     -17.627  38.935  -1.651  0.00  0.00    +0.000 C 
ATOM     35  C   UNL     1     -12.475  42.804   0.672  0.00  0.00    +0.000 C 
BRANCH  26  36
ATOM     36  O   UNL     1     -16.597  39.253  -3.748  0.00  0.00    +0.000 OA
ATOM     37  H   UNL     1     -16.464  39.975  -4.387  0.00  0.00    +0.000 HD
ENDBRANCH  26  36
ENDBRANCH  21  25
ENDBRANCH   3  20
TORSDOF 5
ENDMDL
MODEL 9
REMARK VINA RESULT:      -6.1      4.476      7.678
REMARK  Name = 342374_SipholenolA.pdbqt.pdb
REMARK  5 active torsions:
REMARK  status: ('A' for Active; 'I' for Inactive)
REMARK    1  A    between atoms: C_3  and  C_20
REMARK    2  A    between atoms: C_4  and  O_16
REMARK    3  A    between atoms: C_13  and  O_18
REMARK    4  A    between atoms: C_21  and  C_25
REMARK    5  A    between atoms: C_26  and  O_36
REMARK                            x       y       z     vdW  Elec       q    Type
REMARK                         _______ _______ _______ _____ _____    ______ ____
ROOT
ATOM      1  O   UNL     1     -16.650  45.116  10.053  0.00  0.00    +0.000 OA
ATOM      2  C   UNL     1     -16.146  46.395   7.833  0.00  0.00    +0.000 C 
ATOM      3  C   UNL     1     -16.457  46.436   6.334  0.00  0.00    +0.000 C 
ATOM      4  C   UNL     1     -16.504  45.144   5.536  0.00  0.00    +0.000 C 
ATOM      5  C   UNL     1     -16.698  45.148   8.655  0.00  0.00    +0.000 C 
ATOM      6  C   UNL     1     -16.811  47.512   8.522  0.00  0.00    +0.000 C 
ATOM      7  C   UNL     1     -16.694  44.035   6.451  0.00  0.00    +0.000 C 
ATOM      8  C   UNL     1     -16.812  43.943   7.935  0.00  0.00    +0.000 C 
ATOM      9  C   UNL     1     -14.609  46.462   8.046  0.00  0.00    +0.000 C 
ATOM     10  C   UNL     1     -17.574  47.833   9.783  0.00  0.00    +0.000 C 
ATOM     11  C   UNL     1     -17.835  45.516  10.817  0.00  0.00    +0.000 C 
ATOM     12  C   UNL     1     -17.612  45.192   4.474  0.00  0.00    +0.000 C 
ATOM     13  C   UNL     1     -18.008  47.063  10.884  0.00  0.00    +0.000 C 
ATOM     14  C   UNL     1     -19.140  44.900  10.233  0.00  0.00    +0.000 C 
ATOM     15  C   UNL     1     -17.630  45.014  12.276  0.00  0.00    +0.000 C 
ENDROOT
BRANCH   4  16
ATOM     16  O   UNL     1     -15.302  44.977   4.826  0.00  0.00    +0.000 OA
ATOM     17  H   UNL     1     -15.040  45.902   4.676  0.00  0.00    +0.000 HD
ENDBRANCH   4  16
BRANCH  13  18
ATOM     18  O   UNL     1     -18.558  47.712  11.985  0.00  0.00    +0.000 OA
ATOM     19  H   UNL     1     -18.057  47.513  12.804  0.00  0.00    +0.000 HD
ENDBRANCH  13  18
BRANCH   3  20
ATOM     20  C   UNL     1     -16.467  47.699   5.642  0.00  0.00    +0.000 C 
ATOM     21  C   UNL     1     -16.494  49.046   4.913  0.00  0.00    +0.000 C 
BRANCH  21  25
ATOM     22  C   UNL     1     -14.783  50.916   2.365  0.00  0.00    +0.000 C 
ATOM     23  C   UNL     1     -16.219  50.444   2.723  0.00  0.00    +0.000 C 
ATOM     24  C   UNL     1     -14.160  52.210   2.803  0.00  0.00    +0.000 C 
ATOM     25  C   UNL     1     -16.528  50.308   4.232  0.00  0.00    +0.000 C 
ATOM     26  C   UNL     1     -12.929  52.585   1.986  0.00  0.00    +0.000 C 
ATOM     27  C   UNL     1     -13.973  50.445   1.288  0.00  0.00    +0.000 C 
ATOM     28  C   UNL     1     -12.878  51.452   1.069  0.00  0.00    +0.000 C 
ATOM     29  C   UNL     1     -14.748  52.866   3.899  0.00  0.00    +0.000 C 
ATOM     30  C   UNL     1     -16.711  51.513   5.043  0.00  0.00    +0.000 C 
ATOM     31  C   UNL     1     -16.444  49.042   2.042  0.00  0.00    +0.000 C 
ATOM     32  C   UNL     1     -17.237  51.429   2.053  0.00  0.00    +0.000 C 
ATOM     33  C   UNL     1     -15.880  52.481   4.814  0.00  0.00    +0.000 C 
ATOM     34  C   UNL     1     -11.693  52.779   2.853  0.00  0.00    +0.000 C 
ATOM     35  C   UNL     1     -17.446  51.538   6.356  0.00  0.00    +0.000 C 
BRANCH  26  36
ATOM     36  O   UNL     1     -13.148  53.787   1.296  0.00  0.00    +0.000 OA
ATOM     37  H   UNL     1     -12.255  53.970   0.956  0.00  0.00    +0.000 HD
ENDBRANCH  26  36
ENDBRANCH  21  25
ENDBRANCH   3  20
TORSDOF 5
ENDMDL
