MODEL 1
REMARK VINA RESULT:      -3.6      0.000      0.000
REMARK  Name = 43806_Diaminocyclohexane.pdbqt.pdb
REMARK  2 active torsions:
REMARK  status: ('A' for Active; 'I' for Inactive)
REMARK    1  A    between atoms: C_1  and  N_7
REMARK    2  A    between atoms: C_2  and  N_10
REMARK                            x       y       z     vdW  Elec       q    Type
REMARK                         _______ _______ _______ _____ _____    ______ ____
ROOT
ATOM      1  C   UNL     1     -25.109  52.042 -31.834  0.00  0.00    +0.000 A 
ATOM      2  C   UNL     1     -26.119  51.429 -32.725  0.00  0.00    +0.000 A 
ATOM      3  C   UNL     1     -24.140  52.870 -32.489  0.00  0.00    +0.000 A 
ATOM      4  C   UNL     1     -26.001  51.778 -34.110  0.00  0.00    +0.000 A 
ATOM      5  C   UNL     1     -23.948  53.278 -33.959  0.00  0.00    +0.000 A 
ATOM      6  C   UNL     1     -25.004  52.661 -34.877  0.00  0.00    +0.000 A 
ENDROOT
BRANCH   1   7
ATOM      7  N   UNL     1     -25.138  51.891 -30.428  0.00  0.00    +0.000 N 
ATOM      8  H   UNL     1     -25.916  52.371 -29.985  0.00  0.00    +0.000 HD
ATOM      9  H   UNL     1     -24.254  52.078 -29.965  0.00  0.00    +0.000 HD
ENDBRANCH   1   7
BRANCH   2  10
ATOM     10  N   UNL     1     -27.083  50.502 -32.264  0.00  0.00    +0.000 N 
ATOM     11  H   UNL     1     -27.181  50.487 -31.254  0.00  0.00    +0.000 HD
ATOM     12  H   UNL     1     -26.993  49.570 -32.656  0.00  0.00    +0.000 HD
ENDBRANCH   2  10
TORSDOF 2
ENDMDL
MODEL 2
REMARK VINA RESULT:      -3.4     37.874     39.221
REMARK  Name = 43806_Diaminocyclohexane.pdbqt.pdb
REMARK  2 active torsions:
REMARK  status: ('A' for Active; 'I' for Inactive)
REMARK    1  A    between atoms: C_1  and  N_7
REMARK    2  A    between atoms: C_2  and  N_10
REMARK                            x       y       z     vdW  Elec       q    Type
REMARK                         _______ _______ _______ _____ _____    ______ ____
ROOT
ATOM      1  C   UNL     1     -18.036  52.768   4.640  0.00  0.00    +0.000 A 
ATOM      2  C   UNL     1     -18.242  53.088   6.069  0.00  0.00    +0.000 A 
ATOM      3  C   UNL     1     -17.415  51.503   4.381  0.00  0.00    +0.000 A 
ATOM      4  C   UNL     1     -17.821  52.071   6.988  0.00  0.00    +0.000 A 
ATOM      5  C   UNL     1     -16.930  50.376   5.307  0.00  0.00    +0.000 A 
ATOM      6  C   UNL     1     -17.163  50.698   6.785  0.00  0.00    +0.000 A 
ENDROOT
BRANCH   1   7
ATOM      7  N   UNL     1     -18.488  53.609   3.596  0.00  0.00    +0.000 N 
ATOM      8  H   UNL     1     -18.163  53.325   2.677  0.00  0.00    +0.000 HD
ATOM      9  H   UNL     1     -18.351  54.601   3.765  0.00  0.00    +0.000 HD
ENDBRANCH   1   7
BRANCH   2  10
ATOM     10  N   UNL     1     -18.744  54.335   6.509  0.00  0.00    +0.000 N 
ATOM     11  H   UNL     1     -19.757  54.388   6.507  0.00  0.00    +0.000 HD
ATOM     12  H   UNL     1     -18.314  55.142   6.068  0.00  0.00    +0.000 HD
ENDBRANCH   2  10
TORSDOF 2
ENDMDL
MODEL 3
REMARK VINA RESULT:      -3.3     27.537     28.612
REMARK  Name = 43806_Diaminocyclohexane.pdbqt.pdb
REMARK  2 active torsions:
REMARK  status: ('A' for Active; 'I' for Inactive)
REMARK    1  A    between atoms: C_1  and  N_7
REMARK    2  A    between atoms: C_2  and  N_10
REMARK                            x       y       z     vdW  Elec       q    Type
REMARK                         _______ _______ _______ _____ _____    ______ ____
ROOT
ATOM      1  C   UNL     1     -34.541  44.482  -6.091  0.00  0.00    +0.000 A 
ATOM      2  C   UNL     1     -33.069  44.631  -6.058  0.00  0.00    +0.000 A 
ATOM      3  C   UNL     1     -35.231  45.423  -6.922  0.00  0.00    +0.000 A 
ATOM      4  C   UNL     1     -32.544  45.674  -6.888  0.00  0.00    +0.000 A 
ATOM      5  C   UNL     1     -34.739  46.566  -7.825  0.00  0.00    +0.000 A 
ATOM      6  C   UNL     1     -33.215  46.706  -7.807  0.00  0.00    +0.000 A 
ENDROOT
BRANCH   1   7
ATOM      7  N   UNL     1     -35.219  43.439  -5.416  0.00  0.00    +0.000 N 
ATOM      8  H   UNL     1     -34.617  42.889  -4.813  0.00  0.00    +0.000 HD
ATOM      9  H   UNL     1     -35.802  42.861  -6.013  0.00  0.00    +0.000 HD
ENDBRANCH   1   7
BRANCH   2  10
ATOM     10  N   UNL     1     -32.241  43.857  -5.211  0.00  0.00    +0.000 N 
ATOM     11  H   UNL     1     -32.141  42.893  -5.513  0.00  0.00    +0.000 HD
ATOM     12  H   UNL     1     -32.462  43.931  -4.224  0.00  0.00    +0.000 HD
ENDBRANCH   2  10
TORSDOF 2
ENDMDL
MODEL 4
REMARK VINA RESULT:      -3.3     27.562     28.573
REMARK  Name = 43806_Diaminocyclohexane.pdbqt.pdb
REMARK  2 active torsions:
REMARK  status: ('A' for Active; 'I' for Inactive)
REMARK    1  A    between atoms: C_1  and  N_7
REMARK    2  A    between atoms: C_2  and  N_10
REMARK                            x       y       z     vdW  Elec       q    Type
REMARK                         _______ _______ _______ _____ _____    ______ ____
ROOT
ATOM      1  C   UNL     1     -33.064  44.589  -6.037  0.00  0.00    +0.000 A 
ATOM      2  C   UNL     1     -34.536  44.445  -6.065  0.00  0.00    +0.000 A 
ATOM      3  C   UNL     1     -32.537  45.628  -6.870  0.00  0.00    +0.000 A 
ATOM      4  C   UNL     1     -35.225  45.389  -6.896  0.00  0.00    +0.000 A 
ATOM      5  C   UNL     1     -33.207  46.663  -7.789  0.00  0.00    +0.000 A 
ATOM      6  C   UNL     1     -34.731  46.528  -7.801  0.00  0.00    +0.000 A 
ENDROOT
BRANCH   1   7
ATOM      7  N   UNL     1     -32.236  43.813  -5.192  0.00  0.00    +0.000 N 
ATOM      8  H   UNL     1     -32.710  43.475  -4.360  0.00  0.00    +0.000 HD
ATOM      9  H   UNL     1     -31.337  44.234  -4.980  0.00  0.00    +0.000 HD
ENDBRANCH   1   7
BRANCH   2  10
ATOM     10  N   UNL     1     -35.216  43.406  -5.387  0.00  0.00    +0.000 N 
ATOM     11  H   UNL     1     -34.865  42.480  -5.609  0.00  0.00    +0.000 HD
ATOM     12  H   UNL     1     -36.228  43.459  -5.442  0.00  0.00    +0.000 HD
ENDBRANCH   2  10
TORSDOF 2
ENDMDL
MODEL 5
REMARK VINA RESULT:      -3.3     31.531     32.348
REMARK  Name = 43806_Diaminocyclohexane.pdbqt.pdb
REMARK  2 active torsions:
REMARK  status: ('A' for Active; 'I' for Inactive)
REMARK    1  A    between atoms: C_1  and  N_7
REMARK    2  A    between atoms: C_2  and  N_10
REMARK                            x       y       z     vdW  Elec       q    Type
REMARK                         _______ _______ _______ _____ _____    ______ ____
ROOT
ATOM      1  C   UNL     1     -20.679  39.456  -2.693  0.00  0.00    +0.000 A 
ATOM      2  C   UNL     1     -21.064  38.739  -3.928  0.00  0.00    +0.000 A 
ATOM      3  C   UNL     1     -19.355  40.003  -2.693  0.00  0.00    +0.000 A 
ATOM      4  C   UNL     1     -20.069  38.723  -4.959  0.00  0.00    +0.000 A 
ATOM      5  C   UNL     1     -18.238  40.016  -3.749  0.00  0.00    +0.000 A 
ATOM      6  C   UNL     1     -18.644  39.293  -5.034  0.00  0.00    +0.000 A 
ENDROOT
BRANCH   1   7
ATOM      7  N   UNL     1     -21.575  39.660  -1.617  0.00  0.00    +0.000 N 
ATOM      8  H   UNL     1     -21.715  40.639  -1.387  0.00  0.00    +0.000 HD
ATOM      9  H   UNL     1     -21.384  39.093  -0.797  0.00  0.00    +0.000 HD
ENDBRANCH   1   7
BRANCH   2  10
ATOM     10  N   UNL     1     -22.292  38.048  -4.061  0.00  0.00    +0.000 N 
ATOM     11  H   UNL     1     -22.932  38.481  -4.719  0.00  0.00    +0.000 HD
ATOM     12  H   UNL     1     -22.742  37.816  -3.181  0.00  0.00    +0.000 HD
ENDBRANCH   2  10
TORSDOF 2
ENDMDL
MODEL 6
REMARK VINA RESULT:      -3.3      0.754      2.406
REMARK  Name = 43806_Diaminocyclohexane.pdbqt.pdb
REMARK  2 active torsions:
REMARK  status: ('A' for Active; 'I' for Inactive)
REMARK    1  A    between atoms: C_1  and  N_7
REMARK    2  A    between atoms: C_2  and  N_10
REMARK                            x       y       z     vdW  Elec       q    Type
REMARK                         _______ _______ _______ _____ _____    ______ ____
ROOT
ATOM      1  C   UNL     1     -25.661  51.955 -33.189  0.00  0.00    +0.000 A 
ATOM      2  C   UNL     1     -24.811  52.350 -32.043  0.00  0.00    +0.000 A 
ATOM      3  C   UNL     1     -25.236  52.453 -34.463  0.00  0.00    +0.000 A 
ATOM      4  C   UNL     1     -23.667  53.145 -32.379  0.00  0.00    +0.000 A 
ATOM      5  C   UNL     1     -24.037  53.313 -34.894  0.00  0.00    +0.000 A 
ATOM      6  C   UNL     1     -23.147  53.703 -33.713  0.00  0.00    +0.000 A 
ENDROOT
BRANCH   1   7
ATOM      7  N   UNL     1     -26.769  51.085 -33.054  0.00  0.00    +0.000 N 
ATOM      8  H   UNL     1     -26.721  50.493 -32.231  0.00  0.00    +0.000 HD
ATOM      9  H   UNL     1     -26.997  50.562 -33.894  0.00  0.00    +0.000 HD
ENDBRANCH   1   7
BRANCH   2  10
ATOM     10  N   UNL     1     -25.140  52.036 -30.704  0.00  0.00    +0.000 N 
ATOM     11  H   UNL     1     -24.693  51.190 -30.364  0.00  0.00    +0.000 HD
ATOM     12  H   UNL     1     -26.133  52.057 -30.498  0.00  0.00    +0.000 HD
ENDBRANCH   2  10
TORSDOF 2
ENDMDL
MODEL 7
REMARK VINA RESULT:      -3.2     27.144     28.400
REMARK  Name = 43806_Diaminocyclohexane.pdbqt.pdb
REMARK  2 active torsions:
REMARK  status: ('A' for Active; 'I' for Inactive)
REMARK    1  A    between atoms: C_1  and  N_7
REMARK    2  A    between atoms: C_2  and  N_10
REMARK                            x       y       z     vdW  Elec       q    Type
REMARK                         _______ _______ _______ _____ _____    ______ ____
ROOT
ATOM      1  C   UNL     1     -17.249  59.618  -6.379  0.00  0.00    +0.000 A 
ATOM      2  C   UNL     1     -17.813  58.669  -5.394  0.00  0.00    +0.000 A 
ATOM      3  C   UNL     1     -17.261  59.165  -7.738  0.00  0.00    +0.000 A 
ATOM      4  C   UNL     1     -18.320  57.447  -5.946  0.00  0.00    +0.000 A 
ATOM      5  C   UNL     1     -17.774  57.874  -8.398  0.00  0.00    +0.000 A 
ATOM      6  C   UNL     1     -18.376  56.902  -7.382  0.00  0.00    +0.000 A 
ENDROOT
BRANCH   1   7
ATOM      7  N   UNL     1     -16.802  60.912  -6.024  0.00  0.00    +0.000 N 
ATOM      8  H   UNL     1     -17.555  61.583  -5.909  0.00  0.00    +0.000 HD
ATOM      9  H   UNL     1     -16.048  61.271  -6.602  0.00  0.00    +0.000 HD
ENDBRANCH   1   7
BRANCH   2  10
ATOM     10  N   UNL     1     -17.785  58.907  -4.000  0.00  0.00    +0.000 N 
ATOM     11  H   UNL     1     -16.894  58.684  -3.568  0.00  0.00    +0.000 HD
ATOM     12  H   UNL     1     -18.570  58.516  -3.490  0.00  0.00    +0.000 HD
ENDBRANCH   2  10
TORSDOF 2
ENDMDL
MODEL 8
REMARK VINA RESULT:      -3.2     25.358     26.561
REMARK  Name = 43806_Diaminocyclohexane.pdbqt.pdb
REMARK  2 active torsions:
REMARK  status: ('A' for Active; 'I' for Inactive)
REMARK    1  A    between atoms: C_1  and  N_7
REMARK    2  A    between atoms: C_2  and  N_10
REMARK                            x       y       z     vdW  Elec       q    Type
REMARK                         _______ _______ _______ _____ _____    ______ ____
ROOT
ATOM      1  C   UNL     1     -24.969  38.038  -9.411  0.00  0.00    +0.000 A 
ATOM      2  C   UNL     1     -24.342  39.349  -9.689  0.00  0.00    +0.000 A 
ATOM      3  C   UNL     1     -26.266  37.847  -9.989  0.00  0.00    +0.000 A 
ATOM      4  C   UNL     1     -25.109  40.227 -10.523  0.00  0.00    +0.000 A 
ATOM      5  C   UNL     1     -27.148  38.740 -10.877  0.00  0.00    +0.000 A 
ATOM      6  C   UNL     1     -26.490  40.088 -11.181  0.00  0.00    +0.000 A 
ENDROOT
BRANCH   1   7
ATOM      7  N   UNL     1     -24.309  37.011  -8.696  0.00  0.00    +0.000 N 
ATOM      8  H   UNL     1     -24.195  36.155  -9.228  0.00  0.00    +0.000 HD
ATOM      9  H   UNL     1     -24.678  36.842  -7.765  0.00  0.00    +0.000 HD
ENDBRANCH   1   7
BRANCH   2  10
ATOM     10  N   UNL     1     -23.112  39.746  -9.112  0.00  0.00    +0.000 N 
ATOM     11  H   UNL     1     -23.084  40.727  -8.853  0.00  0.00    +0.000 HD
ATOM     12  H   UNL     1     -22.291  39.461  -9.635  0.00  0.00    +0.000 HD
ENDBRANCH   2  10
TORSDOF 2
ENDMDL
MODEL 9
REMARK VINA RESULT:      -3.1     38.875     40.129
REMARK  Name = 43806_Diaminocyclohexane.pdbqt.pdb
REMARK  2 active torsions:
REMARK  status: ('A' for Active; 'I' for Inactive)
REMARK    1  A    between atoms: C_1  and  N_7
REMARK    2  A    between atoms: C_2  and  N_10
REMARK                            x       y       z     vdW  Elec       q    Type
REMARK                         _______ _______ _______ _____ _____    ______ ____
ROOT
ATOM      1  C   UNL     1     -29.265  51.271   7.335  0.00  0.00    +0.000 A 
ATOM      2  C   UNL     1     -29.863  51.278   5.982  0.00  0.00    +0.000 A 
ATOM      3  C   UNL     1     -29.985  50.516   8.317  0.00  0.00    +0.000 A 
ATOM      4  C   UNL     1     -31.058  50.500   5.840  0.00  0.00    +0.000 A 
ATOM      5  C   UNL     1     -31.268  49.673   8.241  0.00  0.00    +0.000 A 
ATOM      6  C   UNL     1     -31.875  49.662   6.836  0.00  0.00    +0.000 A 
ENDROOT
BRANCH   1   7
ATOM      7  N   UNL     1     -28.030  51.898   7.628  0.00  0.00    +0.000 N 
ATOM      8  H   UNL     1     -27.223  51.366   7.319  0.00  0.00    +0.000 HD
ATOM      9  H   UNL     1     -27.938  52.219   8.587  0.00  0.00    +0.000 HD
ENDBRANCH   1   7
BRANCH   2  10
ATOM     10  N   UNL     1     -29.343  52.056   4.920  0.00  0.00    +0.000 N 
ATOM     11  H   UNL     1     -28.959  51.502   4.162  0.00  0.00    +0.000 HD
ATOM     12  H   UNL     1     -28.718  52.800   5.210  0.00  0.00    +0.000 HD
ENDBRANCH   2  10
TORSDOF 2
ENDMDL
