MODEL 1
REMARK VINA RESULT:      -7.1      0.000      0.000
REMARK  Name = 44234954_SipholenolL.pdbqt.pdb
REMARK  5 active torsions:
REMARK  status: ('A' for Active; 'I' for Inactive)
REMARK    1  A    between atoms: C_3  and  C_20
REMARK    2  A    between atoms: C_4  and  O_16
REMARK    3  A    between atoms: C_13  and  O_18
REMARK    4  A    between atoms: C_21  and  C_25
REMARK    5  A    between atoms: C_26  and  O_36
REMARK                            x       y       z     vdW  Elec       q    Type
REMARK                         _______ _______ _______ _____ _____    ______ ____
ROOT
ATOM      1  O   UNL     1     -19.234  55.924 -31.952  0.00  0.00    +0.000 OA
ATOM      2  C   UNL     1     -18.113  56.039 -29.602  0.00  0.00    +0.000 C 
ATOM      3  C   UNL     1     -16.757  56.090 -28.895  0.00  0.00    +0.000 C 
ATOM      4  C   UNL     1     -15.690  57.048 -29.391  0.00  0.00    +0.000 C 
ATOM      5  C   UNL     1     -18.086  56.162 -31.189  0.00  0.00    +0.000 C 
ATOM      6  C   UNL     1     -18.748  54.723 -29.435  0.00  0.00    +0.000 C 
ATOM      7  C   UNL     1     -15.937  57.330 -30.793  0.00  0.00    +0.000 C 
ATOM      8  C   UNL     1     -17.039  56.941 -31.722  0.00  0.00    +0.000 C 
ATOM      9  C   UNL     1     -19.039  57.150 -29.042  0.00  0.00    +0.000 C 
ATOM     10  C   UNL     1     -19.502  53.677 -30.216  0.00  0.00    +0.000 C 
ATOM     11  C   UNL     1     -19.422  54.611 -32.594  0.00  0.00    +0.000 C 
ATOM     12  C   UNL     1     -15.582  58.291 -28.512  0.00  0.00    +0.000 C 
ATOM     13  C   UNL     1     -19.880  53.520 -31.570  0.00  0.00    +0.000 C 
ATOM     14  C   UNL     1     -20.546  54.818 -33.645  0.00  0.00    +0.000 C 
ATOM     15  C   UNL     1     -18.107  54.130 -33.284  0.00  0.00    +0.000 C 
ENDROOT
BRANCH   4  16
ATOM     16  O   UNL     1     -14.429  56.418 -29.286  0.00  0.00    +0.000 OA
ATOM     17  H   UNL     1     -13.901  56.966 -29.896  0.00  0.00    +0.000 HD
ENDBRANCH   4  16
BRANCH  13  18
ATOM     18  O   UNL     1     -20.438  52.315 -31.979  0.00  0.00    +0.000 OA
ATOM     19  H   UNL     1     -19.764  51.662 -32.237  0.00  0.00    +0.000 HD
ENDBRANCH  13  18
BRANCH   3  20
ATOM     20  C   UNL     1     -16.503  55.287 -27.730  0.00  0.00    +0.000 C 
ATOM     21  C   UNL     1     -16.201  54.425 -26.500  0.00  0.00    +0.000 C 
BRANCH  21  25
ATOM     22  C   UNL     1     -15.711  52.097 -25.498  0.00  0.00    +0.000 A 
ATOM     23  C   UNL     1     -15.316  51.244 -24.230  0.00  0.00    +0.000 A 
ATOM     24  C   UNL     1     -15.976  51.422 -26.907  0.00  0.00    +0.000 C 
ATOM     25  C   UNL     1     -15.868  53.627 -25.362  0.00  0.00    +0.000 A 
ATOM     26  C   UNL     1     -15.082  49.718 -24.143  0.00  0.00    +0.000 C 
ATOM     27  C   UNL     1     -15.778  49.987 -26.683  0.00  0.00    +0.000 C 
ATOM     28  C   UNL     1     -15.385  49.199 -25.462  0.00  0.00    +0.000 C 
ATOM     29  C   UNL     1     -15.224  52.076 -23.076  0.00  0.00    +0.000 A 
ATOM     30  C   UNL     1     -15.704  54.344 -24.067  0.00  0.00    +0.000 A 
ATOM     31  C   UNL     1     -14.932  51.929 -27.932  0.00  0.00    +0.000 C 
ATOM     32  C   UNL     1     -17.435  51.670 -27.345  0.00  0.00    +0.000 C 
ATOM     33  C   UNL     1     -15.420  53.563 -23.074  0.00  0.00    +0.000 A 
ATOM     34  C   UNL     1     -13.668  49.399 -23.676  0.00  0.00    +0.000 C 
ATOM     35  C   UNL     1     -15.705  55.833 -23.872  0.00  0.00    +0.000 C 
BRANCH  26  36
ATOM     36  O   UNL     1     -15.963  49.161 -23.202  0.00  0.00    +0.000 OA
ATOM     37  H   UNL     1     -15.432  48.413 -22.871  0.00  0.00    +0.000 HD
ENDBRANCH  26  36
ENDBRANCH  21  25
ENDBRANCH   3  20
TORSDOF 5
ENDMDL
MODEL 2
REMARK VINA RESULT:      -7.1     30.932     35.963
REMARK  Name = 44234954_SipholenolL.pdbqt.pdb
REMARK  5 active torsions:
REMARK  status: ('A' for Active; 'I' for Inactive)
REMARK    1  A    between atoms: C_3  and  C_20
REMARK    2  A    between atoms: C_4  and  O_16
REMARK    3  A    between atoms: C_13  and  O_18
REMARK    4  A    between atoms: C_21  and  C_25
REMARK    5  A    between atoms: C_26  and  O_36
REMARK                            x       y       z     vdW  Elec       q    Type
REMARK                         _______ _______ _______ _____ _____    ______ ____
ROOT
ATOM      1  O   UNL     1     -21.689  55.361  10.538  0.00  0.00    +0.000 OA
ATOM      2  C   UNL     1     -19.856  53.596   9.976  0.00  0.00    +0.000 C 
ATOM      3  C   UNL     1     -18.372  53.440   9.635  0.00  0.00    +0.000 C 
ATOM      4  C   UNL     1     -17.333  54.176  10.461  0.00  0.00    +0.000 C 
ATOM      5  C   UNL     1     -20.332  55.053  10.405  0.00  0.00    +0.000 C 
ATOM      6  C   UNL     1     -20.698  53.365   8.791  0.00  0.00    +0.000 C 
ATOM      7  C   UNL     1     -17.959  55.342  11.056  0.00  0.00    +0.000 C 
ATOM      8  C   UNL     1     -19.367  55.838  11.069  0.00  0.00    +0.000 C 
ATOM      9  C   UNL     1     -20.243  52.604  11.103  0.00  0.00    +0.000 C 
ATOM     10  C   UNL     1     -21.900  53.932   8.078  0.00  0.00    +0.000 C 
ATOM     11  C   UNL     1     -22.394  56.041   9.437  0.00  0.00    +0.000 C 
ATOM     12  C   UNL     1     -16.641  53.257  11.462  0.00  0.00    +0.000 C 
ATOM     13  C   UNL     1     -22.733  55.059   8.266  0.00  0.00    +0.000 C 
ATOM     14  C   UNL     1     -23.718  56.568  10.051  0.00  0.00    +0.000 C 
ATOM     15  C   UNL     1     -21.543  57.220   8.870  0.00  0.00    +0.000 C 
ENDROOT
BRANCH   4  16
ATOM     16  O   UNL     1     -16.303  54.621   9.602  0.00  0.00    +0.000 OA
ATOM     17  H   UNL     1     -16.738  55.383   9.176  0.00  0.00    +0.000 HD
ENDBRANCH   4  16
BRANCH  13  18
ATOM     18  O   UNL     1     -23.670  55.374   7.289  0.00  0.00    +0.000 OA
ATOM     19  H   UNL     1     -23.264  55.773   6.499  0.00  0.00    +0.000 HD
ENDBRANCH  13  18
BRANCH   3  20
ATOM     20  C   UNL     1     -17.947  52.556   8.583  0.00  0.00    +0.000 C 
ATOM     21  C   UNL     1     -17.497  51.588   7.485  0.00  0.00    +0.000 C 
BRANCH  21  25
ATOM     22  C   UNL     1     -16.975  51.075   5.009  0.00  0.00    +0.000 A 
ATOM     23  C   UNL     1     -16.503  50.022   3.933  0.00  0.00    +0.000 A 
ATOM     24  C   UNL     1     -17.353  52.562   4.610  0.00  0.00    +0.000 C 
ATOM     25  C   UNL     1     -17.096  50.646   6.488  0.00  0.00    +0.000 A 
ATOM     26  C   UNL     1     -16.289  50.237   2.417  0.00  0.00    +0.000 C 
ATOM     27  C   UNL     1     -17.164  52.624   3.158  0.00  0.00    +0.000 C 
ATOM     28  C   UNL     1     -16.696  51.604   2.154  0.00  0.00    +0.000 C 
ATOM     29  C   UNL     1     -16.313  48.743   4.535  0.00  0.00    +0.000 A 
ATOM     30  C   UNL     1     -16.825  49.256   6.950  0.00  0.00    +0.000 A 
ATOM     31  C   UNL     1     -16.378  53.549   5.296  0.00  0.00    +0.000 C 
ATOM     32  C   UNL     1     -18.836  52.836   4.941  0.00  0.00    +0.000 C 
ATOM     33  C   UNL     1     -16.484  48.450   5.997  0.00  0.00    +0.000 A 
ATOM     34  C   UNL     1     -14.851  49.945   2.013  0.00  0.00    +0.000 C 
ATOM     35  C   UNL     1     -16.787  48.788   8.376  0.00  0.00    +0.000 C 
BRANCH  26  36
ATOM     36  O   UNL     1     -17.109  49.353   1.697  0.00  0.00    +0.000 OA
ATOM     37  H   UNL     1     -17.289  49.879   0.896  0.00  0.00    +0.000 HD
ENDBRANCH  26  36
ENDBRANCH  21  25
ENDBRANCH   3  20
TORSDOF 5
ENDMDL
MODEL 3
REMARK VINA RESULT:      -7.0     22.820     25.665
REMARK  Name = 44234954_SipholenolL.pdbqt.pdb
REMARK  5 active torsions:
REMARK  status: ('A' for Active; 'I' for Inactive)
REMARK    1  A    between atoms: C_3  and  C_20
REMARK    2  A    between atoms: C_4  and  O_16
REMARK    3  A    between atoms: C_13  and  O_18
REMARK    4  A    between atoms: C_21  and  C_25
REMARK    5  A    between atoms: C_26  and  O_36
REMARK                            x       y       z     vdW  Elec       q    Type
REMARK                         _______ _______ _______ _____ _____    ______ ____
ROOT
ATOM      1  O   UNL     1     -35.811  44.922  -9.073  0.00  0.00    +0.000 OA
ATOM      2  C   UNL     1     -35.862  45.161 -11.668  0.00  0.00    +0.000 C 
ATOM      3  C   UNL     1     -34.973  45.385 -12.893  0.00  0.00    +0.000 C 
ATOM      4  C   UNL     1     -33.694  44.583 -13.047  0.00  0.00    +0.000 C 
ATOM      5  C   UNL     1     -35.110  44.931 -10.284  0.00  0.00    +0.000 C 
ATOM      6  C   UNL     1     -36.652  46.363 -11.360  0.00  0.00    +0.000 C 
ATOM      7  C   UNL     1     -33.250  44.165 -11.730  0.00  0.00    +0.000 C 
ATOM      8  C   UNL     1     -33.853  44.299 -10.371  0.00  0.00    +0.000 C 
ATOM      9  C   UNL     1     -36.806  43.955 -11.917  0.00  0.00    +0.000 C 
ATOM     10  C   UNL     1     -37.090  47.212 -10.193  0.00  0.00    +0.000 C 
ATOM     11  C   UNL     1     -35.840  46.136  -8.239  0.00  0.00    +0.000 C 
ATOM     12  C   UNL     1     -33.850  43.441 -14.046  0.00  0.00    +0.000 C 
ATOM     13  C   UNL     1     -36.833  47.207  -8.803  0.00  0.00    +0.000 C 
ATOM     14  C   UNL     1     -36.339  45.672  -6.844  0.00  0.00    +0.000 C 
ATOM     15  C   UNL     1     -34.422  46.777  -8.130  0.00  0.00    +0.000 C 
ENDROOT
BRANCH   4  16
ATOM     16  O   UNL     1     -32.698  45.418 -13.601  0.00  0.00    +0.000 OA
ATOM     17  H   UNL     1     -32.738  46.178 -12.991  0.00  0.00    +0.000 HD
ENDBRANCH   4  16
BRANCH  13  18
ATOM     18  O   UNL     1     -37.283  48.272  -8.031  0.00  0.00    +0.000 OA
ATOM     19  H   UNL     1     -36.937  49.128  -8.340  0.00  0.00    +0.000 HD
ENDBRANCH  13  18
BRANCH   3  20
ATOM     20  C   UNL     1     -35.366  46.300 -13.930  0.00  0.00    +0.000 C 
ATOM     21  C   UNL     1     -35.757  47.295 -15.028  0.00  0.00    +0.000 C 
BRANCH  21  25
ATOM     22  C   UNL     1     -35.437  48.118 -17.454  0.00  0.00    +0.000 A 
ATOM     23  C   UNL     1     -35.827  49.159 -18.574  0.00  0.00    +0.000 A 
ATOM     24  C   UNL     1     -34.390  46.959 -17.721  0.00  0.00    +0.000 C 
ATOM     25  C   UNL     1     -36.073  48.241 -16.052  0.00  0.00    +0.000 A 
ATOM     26  C   UNL     1     -35.338  49.211 -20.040  0.00  0.00    +0.000 C 
ATOM     27  C   UNL     1     -33.965  47.146 -19.112  0.00  0.00    +0.000 C 
ATOM     28  C   UNL     1     -34.365  48.143 -20.166  0.00  0.00    +0.000 C 
ATOM     29  C   UNL     1     -36.714  50.146 -18.053  0.00  0.00    +0.000 A 
ATOM     30  C   UNL     1     -37.018  49.332 -15.686  0.00  0.00    +0.000 A 
ATOM     31  C   UNL     1     -35.087  45.584 -17.581  0.00  0.00    +0.000 C 
ATOM     32  C   UNL     1     -33.170  47.125 -16.791  0.00  0.00    +0.000 C 
ATOM     33  C   UNL     1     -37.249  50.163 -16.651  0.00  0.00    +0.000 A 
ATOM     34  C   UNL     1     -36.499  49.091 -21.017  0.00  0.00    +0.000 C 
ATOM     35  C   UNL     1     -37.781  49.449 -14.399  0.00  0.00    +0.000 C 
BRANCH  26  36
ATOM     36  O   UNL     1     -34.717  50.447 -20.285  0.00  0.00    +0.000 OA
ATOM     37  H   UNL     1     -34.004  50.431 -19.621  0.00  0.00    +0.000 HD
ENDBRANCH  26  36
ENDBRANCH  21  25
ENDBRANCH   3  20
TORSDOF 5
ENDMDL
MODEL 4
REMARK VINA RESULT:      -7.0      6.528     10.528
REMARK  Name = 44234954_SipholenolL.pdbqt.pdb
REMARK  5 active torsions:
REMARK  status: ('A' for Active; 'I' for Inactive)
REMARK    1  A    between atoms: C_3  and  C_20
REMARK    2  A    between atoms: C_4  and  O_16
REMARK    3  A    between atoms: C_13  and  O_18
REMARK    4  A    between atoms: C_21  and  C_25
REMARK    5  A    between atoms: C_26  and  O_36
REMARK                            x       y       z     vdW  Elec       q    Type
REMARK                         _______ _______ _______ _____ _____    ______ ____
ROOT
ATOM      1  O   UNL     1     -18.052  61.733 -17.070  0.00  0.00    +0.000 OA
ATOM      2  C   UNL     1     -16.784  60.521 -18.997  0.00  0.00    +0.000 C 
ATOM      3  C   UNL     1     -16.880  60.143 -20.476  0.00  0.00    +0.000 C 
ATOM      4  C   UNL     1     -17.308  61.189 -21.490  0.00  0.00    +0.000 C 
ATOM      5  C   UNL     1     -17.919  61.488 -18.440  0.00  0.00    +0.000 C 
ATOM      6  C   UNL     1     -16.974  59.343 -18.136  0.00  0.00    +0.000 C 
ATOM      7  C   UNL     1     -18.101  62.195 -20.807  0.00  0.00    +0.000 C 
ATOM      8  C   UNL     1     -18.450  62.404 -19.371  0.00  0.00    +0.000 C 
ATOM      9  C   UNL     1     -15.405  61.171 -18.709  0.00  0.00    +0.000 C 
ATOM     10  C   UNL     1     -17.686  58.911 -16.879  0.00  0.00    +0.000 C 
ATOM     11  C   UNL     1     -19.055  60.988 -16.290  0.00  0.00    +0.000 C 
ATOM     12  C   UNL     1     -16.123  61.749 -22.271  0.00  0.00    +0.000 C 
ATOM     13  C   UNL     1     -18.587  59.527 -15.980  0.00  0.00    +0.000 C 
ATOM     14  C   UNL     1     -19.205  61.763 -14.953  0.00  0.00    +0.000 C 
ATOM     15  C   UNL     1     -20.420  60.926 -17.044  0.00  0.00    +0.000 C 
ENDROOT
BRANCH   4  16
ATOM     16  O   UNL     1     -18.126  60.571 -22.462  0.00  0.00    +0.000 OA
ATOM     17  H   UNL     1     -18.919  61.137 -22.420  0.00  0.00    +0.000 HD
ENDBRANCH   4  16
BRANCH  13  18
ATOM     18  O   UNL     1     -19.190  58.754 -14.995  0.00  0.00    +0.000 OA
ATOM     19  H   UNL     1     -20.161  58.823 -15.011  0.00  0.00    +0.000 HD
ENDBRANCH  13  18
BRANCH   3  20
ATOM     20  C   UNL     1     -16.510  58.829 -20.927  0.00  0.00    +0.000 C 
ATOM     21  C   UNL     1     -16.143  57.429 -21.430  0.00  0.00    +0.000 C 
BRANCH  21  25
ATOM     22  C   UNL     1     -15.926  55.844 -23.456  0.00  0.00    +0.000 A 
ATOM     23  C   UNL     1     -15.542  54.413 -23.998  0.00  0.00    +0.000 A 
ATOM     24  C   UNL     1     -16.437  56.991 -24.423  0.00  0.00    +0.000 C 
ATOM     25  C   UNL     1     -15.825  56.133 -21.942  0.00  0.00    +0.000 A 
ATOM     26  C   UNL     1     -15.543  53.914 -25.461  0.00  0.00    +0.000 C 
ATOM     27  C   UNL     1     -16.446  56.385 -25.758  0.00  0.00    +0.000 C 
ATOM     28  C   UNL     1     -16.059  55.017 -26.250  0.00  0.00    +0.000 C 
ATOM     29  C   UNL     1     -15.201  53.544 -22.919  0.00  0.00    +0.000 A 
ATOM     30  C   UNL     1     -15.417  55.102 -20.948  0.00  0.00    +0.000 A 
ATOM     31  C   UNL     1     -15.438  58.173 -24.403  0.00  0.00    +0.000 C 
ATOM     32  C   UNL     1     -17.876  57.400 -24.042  0.00  0.00    +0.000 C 
ATOM     33  C   UNL     1     -15.159  53.948 -21.474  0.00  0.00    +0.000 A 
ATOM     34  C   UNL     1     -14.157  53.457 -25.893  0.00  0.00    +0.000 C 
ATOM     35  C   UNL     1     -15.164  55.332 -19.487  0.00  0.00    +0.000 C 
BRANCH  26  36
ATOM     36  O   UNL     1     -16.400  52.808 -25.580  0.00  0.00    +0.000 OA
ATOM     37  H   UNL     1     -17.271  53.238 -25.497  0.00  0.00    +0.000 HD
ENDBRANCH  26  36
ENDBRANCH  21  25
ENDBRANCH   3  20
TORSDOF 5
ENDMDL
MODEL 5
REMARK VINA RESULT:      -6.6      2.976      6.279
REMARK  Name = 44234954_SipholenolL.pdbqt.pdb
REMARK  5 active torsions:
REMARK  status: ('A' for Active; 'I' for Inactive)
REMARK    1  A    between atoms: C_3  and  C_20
REMARK    2  A    between atoms: C_4  and  O_16
REMARK    3  A    between atoms: C_13  and  O_18
REMARK    4  A    between atoms: C_21  and  C_25
REMARK    5  A    between atoms: C_26  and  O_36
REMARK                            x       y       z     vdW  Elec       q    Type
REMARK                         _______ _______ _______ _____ _____    ______ ____
ROOT
ATOM      1  O   UNL     1     -23.368  53.984 -34.985  0.00  0.00    +0.000 OA
ATOM      2  C   UNL     1     -20.902  54.609 -34.421  0.00  0.00    +0.000 C 
ATOM      3  C   UNL     1     -19.451  54.168 -34.627  0.00  0.00    +0.000 C 
ATOM      4  C   UNL     1     -18.977  53.775 -36.014  0.00  0.00    +0.000 C 
ATOM      5  C   UNL     1     -22.005  53.810 -35.245  0.00  0.00    +0.000 C 
ATOM      6  C   UNL     1     -21.342  54.352 -33.042  0.00  0.00    +0.000 C 
ATOM      7  C   UNL     1     -20.124  53.336 -36.786  0.00  0.00    +0.000 C 
ATOM      8  C   UNL     1     -21.588  53.308 -36.494  0.00  0.00    +0.000 C 
ATOM      9  C   UNL     1     -21.043  56.118 -34.752  0.00  0.00    +0.000 C 
ATOM     10  C   UNL     1     -22.519  53.814 -32.267  0.00  0.00    +0.000 C 
ATOM     11  C   UNL     1     -24.076  53.015 -34.130  0.00  0.00    +0.000 C 
ATOM     12  C   UNL     1     -18.162  54.882 -36.676  0.00  0.00    +0.000 C 
ATOM     13  C   UNL     1     -23.762  53.235 -32.613  0.00  0.00    +0.000 C 
ATOM     14  C   UNL     1     -25.588  53.272 -34.373  0.00  0.00    +0.000 C 
ATOM     15  C   UNL     1     -23.700  51.550 -34.512  0.00  0.00    +0.000 C 
ENDROOT
BRANCH   4  16
ATOM     16  O   UNL     1     -18.084  52.685 -35.897  0.00  0.00    +0.000 OA
ATOM     17  H   UNL     1     -18.441  52.242 -35.105  0.00  0.00    +0.000 HD
ENDBRANCH   4  16
BRANCH  13  18
ATOM     18  O   UNL     1     -24.551  52.684 -31.610  0.00  0.00    +0.000 OA
ATOM     19  H   UNL     1     -25.461  53.029 -31.621  0.00  0.00    +0.000 HD
ENDBRANCH  13  18
BRANCH   3  20
ATOM     20  C   UNL     1     -18.515  54.181 -33.535  0.00  0.00    +0.000 C 
ATOM     21  C   UNL     1     -17.505  54.164 -32.383  0.00  0.00    +0.000 C 
BRANCH  21  25
ATOM     22  C   UNL     1     -16.978  54.139 -29.856  0.00  0.00    +0.000 A 
ATOM     23  C   UNL     1     -15.886  54.056 -28.720  0.00  0.00    +0.000 A 
ATOM     24  C   UNL     1     -18.521  54.271 -29.521  0.00  0.00    +0.000 C 
ATOM     25  C   UNL     1     -16.534  54.115 -31.335  0.00  0.00    +0.000 A 
ATOM     26  C   UNL     1     -16.102  54.038 -27.189  0.00  0.00    +0.000 C 
ATOM     27  C   UNL     1     -18.590  54.298 -28.057  0.00  0.00    +0.000 C 
ATOM     28  C   UNL     1     -17.530  54.201 -26.993  0.00  0.00    +0.000 C 
ATOM     29  C   UNL     1     -14.577  54.033 -29.284  0.00  0.00    +0.000 A 
ATOM     30  C   UNL     1     -15.105  54.058 -31.749  0.00  0.00    +0.000 A 
ATOM     31  C   UNL     1     -19.277  53.027 -30.046  0.00  0.00    +0.000 C 
ATOM     32  C   UNL     1     -19.070  55.602 -30.078  0.00  0.00    +0.000 C 
ATOM     33  C   UNL     1     -14.278  54.033 -30.754  0.00  0.00    +0.000 A 
ATOM     34  C   UNL     1     -15.547  52.765 -26.565  0.00  0.00    +0.000 C 
ATOM     35  C   UNL     1     -14.595  53.896 -33.151  0.00  0.00    +0.000 C 
BRANCH  26  36
ATOM     36  O   UNL     1     -15.419  55.117 -26.605  0.00  0.00    +0.000 OA
ATOM     37  H   UNL     1     -16.119  55.795 -26.592  0.00  0.00    +0.000 HD
ENDBRANCH  26  36
ENDBRANCH  21  25
ENDBRANCH   3  20
TORSDOF 5
ENDMDL
MODEL 6
REMARK VINA RESULT:      -6.4     28.661     32.172
REMARK  Name = 44234954_SipholenolL.pdbqt.pdb
REMARK  5 active torsions:
REMARK  status: ('A' for Active; 'I' for Inactive)
REMARK    1  A    between atoms: C_3  and  C_20
REMARK    2  A    between atoms: C_4  and  O_16
REMARK    3  A    between atoms: C_13  and  O_18
REMARK    4  A    between atoms: C_21  and  C_25
REMARK    5  A    between atoms: C_26  and  O_36
REMARK                            x       y       z     vdW  Elec       q    Type
REMARK                         _______ _______ _______ _____ _____    ______ ____
ROOT
ATOM      1  O   UNL     1     -15.288  44.390   3.166  0.00  0.00    +0.000 OA
ATOM      2  C   UNL     1     -15.134  46.667   1.908  0.00  0.00    +0.000 C 
ATOM      3  C   UNL     1     -14.145  47.716   1.392  0.00  0.00    +0.000 C 
ATOM      4  C   UNL     1     -12.914  47.270   0.624  0.00  0.00    +0.000 C 
ATOM      5  C   UNL     1     -14.502  45.325   2.483  0.00  0.00    +0.000 C 
ATOM      6  C   UNL     1     -15.862  47.161   3.087  0.00  0.00    +0.000 C 
ATOM      7  C   UNL     1     -12.597  45.908   1.011  0.00  0.00    +0.000 C 
ATOM      8  C   UNL     1     -13.287  44.921   1.894  0.00  0.00    +0.000 C 
ATOM      9  C   UNL     1     -16.135  46.294   0.784  0.00  0.00    +0.000 C 
ATOM     10  C   UNL     1     -16.326  46.715   4.450  0.00  0.00    +0.000 C 
ATOM     11  C   UNL     1     -15.297  44.383   4.638  0.00  0.00    +0.000 C 
ATOM     12  C   UNL     1     -13.074  47.473  -0.880  0.00  0.00    +0.000 C 
ATOM     13  C   UNL     1     -16.172  45.542   5.223  0.00  0.00    +0.000 C 
ATOM     14  C   UNL     1     -15.926  43.023   5.045  0.00  0.00    +0.000 C 
ATOM     15  C   UNL     1     -13.850  44.511   5.209  0.00  0.00    +0.000 C 
ENDROOT
BRANCH   4  16
ATOM     16  O   UNL     1     -11.827  48.095   0.989  0.00  0.00    +0.000 OA
ATOM     17  H   UNL     1     -12.291  48.930   1.189  0.00  0.00    +0.000 HD
ENDBRANCH   4  16
BRANCH  13  18
ATOM     18  O   UNL     1     -16.605  45.543   6.544  0.00  0.00    +0.000 OA
ATOM     19  H   UNL     1     -16.222  44.812   7.061  0.00  0.00    +0.000 HD
ENDBRANCH  13  18
BRANCH   3  20
ATOM     20  C   UNL     1     -14.399  49.119   1.573  0.00  0.00    +0.000 C 
ATOM     21  C   UNL     1     -14.658  50.612   1.799  0.00  0.00    +0.000 C 
BRANCH  21  25
ATOM     22  C   UNL     1     -15.844  52.462   3.154  0.00  0.00    +0.000 A 
ATOM     23  C   UNL     1     -16.034  54.005   3.428  0.00  0.00    +0.000 A 
ATOM     24  C   UNL     1     -16.648  51.366   3.969  0.00  0.00    +0.000 C 
ATOM     25  C   UNL     1     -14.867  52.004   2.049  0.00  0.00    +0.000 A 
ATOM     26  C   UNL     1     -16.930  54.682   4.490  0.00  0.00    +0.000 C 
ATOM     27  C   UNL     1     -17.492  52.126   4.895  0.00  0.00    +0.000 C 
ATOM     28  C   UNL     1     -17.643  53.603   5.146  0.00  0.00    +0.000 C 
ATOM     29  C   UNL     1     -15.267  54.775   2.505  0.00  0.00    +0.000 A 
ATOM     30  C   UNL     1     -14.115  52.959   1.188  0.00  0.00    +0.000 A 
ATOM     31  C   UNL     1     -15.661  50.490   4.777  0.00  0.00    +0.000 C 
ATOM     32  C   UNL     1     -17.547  50.553   3.013  0.00  0.00    +0.000 C 
ATOM     33  C   UNL     1     -14.362  54.201   1.454  0.00  0.00    +0.000 A 
ATOM     34  C   UNL     1     -16.109  55.535   5.447  0.00  0.00    +0.000 C 
ATOM     35  C   UNL     1     -13.052  52.604   0.190  0.00  0.00    +0.000 C 
BRANCH  26  36
ATOM     36  O   UNL     1     -17.846  55.537   3.856  0.00  0.00    +0.000 OA
ATOM     37  H   UNL     1     -18.083  56.132   4.591  0.00  0.00    +0.000 HD
ENDBRANCH  26  36
ENDBRANCH  21  25
ENDBRANCH   3  20
TORSDOF 5
ENDMDL
MODEL 7
REMARK VINA RESULT:      -6.3     14.929     19.941
REMARK  Name = 44234954_SipholenolL.pdbqt.pdb
REMARK  5 active torsions:
REMARK  status: ('A' for Active; 'I' for Inactive)
REMARK    1  A    between atoms: C_3  and  C_20
REMARK    2  A    between atoms: C_4  and  O_16
REMARK    3  A    between atoms: C_13  and  O_18
REMARK    4  A    between atoms: C_21  and  C_25
REMARK    5  A    between atoms: C_26  and  O_36
REMARK                            x       y       z     vdW  Elec       q    Type
REMARK                         _______ _______ _______ _____ _____    ______ ____
ROOT
ATOM      1  O   UNL     1     -11.052  48.121  -7.281  0.00  0.00    +0.000 OA
ATOM      2  C   UNL     1     -11.473  46.971  -9.581  0.00  0.00    +0.000 C 
ATOM      3  C   UNL     1     -11.956  47.233 -11.010  0.00  0.00    +0.000 C 
ATOM      4  C   UNL     1     -11.426  48.435 -11.770  0.00  0.00    +0.000 C 
ATOM      5  C   UNL     1     -11.286  48.251  -8.654  0.00  0.00    +0.000 C 
ATOM      6  C   UNL     1     -12.476  46.215  -8.815  0.00  0.00    +0.000 C 
ATOM      7  C   UNL     1     -11.002  49.437 -10.810  0.00  0.00    +0.000 C 
ATOM      8  C   UNL     1     -10.914  49.437  -9.320  0.00  0.00    +0.000 C 
ATOM      9  C   UNL     1     -10.133  46.191  -9.615  0.00  0.00    +0.000 C 
ATOM     10  C   UNL     1     -13.134  46.181  -7.459  0.00  0.00    +0.000 C 
ATOM     11  C   UNL     1     -12.171  48.265  -6.334  0.00  0.00    +0.000 C 
ATOM     12  C   UNL     1     -10.355  48.046 -12.784  0.00  0.00    +0.000 C 
ATOM     13  C   UNL     1     -13.073  46.986  -6.298  0.00  0.00    +0.000 C 
ATOM     14  C   UNL     1     -11.515  48.458  -4.940  0.00  0.00    +0.000 C 
ATOM     15  C   UNL     1     -13.060  49.494  -6.698  0.00  0.00    +0.000 C 
ENDROOT
BRANCH   4  16
ATOM     16  O   UNL     1     -12.475  48.983 -12.541  0.00  0.00    +0.000 OA
ATOM     17  H   UNL     1     -12.350  48.508 -13.384  0.00  0.00    +0.000 HD
ENDBRANCH   4  16
BRANCH  13  18
ATOM     18  O   UNL     1     -13.970  46.748  -5.264  0.00  0.00    +0.000 OA
ATOM     19  H   UNL     1     -14.826  46.412  -5.584  0.00  0.00    +0.000 HD
ENDBRANCH  13  18
BRANCH   3  20
ATOM     20  C   UNL     1     -12.855  46.321 -11.663  0.00  0.00    +0.000 C 
ATOM     21  C   UNL     1     -13.827  45.340 -12.326  0.00  0.00    +0.000 C 
BRANCH  21  25
ATOM     22  C   UNL     1     -15.388  44.714 -14.285  0.00  0.00    +0.000 A 
ATOM     23  C   UNL     1     -16.395  43.674 -14.911  0.00  0.00    +0.000 A 
ATOM     24  C   UNL     1     -15.017  46.065 -15.027  0.00  0.00    +0.000 C 
ATOM     25  C   UNL     1     -14.762  44.426 -12.903  0.00  0.00    +0.000 A 
ATOM     26  C   UNL     1     -17.113  43.745 -16.278  0.00  0.00    +0.000 C 
ATOM     27  C   UNL     1     -15.794  46.040 -16.270  0.00  0.00    +0.000 C 
ATOM     28  C   UNL     1     -16.739  45.024 -16.851  0.00  0.00    +0.000 C 
ATOM     29  C   UNL     1     -16.625  42.594 -14.008  0.00  0.00    +0.000 A 
ATOM     30  C   UNL     1     -15.097  43.216 -12.101  0.00  0.00    +0.000 A 
ATOM     31  C   UNL     1     -13.507  46.075 -15.368  0.00  0.00    +0.000 C 
ATOM     32  C   UNL     1     -15.460  47.274 -14.176  0.00  0.00    +0.000 C 
ATOM     33  C   UNL     1     -15.960  42.439 -12.672  0.00  0.00    +0.000 A 
ATOM     34  C   UNL     1     -16.751  42.557 -17.159  0.00  0.00    +0.000 C 
ATOM     35  C   UNL     1     -14.439  42.792 -10.821  0.00  0.00    +0.000 C 
BRANCH  26  36
ATOM     36  O   UNL     1     -18.504  43.704 -16.082  0.00  0.00    +0.000 OA
ATOM     37  H   UNL     1     -18.787  43.201 -16.867  0.00  0.00    +0.000 HD
ENDBRANCH  26  36
ENDBRANCH  21  25
ENDBRANCH   3  20
TORSDOF 5
ENDMDL
MODEL 8
REMARK VINA RESULT:      -6.3      7.006     11.008
REMARK  Name = 44234954_SipholenolL.pdbqt.pdb
REMARK  5 active torsions:
REMARK  status: ('A' for Active; 'I' for Inactive)
REMARK    1  A    between atoms: C_3  and  C_20
REMARK    2  A    between atoms: C_4  and  O_16
REMARK    3  A    between atoms: C_13  and  O_18
REMARK    4  A    between atoms: C_21  and  C_25
REMARK    5  A    between atoms: C_26  and  O_36
REMARK                            x       y       z     vdW  Elec       q    Type
REMARK                         _______ _______ _______ _____ _____    ______ ____
ROOT
ATOM      1  O   UNL     1     -18.364  62.072 -16.985  0.00  0.00    +0.000 OA
ATOM      2  C   UNL     1     -17.353  61.660 -19.351  0.00  0.00    +0.000 C 
ATOM      3  C   UNL     1     -17.708  61.597 -20.839  0.00  0.00    +0.000 C 
ATOM      4  C   UNL     1     -18.557  62.695 -21.452  0.00  0.00    +0.000 C 
ATOM      5  C   UNL     1     -18.501  62.168 -18.373  0.00  0.00    +0.000 C 
ATOM      6  C   UNL     1     -17.101  60.315 -18.811  0.00  0.00    +0.000 C 
ATOM      7  C   UNL     1     -19.358  63.299 -20.404  0.00  0.00    +0.000 C 
ATOM      8  C   UNL     1     -19.403  63.100 -18.925  0.00  0.00    +0.000 C 
ATOM      9  C   UNL     1     -16.104  62.557 -19.147  0.00  0.00    +0.000 C 
ATOM     10  C   UNL     1     -17.405  59.459 -17.608  0.00  0.00    +0.000 C 
ATOM     11  C   UNL     1     -18.991  60.949 -16.267  0.00  0.00    +0.000 C 
ATOM     12  C   UNL     1     -17.720  63.689 -22.252  0.00  0.00    +0.000 C 
ATOM     13  C   UNL     1     -18.180  59.621 -16.437  0.00  0.00    +0.000 C 
ATOM     14  C   UNL     1     -18.982  61.356 -14.768  0.00  0.00    +0.000 C 
ATOM     15  C   UNL     1     -20.451  60.712 -16.763  0.00  0.00    +0.000 C 
ENDROOT
BRANCH   4  16
ATOM     16  O   UNL     1     -19.435  62.116 -22.397  0.00  0.00    +0.000 OA
ATOM     17  H   UNL     1     -20.148  61.799 -21.812  0.00  0.00    +0.000 HD
ENDBRANCH   4  16
BRANCH  13  18
ATOM     18  O   UNL     1     -18.375  58.528 -15.600  0.00  0.00    +0.000 OA
ATOM     19  H   UNL     1     -17.961  58.650 -14.727  0.00  0.00    +0.000 HD
ENDBRANCH  13  18
BRANCH   3  20
ATOM     20  C   UNL     1     -17.195  60.546 -21.675  0.00  0.00    +0.000 C 
ATOM     21  C   UNL     1     -16.664  59.402 -22.544  0.00  0.00    +0.000 C 
BRANCH  21  25
ATOM     22  C   UNL     1     -15.714  57.004 -22.662  0.00  0.00    +0.000 A 
ATOM     23  C   UNL     1     -15.239  55.798 -23.561  0.00  0.00    +0.000 A 
ATOM     24  C   UNL     1     -15.681  56.928 -21.079  0.00  0.00    +0.000 C 
ATOM     25  C   UNL     1     -16.204  58.304 -23.336  0.00  0.00    +0.000 A 
ATOM     26  C   UNL     1     -14.739  54.407 -23.105  0.00  0.00    +0.000 C 
ATOM     27  C   UNL     1     -15.144  55.598 -20.775  0.00  0.00    +0.000 C 
ATOM     28  C   UNL     1     -14.711  54.457 -21.656  0.00  0.00    +0.000 C 
ATOM     29  C   UNL     1     -15.284  56.154 -24.941  0.00  0.00    +0.000 A 
ATOM     30  C   UNL     1     -16.212  58.495 -24.813  0.00  0.00    +0.000 A 
ATOM     31  C   UNL     1     -17.121  57.038 -20.522  0.00  0.00    +0.000 C 
ATOM     32  C   UNL     1     -14.724  58.001 -20.519  0.00  0.00    +0.000 C 
ATOM     33  C   UNL     1     -15.768  57.472 -25.470  0.00  0.00    +0.000 A 
ATOM     34  C   UNL     1     -15.618  53.293 -23.656  0.00  0.00    +0.000 C 
ATOM     35  C   UNL     1     -16.792  59.665 -25.552  0.00  0.00    +0.000 C 
BRANCH  26  36
ATOM     36  O   UNL     1     -13.441  54.190 -23.595  0.00  0.00    +0.000 OA
ATOM     37  H   UNL     1     -13.086  53.587 -22.917  0.00  0.00    +0.000 HD
ENDBRANCH  26  36
ENDBRANCH  21  25
ENDBRANCH   3  20
TORSDOF 5
ENDMDL
MODEL 9
REMARK VINA RESULT:      -6.2     13.097     16.294
REMARK  Name = 44234954_SipholenolL.pdbqt.pdb
REMARK  5 active torsions:
REMARK  status: ('A' for Active; 'I' for Inactive)
REMARK    1  A    between atoms: C_3  and  C_20
REMARK    2  A    between atoms: C_4  and  O_16
REMARK    3  A    between atoms: C_13  and  O_18
REMARK    4  A    between atoms: C_21  and  C_25
REMARK    5  A    between atoms: C_26  and  O_36
REMARK                            x       y       z     vdW  Elec       q    Type
REMARK                         _______ _______ _______ _____ _____    ______ ____
ROOT
ATOM      1  O   UNL     1     -29.501  60.394 -31.486  0.00  0.00    +0.000 OA
ATOM      2  C   UNL     1     -29.206  61.649 -29.221  0.00  0.00    +0.000 C 
ATOM      3  C   UNL     1     -28.558  61.542 -27.838  0.00  0.00    +0.000 C 
ATOM      4  C   UNL     1     -27.110  61.104 -27.722  0.00  0.00    +0.000 C 
ATOM      5  C   UNL     1     -28.820  60.517 -30.271  0.00  0.00    +0.000 C 
ATOM      6  C   UNL     1     -30.663  61.469 -29.138  0.00  0.00    +0.000 C 
ATOM      7  C   UNL     1     -26.771  60.315 -28.892  0.00  0.00    +0.000 C 
ATOM      8  C   UNL     1     -27.524  59.977 -30.136  0.00  0.00    +0.000 C 
ATOM      9  C   UNL     1     -28.877  63.029 -29.848  0.00  0.00    +0.000 C 
ATOM     10  C   UNL     1     -31.799  60.767 -29.838  0.00  0.00    +0.000 C 
ATOM     11  C   UNL     1     -30.579  59.399 -31.620  0.00  0.00    +0.000 C 
ATOM     12  C   UNL     1     -26.173  62.282 -27.469  0.00  0.00    +0.000 C 
ATOM     13  C   UNL     1     -31.901  59.873 -30.929  0.00  0.00    +0.000 C 
ATOM     14  C   UNL     1     -30.830  59.259 -33.146  0.00  0.00    +0.000 C 
ATOM     15  C   UNL     1     -30.156  58.028 -31.005  0.00  0.00    +0.000 C 
ENDROOT
BRANCH   4  16
ATOM     16  O   UNL     1     -26.975  60.280 -26.583  0.00  0.00    +0.000 OA
ATOM     17  H   UNL     1     -27.577  60.729 -25.961  0.00  0.00    +0.000 HD
ENDBRANCH   4  16
BRANCH  13  18
ATOM     18  O   UNL     1     -33.128  59.279 -31.201  0.00  0.00    +0.000 OA
ATOM     19  H   UNL     1     -33.878  59.862 -30.990  0.00  0.00    +0.000 HD
ENDBRANCH  13  18
BRANCH   3  20
ATOM     20  C   UNL     1     -29.285  61.911 -26.654  0.00  0.00    +0.000 C 
ATOM     21  C   UNL     1     -30.083  62.322 -25.412  0.00  0.00    +0.000 C 
BRANCH  21  25
ATOM     22  C   UNL     1     -30.230  63.526 -23.133  0.00  0.00    +0.000 A 
ATOM     23  C   UNL     1     -31.125  63.972 -21.913  0.00  0.00    +0.000 A 
ATOM     24  C   UNL     1     -28.683  63.867 -23.201  0.00  0.00    +0.000 C 
ATOM     25  C   UNL     1     -30.866  62.716 -24.284  0.00  0.00    +0.000 A 
ATOM     26  C   UNL     1     -30.708  64.803 -20.678  0.00  0.00    +0.000 C 
ATOM     27  C   UNL     1     -28.403  64.600 -21.962  0.00  0.00    +0.000 C 
ATOM     28  C   UNL     1     -29.283  65.026 -20.818  0.00  0.00    +0.000 C 
ATOM     29  C   UNL     1     -32.451  63.465 -22.054  0.00  0.00    +0.000 A 
ATOM     30  C   UNL     1     -32.294  62.292 -24.280  0.00  0.00    +0.000 A 
ATOM     31  C   UNL     1     -28.406  64.788 -24.414  0.00  0.00    +0.000 C 
ATOM     32  C   UNL     1     -27.856  62.564 -23.219  0.00  0.00    +0.000 C 
ATOM     33  C   UNL     1     -32.943  62.666 -23.224  0.00  0.00    +0.000 A 
ATOM     34  C   UNL     1     -31.516  66.089 -20.575  0.00  0.00    +0.000 C 
ATOM     35  C   UNL     1     -33.023  61.625 -25.410  0.00  0.00    +0.000 C 
BRANCH  26  36
ATOM     36  O   UNL     1     -30.958  64.065 -19.509  0.00  0.00    +0.000 OA
ATOM     37  H   UNL     1     -30.063  63.741 -19.300  0.00  0.00    +0.000 HD
ENDBRANCH  26  36
ENDBRANCH  21  25
ENDBRANCH   3  20
TORSDOF 5
ENDMDL
