MODEL 1
REMARK VINA RESULT:      -5.7      0.000      0.000
REMARK  Name = 442793_6gingerol.pdbqt.pdb
REMARK  7 active torsions:
REMARK  status: ('A' for Active; 'I' for Inactive)
REMARK    1  A    between atoms: C_1  and  C_3
REMARK    2  A    between atoms: C_5  and  O_6
REMARK    3  A    between atoms: C_5  and  C_8
REMARK    4  A    between atoms: C_9  and  C_10
REMARK    5  A    between atoms: C_13  and  C_14
REMARK    6  A    between atoms: C_17  and  O_20
REMARK    7  A    between atoms: C_19  and  O_22
REMARK                            x       y       z     vdW  Elec       q    Type
REMARK                         _______ _______ _______ _____ _____    ______ ____
ROOT
ATOM      1  C   UNL     1     -33.537  45.091 -11.145  0.00  0.00    +0.000 C 
ATOM      2  C   UNL     1     -33.550  45.104  -9.611  0.00  0.00    +0.000 C 
ENDROOT
BRANCH   2   3
ATOM      3  C   UNL     1     -33.562  45.119  -8.187  0.00  0.00    +0.000 A 
ATOM      4  C   UNL     1     -34.690  45.575  -7.507  0.00  0.00    +0.000 A 
ATOM      5  C   UNL     1     -32.447  44.680  -7.479  0.00  0.00    +0.000 A 
ATOM      6  C   UNL     1     -34.717  45.596  -6.110  0.00  0.00    +0.000 A 
ATOM      7  C   UNL     1     -32.459  44.696  -6.087  0.00  0.00    +0.000 A 
ATOM      8  C   UNL     1     -33.590  45.153  -5.411  0.00  0.00    +0.000 A 
BRANCH   6   9
ATOM      9  O   UNL     1     -35.784  46.029  -5.362  0.00  0.00    +0.000 OA
ATOM     10  C   UNL     1     -37.044  45.578  -5.786  0.00  0.00    +0.000 C 
ENDBRANCH   6   9
BRANCH   8  11
ATOM     11  O   UNL     1     -33.596  45.166  -4.043  0.00  0.00    +0.000 OA
ATOM     12  H   UNL     1     -32.676  45.243  -3.728  0.00  0.00    +0.000 HD
ENDBRANCH   8  11
ENDBRANCH   2   3
BRANCH   1  14
ATOM     13  O   UNL     1     -32.806  44.298 -13.191  0.00  0.00    +0.000 OA
ATOM     14  C   UNL     1     -33.523  45.081 -12.586  0.00  0.00    +0.000 C 
ATOM     15  C   UNL     1     -34.358  46.001 -13.307  0.00  0.00    +0.000 C 
ATOM     16  C   UNL     1     -35.175  46.905 -14.020  0.00  0.00    +0.000 C 
BRANCH  16  17
ATOM     17  O   UNL     1     -36.145  47.574 -13.313  0.00  0.00    +0.000 OA
ATOM     18  H   UNL     1     -36.705  46.964 -12.802  0.00  0.00    +0.000 HD
ENDBRANCH  16  17
BRANCH  16  19
ATOM     19  C   UNL     1     -35.044  47.154 -15.408  0.00  0.00    +0.000 C 
ATOM     20  C   UNL     1     -34.892  47.427 -16.908  0.00  0.00    +0.000 C 
BRANCH  20  21
ATOM     21  C   UNL     1     -34.736  47.702 -18.407  0.00  0.00    +0.000 C 
ATOM     22  C   UNL     1     -34.580  47.977 -19.906  0.00  0.00    +0.000 C 
ATOM     23  C   UNL     1     -34.431  48.247 -21.407  0.00  0.00    +0.000 C 
ENDBRANCH  20  21
ENDBRANCH  16  19
ENDBRANCH   1  14
TORSDOF 7
ENDMDL
MODEL 2
REMARK VINA RESULT:      -5.7      5.697      9.505
REMARK  Name = 442793_6gingerol.pdbqt.pdb
REMARK  7 active torsions:
REMARK  status: ('A' for Active; 'I' for Inactive)
REMARK    1  A    between atoms: C_1  and  C_3
REMARK    2  A    between atoms: C_5  and  O_6
REMARK    3  A    between atoms: C_5  and  C_8
REMARK    4  A    between atoms: C_9  and  C_10
REMARK    5  A    between atoms: C_13  and  C_14
REMARK    6  A    between atoms: C_17  and  O_20
REMARK    7  A    between atoms: C_19  and  O_22
REMARK                            x       y       z     vdW  Elec       q    Type
REMARK                         _______ _______ _______ _____ _____    ______ ____
ROOT
ATOM      1  C   UNL     1     -37.625  48.232  -8.510  0.00  0.00    +0.000 C 
ATOM      2  C   UNL     1     -36.433  47.268  -8.566  0.00  0.00    +0.000 C 
ENDROOT
BRANCH   2   3
ATOM      3  C   UNL     1     -35.325  46.375  -8.619  0.00  0.00    +0.000 A 
ATOM      4  C   UNL     1     -34.408  46.344  -7.570  0.00  0.00    +0.000 A 
ATOM      5  C   UNL     1     -35.161  45.537  -9.719  0.00  0.00    +0.000 A 
ATOM      6  C   UNL     1     -33.315  45.474  -7.608  0.00  0.00    +0.000 A 
ATOM      7  C   UNL     1     -34.077  44.665  -9.770  0.00  0.00    +0.000 A 
ATOM      8  C   UNL     1     -33.161  44.638  -8.718  0.00  0.00    +0.000 A 
BRANCH   6   9
ATOM      9  O   UNL     1     -32.365  45.380  -6.620  0.00  0.00    +0.000 OA
ATOM     10  C   UNL     1     -32.802  44.813  -5.413  0.00  0.00    +0.000 C 
ENDBRANCH   6   9
BRANCH   8  11
ATOM     11  O   UNL     1     -32.099  43.779  -8.774  0.00  0.00    +0.000 OA
ATOM     12  H   UNL     1     -32.098  43.229  -7.969  0.00  0.00    +0.000 HD
ENDBRANCH   8  11
ENDBRANCH   2   3
BRANCH   1  14
ATOM     13  O   UNL     1     -39.355  49.424  -9.476  0.00  0.00    +0.000 OA
ATOM     14  C   UNL     1     -38.743  49.140  -8.458  0.00  0.00    +0.000 C 
ATOM     15  C   UNL     1     -39.132  49.711  -7.198  0.00  0.00    +0.000 C 
ATOM     16  C   UNL     1     -39.517  50.276  -5.963  0.00  0.00    +0.000 C 
BRANCH  16  17
ATOM     17  O   UNL     1     -38.976  49.732  -4.823  0.00  0.00    +0.000 OA
ATOM     18  H   UNL     1     -39.380  50.102  -4.019  0.00  0.00    +0.000 HD
ENDBRANCH  16  17
BRANCH  16  19
ATOM     19  C   UNL     1     -40.417  51.363  -5.844  0.00  0.00    +0.000 C 
ATOM     20  C   UNL     1     -41.385  52.544  -5.710  0.00  0.00    +0.000 C 
BRANCH  20  21
ATOM     21  C   UNL     1     -42.348  53.727  -5.573  0.00  0.00    +0.000 C 
ATOM     22  C   UNL     1     -43.311  54.910  -5.434  0.00  0.00    +0.000 C 
ATOM     23  C   UNL     1     -44.269  56.096  -5.289  0.00  0.00    +0.000 C 
ENDBRANCH  20  21
ENDBRANCH  16  19
ENDBRANCH   1  14
TORSDOF 7
ENDMDL
MODEL 3
REMARK VINA RESULT:      -5.5      5.678      9.630
REMARK  Name = 442793_6gingerol.pdbqt.pdb
REMARK  7 active torsions:
REMARK  status: ('A' for Active; 'I' for Inactive)
REMARK    1  A    between atoms: C_1  and  C_3
REMARK    2  A    between atoms: C_5  and  O_6
REMARK    3  A    between atoms: C_5  and  C_8
REMARK    4  A    between atoms: C_9  and  C_10
REMARK    5  A    between atoms: C_13  and  C_14
REMARK    6  A    between atoms: C_17  and  O_20
REMARK    7  A    between atoms: C_19  and  O_22
REMARK                            x       y       z     vdW  Elec       q    Type
REMARK                         _______ _______ _______ _____ _____    ______ ____
ROOT
ATOM      1  C   UNL     1     -37.589  48.227  -8.482  0.00  0.00    +0.000 C 
ATOM      2  C   UNL     1     -36.389  47.273  -8.527  0.00  0.00    +0.000 C 
ENDROOT
BRANCH   2   3
ATOM      3  C   UNL     1     -35.274  46.389  -8.570  0.00  0.00    +0.000 A 
ATOM      4  C   UNL     1     -35.022  45.645  -9.722  0.00  0.00    +0.000 A 
ATOM      5  C   UNL     1     -34.439  46.270  -7.463  0.00  0.00    +0.000 A 
ATOM      6  C   UNL     1     -33.932  44.773  -9.779  0.00  0.00    +0.000 A 
ATOM      7  C   UNL     1     -33.349  45.405  -7.506  0.00  0.00    +0.000 A 
ATOM      8  C   UNL     1     -33.101  44.662  -8.660  0.00  0.00    +0.000 A 
BRANCH   6   9
ATOM      9  O   UNL     1     -33.612  44.003 -10.871  0.00  0.00    +0.000 OA
ATOM     10  C   UNL     1     -33.141  44.706 -11.990  0.00  0.00    +0.000 C 
ENDBRANCH   6   9
BRANCH   8  11
ATOM     11  O   UNL     1     -32.029  43.815  -8.695  0.00  0.00    +0.000 OA
ATOM     12  H   UNL     1     -31.775  43.592  -7.780  0.00  0.00    +0.000 HD
ENDBRANCH   8  11
ENDBRANCH   2   3
BRANCH   1  14
ATOM     13  O   UNL     1     -39.322  49.403  -9.463  0.00  0.00    +0.000 OA
ATOM     14  C   UNL     1     -38.715  49.126  -8.439  0.00  0.00    +0.000 C 
ATOM     15  C   UNL     1     -39.116  49.697  -7.184  0.00  0.00    +0.000 C 
ATOM     16  C   UNL     1     -39.513  50.263  -5.952  0.00  0.00    +0.000 C 
BRANCH  16  17
ATOM     17  O   UNL     1     -38.976  49.726  -4.808  0.00  0.00    +0.000 OA
ATOM     18  H   UNL     1     -39.334  48.840  -4.621  0.00  0.00    +0.000 HD
ENDBRANCH  16  17
BRANCH  16  19
ATOM     19  C   UNL     1     -40.423  51.342  -5.842  0.00  0.00    +0.000 C 
ATOM     20  C   UNL     1     -41.400  52.517  -5.722  0.00  0.00    +0.000 C 
BRANCH  20  21
ATOM     21  C   UNL     1     -42.372  53.694  -5.599  0.00  0.00    +0.000 C 
ATOM     22  C   UNL     1     -43.346  54.871  -5.478  0.00  0.00    +0.000 C 
ATOM     23  C   UNL     1     -44.325  56.043  -5.356  0.00  0.00    +0.000 C 
ENDBRANCH  20  21
ENDBRANCH  16  19
ENDBRANCH   1  14
TORSDOF 7
ENDMDL
MODEL 4
REMARK VINA RESULT:      -5.1     23.490     24.610
REMARK  Name = 442793_6gingerol.pdbqt.pdb
REMARK  7 active torsions:
REMARK  status: ('A' for Active; 'I' for Inactive)
REMARK    1  A    between atoms: C_1  and  C_3
REMARK    2  A    between atoms: C_5  and  O_6
REMARK    3  A    between atoms: C_5  and  C_8
REMARK    4  A    between atoms: C_9  and  C_10
REMARK    5  A    between atoms: C_13  and  C_14
REMARK    6  A    between atoms: C_17  and  O_20
REMARK    7  A    between atoms: C_19  and  O_22
REMARK                            x       y       z     vdW  Elec       q    Type
REMARK                         _______ _______ _______ _____ _____    ______ ____
ROOT
ATOM      1  C   UNL     1     -17.408  56.742 -26.080  0.00  0.00    +0.000 C 
ATOM      2  C   UNL     1     -17.130  57.043 -24.602  0.00  0.00    +0.000 C 
ENDROOT
BRANCH   2   3
ATOM      3  C   UNL     1     -16.876  57.323 -23.229  0.00  0.00    +0.000 A 
ATOM      4  C   UNL     1     -16.869  58.642 -22.780  0.00  0.00    +0.000 A 
ATOM      5  C   UNL     1     -16.635  56.279 -22.341  0.00  0.00    +0.000 A 
ATOM      6  C   UNL     1     -16.619  58.933 -21.435  0.00  0.00    +0.000 A 
ATOM      7  C   UNL     1     -16.385  56.553 -20.999  0.00  0.00    +0.000 A 
ATOM      8  C   UNL     1     -16.378  57.875 -20.554  0.00  0.00    +0.000 A 
BRANCH   6   9
ATOM      9  O   UNL     1     -16.593  60.201 -20.909  0.00  0.00    +0.000 OA
ATOM     10  C   UNL     1     -17.504  61.109 -21.471  0.00  0.00    +0.000 C 
ENDBRANCH   6   9
BRANCH   8  11
ATOM     11  O   UNL     1     -16.133  58.138 -19.234  0.00  0.00    +0.000 OA
ATOM     12  H   UNL     1     -15.237  58.516 -19.153  0.00  0.00    +0.000 HD
ENDBRANCH   8  11
ENDBRANCH   2   3
BRANCH   1  14
ATOM     13  O   UNL     1     -17.586  57.342 -28.306  0.00  0.00    +0.000 OA
ATOM     14  C   UNL     1     -17.671  56.457 -27.468  0.00  0.00    +0.000 C 
ATOM     15  C   UNL     1     -18.038  55.125 -27.859  0.00  0.00    +0.000 C 
ATOM     16  C   UNL     1     -18.401  53.817 -28.249  0.00  0.00    +0.000 C 
BRANCH  16  17
ATOM     17  O   UNL     1     -18.229  52.813 -27.327  0.00  0.00    +0.000 OA
ATOM     18  H   UNL     1     -19.078  52.425 -27.052  0.00  0.00    +0.000 HD
ENDBRANCH  16  17
BRANCH  16  19
ATOM     19  C   UNL     1     -18.927  53.496 -29.524  0.00  0.00    +0.000 C 
ATOM     20  C   UNL     1     -19.493  53.139 -30.903  0.00  0.00    +0.000 C 
BRANCH  20  21
ATOM     21  C   UNL     1     -20.054  52.778 -32.281  0.00  0.00    +0.000 C 
ATOM     22  C   UNL     1     -20.613  52.416 -33.661  0.00  0.00    +0.000 C 
ATOM     23  C   UNL     1     -21.167  52.049 -35.041  0.00  0.00    +0.000 C 
ENDBRANCH  20  21
ENDBRANCH  16  19
ENDBRANCH   1  14
TORSDOF 7
ENDMDL
MODEL 5
REMARK VINA RESULT:      -5.1      4.355     10.032
REMARK  Name = 442793_6gingerol.pdbqt.pdb
REMARK  7 active torsions:
REMARK  status: ('A' for Active; 'I' for Inactive)
REMARK    1  A    between atoms: C_1  and  C_3
REMARK    2  A    between atoms: C_5  and  O_6
REMARK    3  A    between atoms: C_5  and  C_8
REMARK    4  A    between atoms: C_9  and  C_10
REMARK    5  A    between atoms: C_13  and  C_14
REMARK    6  A    between atoms: C_17  and  O_20
REMARK    7  A    between atoms: C_19  and  O_22
REMARK                            x       y       z     vdW  Elec       q    Type
REMARK                         _______ _______ _______ _____ _____    ______ ____
ROOT
ATOM      1  C   UNL     1     -33.557  46.324 -15.109  0.00  0.00    +0.000 C 
ATOM      2  C   UNL     1     -32.512  45.608 -15.974  0.00  0.00    +0.000 C 
ENDROOT
BRANCH   2   3
ATOM      3  C   UNL     1     -31.543  44.944 -16.779  0.00  0.00    +0.000 A 
ATOM      4  C   UNL     1     -30.483  44.271 -16.175  0.00  0.00    +0.000 A 
ATOM      5  C   UNL     1     -31.657  44.970 -18.166  0.00  0.00    +0.000 A 
ATOM      6  C   UNL     1     -29.523  43.616 -16.952  0.00  0.00    +0.000 A 
ATOM      7  C   UNL     1     -30.709  44.321 -18.952  0.00  0.00    +0.000 A 
ATOM      8  C   UNL     1     -29.649  43.650 -18.343  0.00  0.00    +0.000 A 
BRANCH   6   9
ATOM      9  O   UNL     1     -28.448  42.931 -16.439  0.00  0.00    +0.000 OA
ATOM     10  C   UNL     1     -28.739  41.676 -15.882  0.00  0.00    +0.000 C 
ENDBRANCH   6   9
BRANCH   8  11
ATOM     11  O   UNL     1     -28.721  43.014 -19.121  0.00  0.00    +0.000 OA
ATOM     12  H   UNL     1     -27.889  43.523 -19.094  0.00  0.00    +0.000 HD
ENDBRANCH   8  11
ENDBRANCH   2   3
BRANCH   1  14
ATOM     13  O   UNL     1     -34.945  48.107 -14.616  0.00  0.00    +0.000 OA
ATOM     14  C   UNL     1     -34.540  46.999 -14.299  0.00  0.00    +0.000 C 
ATOM     15  C   UNL     1     -35.037  46.359 -13.113  0.00  0.00    +0.000 C 
ATOM     16  C   UNL     1     -35.528  45.736 -11.945  0.00  0.00    +0.000 C 
BRANCH  16  17
ATOM     17  O   UNL     1     -35.246  44.402 -11.775  0.00  0.00    +0.000 OA
ATOM     18  H   UNL     1     -35.680  44.039 -10.983  0.00  0.00    +0.000 HD
ENDBRANCH  16  17
BRANCH  16  19
ATOM     19  C   UNL     1     -36.285  46.409 -10.955  0.00  0.00    +0.000 C 
ATOM     20  C   UNL     1     -37.097  47.145  -9.884  0.00  0.00    +0.000 C 
BRANCH  20  21
ATOM     21  C   UNL     1     -37.903  47.885  -8.812  0.00  0.00    +0.000 C 
ATOM     22  C   UNL     1     -38.709  48.623  -7.739  0.00  0.00    +0.000 C 
ATOM     23  C   UNL     1     -39.512  49.357  -6.660  0.00  0.00    +0.000 C 
ENDBRANCH  20  21
ENDBRANCH  16  19
ENDBRANCH   1  14
TORSDOF 7
ENDMDL
MODEL 6
REMARK VINA RESULT:      -5.0     23.580     26.896
REMARK  Name = 442793_6gingerol.pdbqt.pdb
REMARK  7 active torsions:
REMARK  status: ('A' for Active; 'I' for Inactive)
REMARK    1  A    between atoms: C_1  and  C_3
REMARK    2  A    between atoms: C_5  and  O_6
REMARK    3  A    between atoms: C_5  and  C_8
REMARK    4  A    between atoms: C_9  and  C_10
REMARK    5  A    between atoms: C_13  and  C_14
REMARK    6  A    between atoms: C_17  and  O_20
REMARK    7  A    between atoms: C_19  and  O_22
REMARK                            x       y       z     vdW  Elec       q    Type
REMARK                         _______ _______ _______ _____ _____    ______ ____
ROOT
ATOM      1  C   UNL     1     -18.611  53.516 -29.201  0.00  0.00    +0.000 C 
ATOM      2  C   UNL     1     -19.192  53.349 -30.611  0.00  0.00    +0.000 C 
ENDROOT
BRANCH   2   3
ATOM      3  C   UNL     1     -19.732  53.191 -31.920  0.00  0.00    +0.000 A 
ATOM      4  C   UNL     1     -21.109  53.059 -32.091  0.00  0.00    +0.000 A 
ATOM      5  C   UNL     1     -18.883  53.169 -33.023  0.00  0.00    +0.000 A 
ATOM      6  C   UNL     1     -21.653  52.902 -33.369  0.00  0.00    +0.000 A 
ATOM      7  C   UNL     1     -19.412  53.014 -34.301  0.00  0.00    +0.000 A 
ATOM      8  C   UNL     1     -20.790  52.881 -34.468  0.00  0.00    +0.000 A 
BRANCH   6   9
ATOM      9  O   UNL     1     -22.995  52.765 -33.627  0.00  0.00    +0.000 OA
ATOM     10  C   UNL     1     -23.853  53.459 -32.761  0.00  0.00    +0.000 C 
ENDBRANCH   6   9
BRANCH   8  11
ATOM     11  O   UNL     1     -21.303  52.729 -35.726  0.00  0.00    +0.000 OA
ATOM     12  H   UNL     1     -21.175  51.804 -36.007  0.00  0.00    +0.000 HD
ENDBRANCH   8  11
ENDBRANCH   2   3
BRANCH   1  14
ATOM     13  O   UNL     1     -17.806  52.687 -27.198  0.00  0.00    +0.000 OA
ATOM     14  C   UNL     1     -18.067  53.670 -27.876  0.00  0.00    +0.000 C 
ATOM     15  C   UNL     1     -17.834  54.989 -27.357  0.00  0.00    +0.000 C 
ATOM     16  C   UNL     1     -17.606  56.283 -26.840  0.00  0.00    +0.000 C 
BRANCH  16  17
ATOM     17  O   UNL     1     -17.664  57.334 -27.723  0.00  0.00    +0.000 OA
ATOM     18  H   UNL     1     -18.533  57.395 -28.156  0.00  0.00    +0.000 HD
ENDBRANCH  16  17
BRANCH  16  19
ATOM     19  C   UNL     1     -17.326  56.546 -25.477  0.00  0.00    +0.000 C 
ATOM     20  C   UNL     1     -17.034  56.830 -24.000  0.00  0.00    +0.000 C 
BRANCH  20  21
ATOM     21  C   UNL     1     -16.747  57.115 -22.523  0.00  0.00    +0.000 C 
ATOM     22  C   UNL     1     -16.462  57.400 -21.044  0.00  0.00    +0.000 C 
ATOM     23  C   UNL     1     -16.184  57.681 -19.564  0.00  0.00    +0.000 C 
ENDBRANCH  20  21
ENDBRANCH  16  19
ENDBRANCH   1  14
TORSDOF 7
ENDMDL
MODEL 7
REMARK VINA RESULT:      -5.0      2.871     10.702
REMARK  Name = 442793_6gingerol.pdbqt.pdb
REMARK  7 active torsions:
REMARK  status: ('A' for Active; 'I' for Inactive)
REMARK    1  A    between atoms: C_1  and  C_3
REMARK    2  A    between atoms: C_5  and  O_6
REMARK    3  A    between atoms: C_5  and  C_8
REMARK    4  A    between atoms: C_9  and  C_10
REMARK    5  A    between atoms: C_13  and  C_14
REMARK    6  A    between atoms: C_17  and  O_20
REMARK    7  A    between atoms: C_19  and  O_22
REMARK                            x       y       z     vdW  Elec       q    Type
REMARK                         _______ _______ _______ _____ _____    ______ ____
ROOT
ATOM      1  C   UNL     1     -35.066  45.669 -11.983  0.00  0.00    +0.000 C 
ATOM      2  C   UNL     1     -34.709  46.245 -13.359  0.00  0.00    +0.000 C 
ENDROOT
BRANCH   2   3
ATOM      3  C   UNL     1     -34.381  46.778 -14.638  0.00  0.00    +0.000 A 
ATOM      4  C   UNL     1     -33.471  46.111 -15.455  0.00  0.00    +0.000 A 
ATOM      5  C   UNL     1     -34.970  47.964 -15.067  0.00  0.00    +0.000 A 
ATOM      6  C   UNL     1     -33.138  46.622 -16.713  0.00  0.00    +0.000 A 
ATOM      7  C   UNL     1     -34.648  48.485 -16.318  0.00  0.00    +0.000 A 
ATOM      8  C   UNL     1     -33.736  47.815 -17.132  0.00  0.00    +0.000 A 
BRANCH   6   9
ATOM      9  O   UNL     1     -32.252  46.031 -17.580  0.00  0.00    +0.000 OA
ATOM     10  C   UNL     1     -32.668  44.809 -18.131  0.00  0.00    +0.000 C 
ENDBRANCH   6   9
BRANCH   8  11
ATOM     11  O   UNL     1     -33.424  48.332 -18.359  0.00  0.00    +0.000 OA
ATOM     12  H   UNL     1     -34.044  49.058 -18.559  0.00  0.00    +0.000 HD
ENDBRANCH   8  11
ENDBRANCH   2   3
BRANCH   1  14
ATOM     13  O   UNL     1     -36.547  45.211 -10.267  0.00  0.00    +0.000 OA
ATOM     14  C   UNL     1     -35.404  45.129 -10.690  0.00  0.00    +0.000 C 
ATOM     15  C   UNL     1     -34.384  44.495  -9.901  0.00  0.00    +0.000 C 
ATOM     16  C   UNL     1     -33.386  43.874  -9.120  0.00  0.00    +0.000 C 
BRANCH  16  17
ATOM     17  O   UNL     1     -32.196  43.574  -9.738  0.00  0.00    +0.000 OA
ATOM     18  H   UNL     1     -32.325  43.317 -10.667  0.00  0.00    +0.000 HD
ENDBRANCH  16  17
BRANCH  16  19
ATOM     19  C   UNL     1     -33.548  43.550  -7.751  0.00  0.00    +0.000 C 
ATOM     20  C   UNL     1     -33.732  43.194  -6.272  0.00  0.00    +0.000 C 
BRANCH  20  21
ATOM     21  C   UNL     1     -33.921  42.836  -4.795  0.00  0.00    +0.000 C 
ATOM     22  C   UNL     1     -34.112  42.477  -3.317  0.00  0.00    +0.000 C 
ATOM     23  C   UNL     1     -34.309  42.114  -1.842  0.00  0.00    +0.000 C 
ENDBRANCH  20  21
ENDBRANCH  16  19
ENDBRANCH   1  14
TORSDOF 7
ENDMDL
MODEL 8
REMARK VINA RESULT:      -4.9      7.084      9.646
REMARK  Name = 442793_6gingerol.pdbqt.pdb
REMARK  7 active torsions:
REMARK  status: ('A' for Active; 'I' for Inactive)
REMARK    1  A    between atoms: C_1  and  C_3
REMARK    2  A    between atoms: C_5  and  O_6
REMARK    3  A    between atoms: C_5  and  C_8
REMARK    4  A    between atoms: C_9  and  C_10
REMARK    5  A    between atoms: C_13  and  C_14
REMARK    6  A    between atoms: C_17  and  O_20
REMARK    7  A    between atoms: C_19  and  O_22
REMARK                            x       y       z     vdW  Elec       q    Type
REMARK                         _______ _______ _______ _____ _____    ______ ____
ROOT
ATOM      1  C   UNL     1     -34.112  48.021 -17.791  0.00  0.00    +0.000 C 
ATOM      2  C   UNL     1     -33.258  46.814 -17.380  0.00  0.00    +0.000 C 
ENDROOT
BRANCH   2   3
ATOM      3  C   UNL     1     -32.466  45.695 -16.997  0.00  0.00    +0.000 A 
ATOM      4  C   UNL     1     -31.617  45.096 -17.925  0.00  0.00    +0.000 A 
ATOM      5  C   UNL     1     -32.543  45.203 -15.697  0.00  0.00    +0.000 A 
ATOM      6  C   UNL     1     -30.834  43.996 -17.564  0.00  0.00    +0.000 A 
ATOM      7  C   UNL     1     -31.768  44.108 -15.323  0.00  0.00    +0.000 A 
ATOM      8  C   UNL     1     -30.920  43.511 -16.255  0.00  0.00    +0.000 A 
BRANCH   6   9
ATOM      9  O   UNL     1     -29.972  43.345 -18.414  0.00  0.00    +0.000 OA
ATOM     10  C   UNL     1     -29.420  44.133 -19.436  0.00  0.00    +0.000 C 
ENDBRANCH   6   9
BRANCH   8  11
ATOM     11  O   UNL     1     -30.162  42.436 -15.882  0.00  0.00    +0.000 OA
ATOM     12  H   UNL     1     -30.730  41.804 -15.403  0.00  0.00    +0.000 HD
ENDBRANCH   8  11
ENDBRANCH   2   3
BRANCH   1  14
ATOM     13  O   UNL     1     -35.615  49.722 -17.348  0.00  0.00    +0.000 OA
ATOM     14  C   UNL     1     -34.915  49.155 -18.173  0.00  0.00    +0.000 C 
ATOM     15  C   UNL     1     -34.889  49.612 -19.534  0.00  0.00    +0.000 C 
ATOM     16  C   UNL     1     -34.868  50.064 -20.872  0.00  0.00    +0.000 C 
BRANCH  16  17
ATOM     17  O   UNL     1     -33.882  49.570 -21.691  0.00  0.00    +0.000 OA
ATOM     18  H   UNL     1     -33.016  49.558 -21.247  0.00  0.00    +0.000 HD
ENDBRANCH  16  17
BRANCH  16  19
ATOM     19  C   UNL     1     -35.802  50.987 -21.403  0.00  0.00    +0.000 C 
ATOM     20  C   UNL     1     -36.818  51.978 -21.981  0.00  0.00    +0.000 C 
BRANCH  20  21
ATOM     21  C   UNL     1     -37.835  52.964 -22.562  0.00  0.00    +0.000 C 
ATOM     22  C   UNL     1     -38.852  53.951 -23.146  0.00  0.00    +0.000 C 
ATOM     23  C   UNL     1     -39.867  54.935 -23.737  0.00  0.00    +0.000 C 
ENDBRANCH  20  21
ENDBRANCH  16  19
ENDBRANCH   1  14
TORSDOF 7
ENDMDL
MODEL 9
REMARK VINA RESULT:      -4.8      7.923     11.352
REMARK  Name = 442793_6gingerol.pdbqt.pdb
REMARK  7 active torsions:
REMARK  status: ('A' for Active; 'I' for Inactive)
REMARK    1  A    between atoms: C_1  and  C_3
REMARK    2  A    between atoms: C_5  and  O_6
REMARK    3  A    between atoms: C_5  and  C_8
REMARK    4  A    between atoms: C_9  and  C_10
REMARK    5  A    between atoms: C_13  and  C_14
REMARK    6  A    between atoms: C_17  and  O_20
REMARK    7  A    between atoms: C_19  and  O_22
REMARK                            x       y       z     vdW  Elec       q    Type
REMARK                         _______ _______ _______ _____ _____    ______ ____
ROOT
ATOM      1  C   UNL     1     -32.793  45.307 -18.470  0.00  0.00    +0.000 C 
ATOM      2  C   UNL     1     -33.577  46.625 -18.445  0.00  0.00    +0.000 C 
ENDROOT
BRANCH   2   3
ATOM      3  C   UNL     1     -34.303  47.850 -18.418  0.00  0.00    +0.000 A 
ATOM      4  C   UNL     1     -34.314  48.674 -19.542  0.00  0.00    +0.000 A 
ATOM      5  C   UNL     1     -34.999  48.220 -17.271  0.00  0.00    +0.000 A 
ATOM      6  C   UNL     1     -35.022  49.879 -19.532  0.00  0.00    +0.000 A 
ATOM      7  C   UNL     1     -35.708  49.418 -17.246  0.00  0.00    +0.000 A 
ATOM      8  C   UNL     1     -35.716  50.240 -18.373  0.00  0.00    +0.000 A 
BRANCH   6   9
ATOM      9  O   UNL     1     -35.085  50.750 -20.593  0.00  0.00    +0.000 OA
ATOM     10  C   UNL     1     -35.036  50.159 -21.864  0.00  0.00    +0.000 C 
ENDBRANCH   6   9
BRANCH   8  11
ATOM     11  O   UNL     1     -36.415  51.415 -18.342  0.00  0.00    +0.000 OA
ATOM     12  H   UNL     1     -35.976  52.023 -17.718  0.00  0.00    +0.000 HD
ENDBRANCH   8  11
ENDBRANCH   2   3
BRANCH   1  14
ATOM     13  O   UNL     1     -32.243  43.255 -19.383  0.00  0.00    +0.000 OA
ATOM     14  C   UNL     1     -32.054  44.070 -18.493  0.00  0.00    +0.000 C 
ATOM     15  C   UNL     1     -31.095  43.801 -17.458  0.00  0.00    +0.000 C 
ATOM     16  C   UNL     1     -30.153  43.531 -16.441  0.00  0.00    +0.000 C 
BRANCH  16  17
ATOM     17  O   UNL     1     -29.789  44.573 -15.624  0.00  0.00    +0.000 OA
ATOM     18  H   UNL     1     -29.397  44.259 -14.790  0.00  0.00    +0.000 HD
ENDBRANCH  16  17
BRANCH  16  19
ATOM     19  C   UNL     1     -29.575  42.255 -16.226  0.00  0.00    +0.000 C 
ATOM     20  C   UNL     1     -28.947  40.879 -15.984  0.00  0.00    +0.000 C 
BRANCH  20  21
ATOM     21  C   UNL     1     -28.317  39.505 -15.737  0.00  0.00    +0.000 C 
ATOM     22  C   UNL     1     -27.686  38.130 -15.492  0.00  0.00    +0.000 C 
ATOM     23  C   UNL     1     -27.056  36.754 -15.254  0.00  0.00    +0.000 C 
ENDBRANCH  20  21
ENDBRANCH  16  19
ENDBRANCH   1  14
TORSDOF 7
ENDMDL
