MODEL 1
REMARK VINA RESULT:      -7.4      0.000      0.000
REMARK  Name = 44423609_SipholenoneA.pdbqt.pdb
REMARK  4 active torsions:
REMARK  status: ('A' for Active; 'I' for Inactive)
REMARK    1  A    between atoms: C_3  and  C_19
REMARK    2  A    between atoms: C_5  and  O_17
REMARK    3  A    between atoms: C_20  and  C_24
REMARK    4  A    between atoms: C_25  and  O_35
REMARK                            x       y       z     vdW  Elec       q    Type
REMARK                         _______ _______ _______ _____ _____    ______ ____
ROOT
ATOM      1  O   UNL     1     -12.741  47.714  -6.751  0.00  0.00    +0.000 OA
ATOM      2  O   UNL     1     -10.987  50.896  -6.051  0.00  0.00    +0.000 OA
ATOM      3  C   UNL     1     -13.380  46.051  -3.224  0.00  0.00    +0.000 C 
ATOM      4  C   UNL     1     -13.523  47.069  -4.354  0.00  0.00    +0.000 C 
ATOM      5  C   UNL     1     -13.249  44.571  -3.542  0.00  0.00    +0.000 C 
ATOM      6  C   UNL     1     -12.813  46.753  -5.736  0.00  0.00    +0.000 C 
ATOM      7  C   UNL     1     -12.910  44.420  -4.944  0.00  0.00    +0.000 C 
ATOM      8  C   UNL     1     -12.672  45.388  -6.054  0.00  0.00    +0.000 C 
ATOM      9  C   UNL     1     -12.874  48.341  -3.993  0.00  0.00    +0.000 C 
ATOM     10  C   UNL     1     -15.030  47.319  -4.640  0.00  0.00    +0.000 C 
ATOM     11  C   UNL     1     -12.206  43.907  -2.636  0.00  0.00    +0.000 C 
ATOM     12  C   UNL     1     -12.067  49.459  -4.617  0.00  0.00    +0.000 C 
ATOM     13  C   UNL     1     -11.532  48.532  -6.900  0.00  0.00    +0.000 C 
ATOM     14  C   UNL     1     -11.477  49.785  -5.893  0.00  0.00    +0.000 C 
ATOM     15  C   UNL     1     -11.573  49.036  -8.380  0.00  0.00    +0.000 C 
ATOM     16  C   UNL     1     -10.243  47.652  -6.697  0.00  0.00    +0.000 C 
ENDROOT
BRANCH   5  17
ATOM     17  O   UNL     1     -14.464  43.919  -3.273  0.00  0.00    +0.000 OA
ATOM     18  H   UNL     1     -14.401  43.792  -2.309  0.00  0.00    +0.000 HD
ENDBRANCH   5  17
BRANCH   3  19
ATOM     19  C   UNL     1     -13.631  46.467  -1.867  0.00  0.00    +0.000 C 
ATOM     20  C   UNL     1     -13.907  46.900  -0.426  0.00  0.00    +0.000 C 
BRANCH  20  24
ATOM     21  C   UNL     1     -14.657  49.780   1.652  0.00  0.00    +0.000 C 
ATOM     22  C   UNL     1     -13.626  48.633   1.509  0.00  0.00    +0.000 C 
ATOM     23  C   UNL     1     -15.861  49.772   2.558  0.00  0.00    +0.000 C 
ATOM     24  C   UNL     1     -14.175  47.309   0.923  0.00  0.00    +0.000 C 
ATOM     25  C   UNL     1     -16.640  51.087   2.483  0.00  0.00    +0.000 C 
ATOM     26  C   UNL     1     -14.632  51.057   1.022  0.00  0.00    +0.000 C 
ATOM     27  C   UNL     1     -15.816  51.828   1.537  0.00  0.00    +0.000 C 
ATOM     28  C   UNL     1     -16.363  48.492   2.871  0.00  0.00    +0.000 C 
ATOM     29  C   UNL     1     -15.075  46.478   1.726  0.00  0.00    +0.000 C 
ATOM     30  C   UNL     1     -12.454  49.149   0.589  0.00  0.00    +0.000 C 
ATOM     31  C   UNL     1     -12.985  48.366   2.913  0.00  0.00    +0.000 C 
ATOM     32  C   UNL     1     -15.937  47.107   2.460  0.00  0.00    +0.000 C 
ATOM     33  C   UNL     1     -16.825  51.721   3.851  0.00  0.00    +0.000 C 
ATOM     34  C   UNL     1     -15.354  45.025   1.440  0.00  0.00    +0.000 C 
BRANCH  25  35
ATOM     35  O   UNL     1     -17.924  50.868   1.950  0.00  0.00    +0.000 OA
ATOM     36  H   UNL     1     -17.770  50.057   1.435  0.00  0.00    +0.000 HD
ENDBRANCH  25  35
ENDBRANCH  20  24
ENDBRANCH   3  19
TORSDOF 4
ENDMDL
MODEL 2
REMARK VINA RESULT:      -7.0      2.059      3.953
REMARK  Name = 44423609_SipholenoneA.pdbqt.pdb
REMARK  4 active torsions:
REMARK  status: ('A' for Active; 'I' for Inactive)
REMARK    1  A    between atoms: C_3  and  C_19
REMARK    2  A    between atoms: C_5  and  O_17
REMARK    3  A    between atoms: C_20  and  C_24
REMARK    4  A    between atoms: C_25  and  O_35
REMARK                            x       y       z     vdW  Elec       q    Type
REMARK                         _______ _______ _______ _____ _____    ______ ____
ROOT
ATOM      1  O   UNL     1     -11.498  44.853  -7.894  0.00  0.00    +0.000 OA
ATOM      2  O   UNL     1     -12.613  41.357  -7.415  0.00  0.00    +0.000 OA
ATOM      3  C   UNL     1     -13.035  46.885  -4.874  0.00  0.00    +0.000 C 
ATOM      4  C   UNL     1     -12.141  45.873  -5.588  0.00  0.00    +0.000 C 
ATOM      5  C   UNL     1     -13.322  48.234  -5.513  0.00  0.00    +0.000 C 
ATOM      6  C   UNL     1     -12.142  45.865  -7.173  0.00  0.00    +0.000 C 
ATOM      7  C   UNL     1     -12.963  48.176  -6.917  0.00  0.00    +0.000 C 
ATOM      8  C   UNL     1     -12.412  47.101  -7.793  0.00  0.00    +0.000 C 
ATOM      9  C   UNL     1     -12.582  44.498  -5.302  0.00  0.00    +0.000 C 
ATOM     10  C   UNL     1     -10.672  46.056  -5.115  0.00  0.00    +0.000 C 
ATOM     11  C   UNL     1     -14.791  48.629  -5.323  0.00  0.00    +0.000 C 
ATOM     12  C   UNL     1     -12.713  43.149  -5.977  0.00  0.00    +0.000 C 
ATOM     13  C   UNL     1     -12.266  43.708  -8.395  0.00  0.00    +0.000 C 
ATOM     14  C   UNL     1     -12.522  42.571  -7.286  0.00  0.00    +0.000 C 
ATOM     15  C   UNL     1     -11.403  43.130  -9.564  0.00  0.00    +0.000 C 
ATOM     16  C   UNL     1     -13.651  44.184  -8.971  0.00  0.00    +0.000 C 
ENDROOT
BRANCH   5  17
ATOM     17  O   UNL     1     -12.569  49.232  -4.870  0.00  0.00    +0.000 OA
ATOM     18  H   UNL     1     -13.275  49.801  -4.514  0.00  0.00    +0.000 HD
ENDBRANCH   5  17
BRANCH   3  19
ATOM     19  C   UNL     1     -13.388  46.663  -3.495  0.00  0.00    +0.000 C 
ATOM     20  C   UNL     1     -13.774  46.422  -2.034  0.00  0.00    +0.000 C 
BRANCH  20  24
ATOM     21  C   UNL     1     -14.231  48.079   1.163  0.00  0.00    +0.000 C 
ATOM     22  C   UNL     1     -13.435  46.923   0.507  0.00  0.00    +0.000 C 
ATOM     23  C   UNL     1     -15.528  47.937   1.917  0.00  0.00    +0.000 C 
ATOM     24  C   UNL     1     -14.144  46.203  -0.665  0.00  0.00    +0.000 C 
ATOM     25  C   UNL     1     -16.016  49.277   2.470  0.00  0.00    +0.000 C 
ATOM     26  C   UNL     1     -13.867  49.455   1.238  0.00  0.00    +0.000 C 
ATOM     27  C   UNL     1     -14.937  50.152   2.030  0.00  0.00    +0.000 C 
ATOM     28  C   UNL     1     -16.310  46.821   1.550  0.00  0.00    +0.000 C 
ATOM     29  C   UNL     1     -15.293  45.336  -0.396  0.00  0.00    +0.000 C 
ATOM     30  C   UNL     1     -12.066  47.512  -0.011  0.00  0.00    +0.000 C 
ATOM     31  C   UNL     1     -13.062  45.885   1.620  0.00  0.00    +0.000 C 
ATOM     32  C   UNL     1     -16.110  45.734   0.528  0.00  0.00    +0.000 C 
ATOM     33  C   UNL     1     -16.264  49.220   3.968  0.00  0.00    +0.000 C 
ATOM     34  C   UNL     1     -15.809  44.301  -1.362  0.00  0.00    +0.000 C 
BRANCH  25  35
ATOM     35  O   UNL     1     -17.229  49.648   1.863  0.00  0.00    +0.000 OA
ATOM     36  H   UNL     1     -17.823  48.959   2.208  0.00  0.00    +0.000 HD
ENDBRANCH  25  35
ENDBRANCH  20  24
ENDBRANCH   3  19
TORSDOF 4
ENDMDL
MODEL 3
REMARK VINA RESULT:      -6.8     25.453     28.511
REMARK  Name = 44423609_SipholenoneA.pdbqt.pdb
REMARK  4 active torsions:
REMARK  status: ('A' for Active; 'I' for Inactive)
REMARK    1  A    between atoms: C_3  and  C_19
REMARK    2  A    between atoms: C_5  and  O_17
REMARK    3  A    between atoms: C_20  and  C_24
REMARK    4  A    between atoms: C_25  and  O_35
REMARK                            x       y       z     vdW  Elec       q    Type
REMARK                         _______ _______ _______ _____ _____    ______ ____
ROOT
ATOM      1  O   UNL     1     -37.079  50.504 -23.209  0.00  0.00    +0.000 OA
ATOM      2  O   UNL     1     -37.558  47.424 -25.203  0.00  0.00    +0.000 OA
ATOM      3  C   UNL     1     -36.187  49.283 -19.558  0.00  0.00    +0.000 C 
ATOM      4  C   UNL     1     -36.003  49.511 -21.057  0.00  0.00    +0.000 C 
ATOM      5  C   UNL     1     -36.837  50.353 -18.698  0.00  0.00    +0.000 C 
ATOM      6  C   UNL     1     -37.074  50.403 -21.813  0.00  0.00    +0.000 C 
ATOM      7  C   UNL     1     -37.520  51.299 -19.560  0.00  0.00    +0.000 C 
ATOM      8  C   UNL     1     -37.697  51.400 -21.038  0.00  0.00    +0.000 C 
ATOM      9  C   UNL     1     -36.127  48.242 -21.795  0.00  0.00    +0.000 C 
ATOM     10  C   UNL     1     -34.600  50.128 -21.320  0.00  0.00    +0.000 C 
ATOM     11  C   UNL     1     -37.795  49.728 -17.677  0.00  0.00    +0.000 C 
ATOM     12  C   UNL     1     -36.672  47.697 -23.098  0.00  0.00    +0.000 C 
ATOM     13  C   UNL     1     -37.977  49.657 -24.002  0.00  0.00    +0.000 C 
ATOM     14  C   UNL     1     -37.411  48.171 -24.245  0.00  0.00    +0.000 C 
ATOM     15  C   UNL     1     -38.126  50.403 -25.368  0.00  0.00    +0.000 C 
ATOM     16  C   UNL     1     -39.391  49.563 -23.316  0.00  0.00    +0.000 C 
ENDROOT
BRANCH   5  17
ATOM     17  O   UNL     1     -35.854  51.018 -17.946  0.00  0.00    +0.000 OA
ATOM     18  H   UNL     1     -36.375  51.742 -17.553  0.00  0.00    +0.000 HD
ENDBRANCH   5  17
BRANCH   3  19
ATOM     19  C   UNL     1     -35.516  48.175 -18.927  0.00  0.00    +0.000 C 
ATOM     20  C   UNL     1     -34.799  47.006 -18.247  0.00  0.00    +0.000 C 
BRANCH  20  24
ATOM     21  C   UNL     1     -32.407  44.334 -18.810  0.00  0.00    +0.000 C 
ATOM     22  C   UNL     1     -33.861  44.569 -18.329  0.00  0.00    +0.000 C 
ATOM     23  C   UNL     1     -31.199  44.194 -17.920  0.00  0.00    +0.000 C 
ATOM     24  C   UNL     1     -34.119  45.915 -17.610  0.00  0.00    +0.000 C 
ATOM     25  C   UNL     1     -29.926  43.926 -18.725  0.00  0.00    +0.000 C 
ATOM     26  C   UNL     1     -31.952  44.144 -20.146  0.00  0.00    +0.000 C 
ATOM     27  C   UNL     1     -30.472  43.891 -20.077  0.00  0.00    +0.000 C 
ATOM     28  C   UNL     1     -31.306  44.831 -16.667  0.00  0.00    +0.000 C 
ATOM     29  C   UNL     1     -33.578  46.136 -16.267  0.00  0.00    +0.000 C 
ATOM     30  C   UNL     1     -34.808  44.476 -19.588  0.00  0.00    +0.000 C 
ATOM     31  C   UNL     1     -34.272  43.381 -17.395  0.00  0.00    +0.000 C 
ATOM     32  C   UNL     1     -32.399  45.651 -16.034  0.00  0.00    +0.000 C 
ATOM     33  C   UNL     1     -29.209  42.671 -18.259  0.00  0.00    +0.000 C 
ATOM     34  C   UNL     1     -34.071  47.206 -15.328  0.00  0.00    +0.000 C 
BRANCH  25  35
ATOM     35  O   UNL     1     -29.023  44.995 -18.588  0.00  0.00    +0.000 OA
ATOM     36  H   UNL     1     -28.992  45.083 -17.620  0.00  0.00    +0.000 HD
ENDBRANCH  25  35
ENDBRANCH  20  24
ENDBRANCH   3  19
TORSDOF 4
ENDMDL
MODEL 4
REMARK VINA RESULT:      -6.6     22.237     24.330
REMARK  Name = 44423609_SipholenoneA.pdbqt.pdb
REMARK  4 active torsions:
REMARK  status: ('A' for Active; 'I' for Inactive)
REMARK    1  A    between atoms: C_3  and  C_19
REMARK    2  A    between atoms: C_5  and  O_17
REMARK    3  A    between atoms: C_20  and  C_24
REMARK    4  A    between atoms: C_25  and  O_35
REMARK                            x       y       z     vdW  Elec       q    Type
REMARK                         _______ _______ _______ _____ _____    ______ ____
ROOT
ATOM      1  O   UNL     1     -35.334  45.305 -19.012  0.00  0.00    +0.000 OA
ATOM      2  O   UNL     1     -37.418  48.345 -18.683  0.00  0.00    +0.000 OA
ATOM      3  C   UNL     1     -34.085  44.469 -15.357  0.00  0.00    +0.000 C 
ATOM      4  C   UNL     1     -35.073  44.639 -16.510  0.00  0.00    +0.000 C 
ATOM      5  C   UNL     1     -32.700  43.900 -15.617  0.00  0.00    +0.000 C 
ATOM      6  C   UNL     1     -34.492  44.953 -17.951  0.00  0.00    +0.000 C 
ATOM      7  C   UNL     1     -32.430  43.953 -17.042  0.00  0.00    +0.000 C 
ATOM      8  C   UNL     1     -33.207  44.443 -18.217  0.00  0.00    +0.000 C 
ATOM      9  C   UNL     1     -35.928  45.818 -16.291  0.00  0.00    +0.000 C 
ATOM     10  C   UNL     1     -35.962  43.368 -16.622  0.00  0.00    +0.000 C 
ATOM     11  C   UNL     1     -31.637  44.656 -14.814  0.00  0.00    +0.000 C 
ATOM     12  C   UNL     1     -36.586  46.943 -17.061  0.00  0.00    +0.000 C 
ATOM     13  C   UNL     1     -35.541  46.719 -19.345  0.00  0.00    +0.000 C 
ATOM     14  C   UNL     1     -36.633  47.445 -18.414  0.00  0.00    +0.000 C 
ATOM     15  C   UNL     1     -36.027  46.710 -20.832  0.00  0.00    +0.000 C 
ATOM     16  C   UNL     1     -34.183  47.509 -19.257  0.00  0.00    +0.000 C 
ENDROOT
BRANCH   5  17
ATOM     17  O   UNL     1     -32.644  42.568 -15.173  0.00  0.00    +0.000 OA
ATOM     18  H   UNL     1     -31.739  42.320 -15.433  0.00  0.00    +0.000 HD
ENDBRANCH   5  17
BRANCH   3  19
ATOM     19  C   UNL     1     -34.554  44.603 -14.002  0.00  0.00    +0.000 C 
ATOM     20  C   UNL     1     -35.046  44.736 -12.559  0.00  0.00    +0.000 C 
BRANCH  20  24
ATOM     21  C   UNL     1     -34.055  44.326  -9.091  0.00  0.00    +0.000 C 
ATOM     22  C   UNL     1     -35.115  43.834 -10.108  0.00  0.00    +0.000 C 
ATOM     23  C   UNL     1     -34.235  45.454  -8.109  0.00  0.00    +0.000 C 
ATOM     24  C   UNL     1     -35.511  44.851 -11.206  0.00  0.00    +0.000 C 
ATOM     25  C   UNL     1     -33.002  45.643  -7.224  0.00  0.00    +0.000 C 
ATOM     26  C   UNL     1     -32.762  43.779  -8.847  0.00  0.00    +0.000 C 
ATOM     27  C   UNL     1     -32.152  44.569  -7.724  0.00  0.00    +0.000 C 
ATOM     28  C   UNL     1     -35.177  46.432  -8.492  0.00  0.00    +0.000 C 
ATOM     29  C   UNL     1     -36.310  46.026 -10.853  0.00  0.00    +0.000 C 
ATOM     30  C   UNL     1     -34.555  42.531 -10.799  0.00  0.00    +0.000 C 
ATOM     31  C   UNL     1     -36.390  43.385  -9.316  0.00  0.00    +0.000 C 
ATOM     32  C   UNL     1     -36.042  46.584  -9.715  0.00  0.00    +0.000 C 
ATOM     33  C   UNL     1     -33.346  45.592  -5.745  0.00  0.00    +0.000 C 
ATOM     34  C   UNL     1     -37.073  46.854 -11.854  0.00  0.00    +0.000 C 
BRANCH  25  35
ATOM     35  O   UNL     1     -32.407  46.894  -7.469  0.00  0.00    +0.000 OA
ATOM     36  H   UNL     1     -33.178  47.405  -7.772  0.00  0.00    +0.000 HD
ENDBRANCH  25  35
ENDBRANCH  20  24
ENDBRANCH   3  19
TORSDOF 4
ENDMDL
MODEL 5
REMARK VINA RESULT:      -6.4     22.983     25.007
REMARK  Name = 44423609_SipholenoneA.pdbqt.pdb
REMARK  4 active torsions:
REMARK  status: ('A' for Active; 'I' for Inactive)
REMARK    1  A    between atoms: C_3  and  C_19
REMARK    2  A    between atoms: C_5  and  O_17
REMARK    3  A    between atoms: C_20  and  C_24
REMARK    4  A    between atoms: C_25  and  O_35
REMARK                            x       y       z     vdW  Elec       q    Type
REMARK                         _______ _______ _______ _____ _____    ______ ____
ROOT
ATOM      1  O   UNL     1     -37.576  48.709 -16.584  0.00  0.00    +0.000 OA
ATOM      2  O   UNL     1     -34.041  49.205 -17.561  0.00  0.00    +0.000 OA
ATOM      3  C   UNL     1     -37.482  46.413 -13.370  0.00  0.00    +0.000 C 
ATOM      4  C   UNL     1     -37.270  47.664 -14.221  0.00  0.00    +0.000 C 
ATOM      5  C   UNL     1     -38.741  45.580 -13.537  0.00  0.00    +0.000 C 
ATOM      6  C   UNL     1     -37.883  47.684 -15.683  0.00  0.00    +0.000 C 
ATOM      7  C   UNL     1     -39.383  45.945 -14.786  0.00  0.00    +0.000 C 
ATOM      8  C   UNL     1     -39.049  46.915 -15.869  0.00  0.00    +0.000 C 
ATOM      9  C   UNL     1     -35.840  47.856 -14.516  0.00  0.00    +0.000 C 
ATOM     10  C   UNL     1     -37.814  48.907 -13.461  0.00  0.00    +0.000 C 
ATOM     11  C   UNL     1     -38.419  44.083 -13.486  0.00  0.00    +0.000 C 
ATOM     12  C   UNL     1     -34.930  48.326 -15.630  0.00  0.00    +0.000 C 
ATOM     13  C   UNL     1     -36.517  48.515 -17.581  0.00  0.00    +0.000 C 
ATOM     14  C   UNL     1     -35.037  48.762 -17.003  0.00  0.00    +0.000 C 
ATOM     15  C   UNL     1     -36.833  49.555 -18.705  0.00  0.00    +0.000 C 
ATOM     16  C   UNL     1     -36.596  47.066 -18.192  0.00  0.00    +0.000 C 
ENDROOT
BRANCH   5  17
ATOM     17  O   UNL     1     -39.616  45.823 -12.464  0.00  0.00    +0.000 OA
ATOM     18  H   UNL     1     -40.379  45.271 -12.714  0.00  0.00    +0.000 HD
ENDBRANCH   5  17
BRANCH   3  19
ATOM     19  C   UNL     1     -36.618  46.176 -12.241  0.00  0.00    +0.000 C 
ATOM     20  C   UNL     1     -35.691  45.926 -11.049  0.00  0.00    +0.000 C 
BRANCH  20  24
ATOM     21  C   UNL     1     -35.623  44.944  -7.556  0.00  0.00    +0.000 C 
ATOM     22  C   UNL     1     -35.186  46.098  -8.492  0.00  0.00    +0.000 C 
ATOM     23  C   UNL     1     -34.751  43.801  -7.103  0.00  0.00    +0.000 C 
ATOM     24  C   UNL     1     -34.817  45.684  -9.937  0.00  0.00    +0.000 C 
ATOM     25  C   UNL     1     -35.490  42.864  -6.146  0.00  0.00    +0.000 C 
ATOM     26  C   UNL     1     -36.879  44.778  -6.905  0.00  0.00    +0.000 C 
ATOM     27  C   UNL     1     -36.779  43.540  -6.060  0.00  0.00    +0.000 C 
ATOM     28  C   UNL     1     -33.692  43.477  -7.977  0.00  0.00    +0.000 C 
ATOM     29  C   UNL     1     -33.582  44.937 -10.186  0.00  0.00    +0.000 C 
ATOM     30  C   UNL     1     -36.362  47.147  -8.548  0.00  0.00    +0.000 C 
ATOM     31  C   UNL     1     -33.978  46.842  -7.829  0.00  0.00    +0.000 C 
ATOM     32  C   UNL     1     -33.261  44.045  -9.302  0.00  0.00    +0.000 C 
ATOM     33  C   UNL     1     -34.743  42.678  -4.837  0.00  0.00    +0.000 C 
ATOM     34  C   UNL     1     -32.928  44.822 -11.539  0.00  0.00    +0.000 C 
BRANCH  25  35
ATOM     35  O   UNL     1     -35.641  41.590  -6.723  0.00  0.00    +0.000 OA
ATOM     36  H   UNL     1     -35.176  41.718  -7.568  0.00  0.00    +0.000 HD
ENDBRANCH  25  35
ENDBRANCH  20  24
ENDBRANCH   3  19
TORSDOF 4
ENDMDL
MODEL 6
REMARK VINA RESULT:      -6.2      6.347     10.816
REMARK  Name = 44423609_SipholenoneA.pdbqt.pdb
REMARK  4 active torsions:
REMARK  status: ('A' for Active; 'I' for Inactive)
REMARK    1  A    between atoms: C_3  and  C_19
REMARK    2  A    between atoms: C_5  and  O_17
REMARK    3  A    between atoms: C_20  and  C_24
REMARK    4  A    between atoms: C_25  and  O_35
REMARK                            x       y       z     vdW  Elec       q    Type
REMARK                         _______ _______ _______ _____ _____    ______ ____
ROOT
ATOM      1  O   UNL     1     -11.835  48.501 -17.401  0.00  0.00    +0.000 OA
ATOM      2  O   UNL     1      -8.188  47.960 -17.078  0.00  0.00    +0.000 OA
ATOM      3  C   UNL     1     -13.422  47.087 -14.070  0.00  0.00    +0.000 C 
ATOM      4  C   UNL     1     -12.602  48.018 -14.962  0.00  0.00    +0.000 C 
ATOM      5  C   UNL     1     -14.750  46.535 -14.560  0.00  0.00    +0.000 C 
ATOM      6  C   UNL     1     -12.692  47.817 -16.532  0.00  0.00    +0.000 C 
ATOM      7  C   UNL     1     -14.833  46.718 -15.997  0.00  0.00    +0.000 C 
ATOM      8  C   UNL     1     -13.910  47.300 -17.014  0.00  0.00    +0.000 C 
ATOM      9  C   UNL     1     -11.160  47.815 -14.738  0.00  0.00    +0.000 C 
ATOM     10  C   UNL     1     -12.972  49.495 -14.649  0.00  0.00    +0.000 C 
ATOM     11  C   UNL     1     -14.908  45.061 -14.170  0.00  0.00    +0.000 C 
ATOM     12  C   UNL     1      -9.852  47.791 -15.499  0.00  0.00    +0.000 C 
ATOM     13  C   UNL     1     -10.621  47.845 -17.900  0.00  0.00    +0.000 C 
ATOM     14  C   UNL     1      -9.392  47.894 -16.864  0.00  0.00    +0.000 C 
ATOM     15  C   UNL     1     -10.253  48.626 -19.204  0.00  0.00    +0.000 C 
ATOM     16  C   UNL     1     -10.920  46.345 -18.272  0.00  0.00    +0.000 C 
ENDROOT
BRANCH   5  17
ATOM     17  O   UNL     1     -15.807  47.215 -13.932  0.00  0.00    +0.000 OA
ATOM     18  H   UNL     1     -15.503  47.221 -13.006  0.00  0.00    +0.000 HD
ENDBRANCH   5  17
BRANCH   3  19
ATOM     19  C   UNL     1     -13.063  46.947 -12.682  0.00  0.00    +0.000 C 
ATOM     20  C   UNL     1     -12.694  46.792 -11.205  0.00  0.00    +0.000 C 
BRANCH  20  24
ATOM     21  C   UNL     1     -11.822  48.658  -8.215  0.00  0.00    +0.000 C 
ATOM     22  C   UNL     1     -11.281  47.536  -9.137  0.00  0.00    +0.000 C 
ATOM     23  C   UNL     1     -12.592  48.451  -6.937  0.00  0.00    +0.000 C 
ATOM     24  C   UNL     1     -12.355  46.653  -9.817  0.00  0.00    +0.000 C 
ATOM     25  C   UNL     1     -12.933  49.777  -6.256  0.00  0.00    +0.000 C 
ATOM     26  C   UNL     1     -11.643  50.064  -8.359  0.00  0.00    +0.000 C 
ATOM     27  C   UNL     1     -12.303  50.716  -7.176  0.00  0.00    +0.000 C 
ATOM     28  C   UNL     1     -13.305  47.237  -6.862  0.00  0.00    +0.000 C 
ATOM     29  C   UNL     1     -13.128  45.702  -9.015  0.00  0.00    +0.000 C 
ATOM     30  C   UNL     1     -10.396  48.212 -10.254  0.00  0.00    +0.000 C 
ATOM     31  C   UNL     1     -10.306  46.637  -8.302  0.00  0.00    +0.000 C 
ATOM     32  C   UNL     1     -13.466  46.093  -7.827  0.00  0.00    +0.000 C 
ATOM     33  C   UNL     1     -12.448  49.822  -4.817  0.00  0.00    +0.000 C 
ATOM     34  C   UNL     1     -13.896  44.543  -9.596  0.00  0.00    +0.000 C 
BRANCH  25  35
ATOM     35  O   UNL     1     -14.325  49.974  -6.231  0.00  0.00    +0.000 OA
ATOM     36  H   UNL     1     -14.621  49.128  -5.851  0.00  0.00    +0.000 HD
ENDBRANCH  25  35
ENDBRANCH  20  24
ENDBRANCH   3  19
TORSDOF 4
ENDMDL
MODEL 7
REMARK VINA RESULT:      -6.2      1.604      2.349
REMARK  Name = 44423609_SipholenoneA.pdbqt.pdb
REMARK  4 active torsions:
REMARK  status: ('A' for Active; 'I' for Inactive)
REMARK    1  A    between atoms: C_3  and  C_19
REMARK    2  A    between atoms: C_5  and  O_17
REMARK    3  A    between atoms: C_20  and  C_24
REMARK    4  A    between atoms: C_25  and  O_35
REMARK                            x       y       z     vdW  Elec       q    Type
REMARK                         _______ _______ _______ _____ _____    ______ ____
ROOT
ATOM      1  O   UNL     1     -13.706  45.163  -4.945  0.00  0.00    +0.000 OA
ATOM      2  O   UNL     1     -12.157  48.488  -5.430  0.00  0.00    +0.000 OA
ATOM      3  C   UNL     1     -13.926  44.649  -1.033  0.00  0.00    +0.000 C 
ATOM      4  C   UNL     1     -14.239  45.257  -2.400  0.00  0.00    +0.000 C 
ATOM      5  C   UNL     1     -13.705  43.152  -0.897  0.00  0.00    +0.000 C 
ATOM      6  C   UNL     1     -13.620  44.563  -3.684  0.00  0.00    +0.000 C 
ATOM      7  C   UNL     1     -13.469  42.590  -2.213  0.00  0.00    +0.000 C 
ATOM      8  C   UNL     1     -13.398  43.175  -3.583  0.00  0.00    +0.000 C 
ATOM      9  C   UNL     1     -13.665  46.609  -2.511  0.00  0.00    +0.000 C 
ATOM     10  C   UNL     1     -15.779  45.330  -2.595  0.00  0.00    +0.000 C 
ATOM     11  C   UNL     1     -12.544  42.856   0.059  0.00  0.00    +0.000 C 
ATOM     12  C   UNL     1     -13.002  47.517  -3.524  0.00  0.00    +0.000 C 
ATOM     13  C   UNL     1     -12.581  45.953  -5.458  0.00  0.00    +0.000 C 
ATOM     14  C   UNL     1     -12.543  47.459  -4.892  0.00  0.00    +0.000 C 
ATOM     15  C   UNL     1     -12.780  45.970  -7.009  0.00  0.00    +0.000 C 
ATOM     16  C   UNL     1     -11.215  45.246  -5.127  0.00  0.00    +0.000 C 
ENDROOT
BRANCH   5  17
ATOM     17  O   UNL     1     -14.839  42.556  -0.321  0.00  0.00    +0.000 OA
ATOM     18  H   UNL     1     -15.164  42.014  -1.062  0.00  0.00    +0.000 HD
ENDBRANCH   5  17
BRANCH   3  19
ATOM     19  C   UNL     1     -14.099  45.453   0.150  0.00  0.00    +0.000 C 
ATOM     20  C   UNL     1     -14.294  46.309   1.404  0.00  0.00    +0.000 C 
BRANCH  20  24
ATOM     21  C   UNL     1     -14.855  49.712   2.532  0.00  0.00    +0.000 C 
ATOM     22  C   UNL     1     -13.865  48.534   2.703  0.00  0.00    +0.000 C 
ATOM     23  C   UNL     1     -16.010  50.031   3.447  0.00  0.00    +0.000 C 
ATOM     24  C   UNL     1     -14.480  47.119   2.573  0.00  0.00    +0.000 C 
ATOM     25  C   UNL     1     -16.755  51.292   3.007  0.00  0.00    +0.000 C 
ATOM     26  C   UNL     1     -14.828  50.736   1.542  0.00  0.00    +0.000 C 
ATOM     27  C   UNL     1     -15.961  51.675   1.846  0.00  0.00    +0.000 C 
ATOM     28  C   UNL     1     -16.529  48.928   4.156  0.00  0.00    +0.000 C 
ATOM     29  C   UNL     1     -15.358  46.609   3.628  0.00  0.00    +0.000 C 
ATOM     30  C   UNL     1     -12.728  48.696   1.622  0.00  0.00    +0.000 C 
ATOM     31  C   UNL     1     -13.158  48.679   4.094  0.00  0.00    +0.000 C 
ATOM     32  C   UNL     1     -16.164  47.468   4.171  0.00  0.00    +0.000 C 
ATOM     33  C   UNL     1     -16.850  52.319   4.122  0.00  0.00    +0.000 C 
ATOM     34  C   UNL     1     -15.692  45.152   3.811  0.00  0.00    +0.000 C 
BRANCH  25  35
ATOM     35  O   UNL     1     -18.070  50.976   2.619  0.00  0.00    +0.000 OA
ATOM     36  H   UNL     1     -18.218  51.641   1.925  0.00  0.00    +0.000 HD
ENDBRANCH  25  35
ENDBRANCH  20  24
ENDBRANCH   3  19
TORSDOF 4
ENDMDL
MODEL 8
REMARK VINA RESULT:      -6.1      7.021     10.772
REMARK  Name = 44423609_SipholenoneA.pdbqt.pdb
REMARK  4 active torsions:
REMARK  status: ('A' for Active; 'I' for Inactive)
REMARK    1  A    between atoms: C_3  and  C_19
REMARK    2  A    between atoms: C_5  and  O_17
REMARK    3  A    between atoms: C_20  and  C_24
REMARK    4  A    between atoms: C_25  and  O_35
REMARK                            x       y       z     vdW  Elec       q    Type
REMARK                         _______ _______ _______ _____ _____    ______ ____
ROOT
ATOM      1  O   UNL     1     -15.871  44.192   8.380  0.00  0.00    +0.000 OA
ATOM      2  O   UNL     1     -18.208  45.521  10.923  0.00  0.00    +0.000 OA
ATOM      3  C   UNL     1     -16.136  46.652   5.299  0.00  0.00    +0.000 C 
ATOM      4  C   UNL     1     -15.797  46.191   6.716  0.00  0.00    +0.000 C 
ATOM      5  C   UNL     1     -15.940  45.710   4.123  0.00  0.00    +0.000 C 
ATOM      6  C   UNL     1     -15.980  44.655   7.064  0.00  0.00    +0.000 C 
ATOM      7  C   UNL     1     -15.793  44.357   4.624  0.00  0.00    +0.000 C 
ATOM      8  C   UNL     1     -15.810  43.759   5.991  0.00  0.00    +0.000 C 
ATOM      9  C   UNL     1     -16.708  46.809   7.694  0.00  0.00    +0.000 C 
ATOM     10  C   UNL     1     -14.331  46.583   7.053  0.00  0.00    +0.000 C 
ATOM     11  C   UNL     1     -17.103  45.821   3.132  0.00  0.00    +0.000 C 
ATOM     12  C   UNL     1     -17.434  46.483   8.983  0.00  0.00    +0.000 C 
ATOM     13  C   UNL     1     -17.078  43.995   9.190  0.00  0.00    +0.000 C 
ATOM     14  C   UNL     1     -17.633  45.350   9.855  0.00  0.00    +0.000 C 
ATOM     15  C   UNL     1     -16.649  42.988  10.307  0.00  0.00    +0.000 C 
ATOM     16  C   UNL     1     -18.220  43.341   8.326  0.00  0.00    +0.000 C 
ENDROOT
BRANCH   5  17
ATOM     17  O   UNL     1     -14.788  46.080   3.407  0.00  0.00    +0.000 OA
ATOM     18  H   UNL     1     -14.879  47.050   3.392  0.00  0.00    +0.000 HD
ENDBRANCH   5  17
BRANCH   3  19
ATOM     19  C   UNL     1     -16.390  48.049   5.056  0.00  0.00    +0.000 C 
ATOM     20  C   UNL     1     -16.669  49.530   4.788  0.00  0.00    +0.000 C 
BRANCH  20  24
ATOM     21  C   UNL     1     -15.949  52.895   5.941  0.00  0.00    +0.000 C 
ATOM     22  C   UNL     1     -17.140  51.945   5.665  0.00  0.00    +0.000 C 
ATOM     23  C   UNL     1     -15.409  53.928   4.986  0.00  0.00    +0.000 C 
ATOM     24  C   UNL     1     -16.927  50.917   4.528  0.00  0.00    +0.000 C 
ATOM     25  C   UNL     1     -14.254  54.723   5.599  0.00  0.00    +0.000 C 
ATOM     26  C   UNL     1     -15.195  53.021   7.143  0.00  0.00    +0.000 C 
ATOM     27  C   UNL     1     -14.196  54.122   6.926  0.00  0.00    +0.000 C 
ATOM     28  C   UNL     1     -15.634  53.653   3.621  0.00  0.00    +0.000 C 
ATOM     29  C   UNL     1     -16.892  51.371   3.136  0.00  0.00    +0.000 C 
ATOM     30  C   UNL     1     -17.458  51.167   7.000  0.00  0.00    +0.000 C 
ATOM     31  C   UNL     1     -18.408  52.815   5.363  0.00  0.00    +0.000 C 
ATOM     32  C   UNL     1     -16.306  52.505   2.915  0.00  0.00    +0.000 C 
ATOM     33  C   UNL     1     -14.504  56.221   5.552  0.00  0.00    +0.000 C 
ATOM     34  C   UNL     1     -17.083  50.461   1.951  0.00  0.00    +0.000 C 
BRANCH  25  35
ATOM     35  O   UNL     1     -13.061  54.479   4.896  0.00  0.00    +0.000 OA
ATOM     36  H   UNL     1     -12.631  55.350   4.960  0.00  0.00    +0.000 HD
ENDBRANCH  25  35
ENDBRANCH  20  24
ENDBRANCH   3  19
TORSDOF 4
ENDMDL
MODEL 9
REMARK VINA RESULT:      -6.1     21.606     23.730
REMARK  Name = 44423609_SipholenoneA.pdbqt.pdb
REMARK  4 active torsions:
REMARK  status: ('A' for Active; 'I' for Inactive)
REMARK    1  A    between atoms: C_3  and  C_19
REMARK    2  A    between atoms: C_5  and  O_17
REMARK    3  A    between atoms: C_20  and  C_24
REMARK    4  A    between atoms: C_25  and  O_35
REMARK                            x       y       z     vdW  Elec       q    Type
REMARK                         _______ _______ _______ _____ _____    ______ ____
ROOT
ATOM      1  O   UNL     1     -27.806  39.953 -17.423  0.00  0.00    +0.000 OA
ATOM      2  O   UNL     1     -29.794  37.241 -15.879  0.00  0.00    +0.000 OA
ATOM      3  C   UNL     1     -30.263  43.031 -17.736  0.00  0.00    +0.000 C 
ATOM      4  C   UNL     1     -29.397  41.977 -17.049  0.00  0.00    +0.000 C 
ATOM      5  C   UNL     1     -29.791  43.685 -19.024  0.00  0.00    +0.000 C 
ATOM      6  C   UNL     1     -28.481  41.057 -17.957  0.00  0.00    +0.000 C 
ATOM      7  C   UNL     1     -28.711  42.895 -19.584  0.00  0.00    +0.000 C 
ATOM      8  C   UNL     1     -28.033  41.635 -19.161  0.00  0.00    +0.000 C 
ATOM      9  C   UNL     1     -30.238  40.966 -16.386  0.00  0.00    +0.000 C 
ATOM     10  C   UNL     1     -28.485  42.664 -15.994  0.00  0.00    +0.000 C 
ATOM     11  C   UNL     1     -30.948  43.841 -20.016  0.00  0.00    +0.000 C 
ATOM     12  C   UNL     1     -30.274  39.479 -16.105  0.00  0.00    +0.000 C 
ATOM     13  C   UNL     1     -28.389  38.611 -17.538  0.00  0.00    +0.000 C 
ATOM     14  C   UNL     1     -29.506  38.299 -16.424  0.00  0.00    +0.000 C 
ATOM     15  C   UNL     1     -27.179  37.635 -17.372  0.00  0.00    +0.000 C 
ATOM     16  C   UNL     1     -29.017  38.406 -18.967  0.00  0.00    +0.000 C 
ENDROOT
BRANCH   5  17
ATOM     17  O   UNL     1     -29.337  44.988 -18.755  0.00  0.00    +0.000 OA
ATOM     18  H   UNL     1     -29.940  45.516 -19.309  0.00  0.00    +0.000 HD
ENDBRANCH   5  17
BRANCH   3  19
ATOM     19  C   UNL     1     -31.391  43.584 -17.031  0.00  0.00    +0.000 C 
ATOM     20  C   UNL     1     -32.591  44.161 -16.276  0.00  0.00    +0.000 C 
BRANCH  20  24
ATOM     21  C   UNL     1     -34.476  43.922 -13.183  0.00  0.00    +0.000 C 
ATOM     22  C   UNL     1     -34.657  43.804 -14.717  0.00  0.00    +0.000 C 
ATOM     23  C   UNL     1     -34.746  45.154 -12.358  0.00  0.00    +0.000 C 
ATOM     24  C   UNL     1     -33.722  44.694 -15.572  0.00  0.00    +0.000 C 
ATOM     25  C   UNL     1     -34.505  44.906 -10.868  0.00  0.00    +0.000 C 
ATOM     26  C   UNL     1     -34.095  42.897 -12.270  0.00  0.00    +0.000 C 
ATOM     27  C   UNL     1     -34.128  43.498 -10.893  0.00  0.00    +0.000 C 
ATOM     28  C   UNL     1     -34.633  46.374 -13.057  0.00  0.00    +0.000 C 
ATOM     29  C   UNL     1     -33.926  46.144 -15.601  0.00  0.00    +0.000 C 
ATOM     30  C   UNL     1     -34.429  42.296 -15.117  0.00  0.00    +0.000 C 
ATOM     31  C   UNL     1     -36.152  44.119 -15.065  0.00  0.00    +0.000 C 
ATOM     32  C   UNL     1     -34.277  46.698 -14.483  0.00  0.00    +0.000 C 
ATOM     33  C   UNL     1     -35.719  45.260 -10.026  0.00  0.00    +0.000 C 
ATOM     34  C   UNL     1     -33.360  47.051 -16.662  0.00  0.00    +0.000 C 
BRANCH  25  35
ATOM     35  O   UNL     1     -33.434  45.693 -10.405  0.00  0.00    +0.000 OA
ATOM     36  H   UNL     1     -33.514  45.558  -9.445  0.00  0.00    +0.000 HD
ENDBRANCH  25  35
ENDBRANCH  20  24
ENDBRANCH   3  19
TORSDOF 4
ENDMDL
