MODEL 1
REMARK VINA RESULT:      -6.2      0.000      0.000
REMARK  Name = 445154_Resveratrol.pdbqt.pdb
REMARK  5 active torsions:
REMARK  status: ('A' for Active; 'I' for Inactive)
REMARK    1  A    between atoms: C_1  and  C_11
REMARK    2  A    between atoms: C_4  and  O_7
REMARK    3  A    between atoms: C_5  and  O_9
REMARK    4  A    between atoms: C_12  and  C_13
REMARK    5  A    between atoms: C_18  and  O_19
REMARK                            x       y       z     vdW  Elec       q    Type
REMARK                         _______ _______ _______ _____ _____    ______ ____
ROOT
ATOM      1  C   UNL     1     -34.627  45.947  -7.330  0.00  0.00    +0.000 A 
ATOM      2  C   UNL     1     -33.612  45.375  -8.095  0.00  0.00    +0.000 A 
ATOM      3  C   UNL     1     -34.590  45.861  -5.938  0.00  0.00    +0.000 A 
ATOM      4  C   UNL     1     -33.531  45.201  -5.321  0.00  0.00    +0.000 A 
ATOM      5  C   UNL     1     -32.563  44.718  -7.459  0.00  0.00    +0.000 A 
ATOM      6  C   UNL     1     -32.511  44.625  -6.072  0.00  0.00    +0.000 A 
ENDROOT
BRANCH   4   7
ATOM      7  O   UNL     1     -33.468  45.102  -3.961  0.00  0.00    +0.000 OA
ATOM      8  H   UNL     1     -34.157  44.478  -3.670  0.00  0.00    +0.000 HD
ENDBRANCH   4   7
BRANCH   5   9
ATOM      9  O   UNL     1     -31.580  44.166  -8.229  0.00  0.00    +0.000 OA
ATOM     10  H   UNL     1     -31.454  44.736  -9.009  0.00  0.00    +0.000 HD
ENDBRANCH   5   9
BRANCH   1  11
ATOM     11  C   UNL     1     -35.708  46.621  -7.970  0.00  0.00    +0.000 C 
ATOM     12  C   UNL     1     -36.620  47.190  -8.508  0.00  0.00    +0.000 C 
BRANCH  12  13
ATOM     13  C   UNL     1     -37.701  47.865  -9.148  0.00  0.00    +0.000 A 
ATOM     14  C   UNL     1     -38.046  47.538 -10.459  0.00  0.00    +0.000 A 
ATOM     15  C   UNL     1     -38.410  48.850  -8.460  0.00  0.00    +0.000 A 
ATOM     16  C   UNL     1     -39.101  48.195 -11.085  0.00  0.00    +0.000 A 
ATOM     17  C   UNL     1     -39.466  49.509  -9.083  0.00  0.00    +0.000 A 
ATOM     18  C   UNL     1     -39.803  49.177 -10.391  0.00  0.00    +0.000 A 
BRANCH  18  19
ATOM     19  O   UNL     1     -40.841  49.838 -10.981  0.00  0.00    +0.000 OA
ATOM     20  H   UNL     1     -41.629  49.733 -10.418  0.00  0.00    +0.000 HD
ENDBRANCH  18  19
ENDBRANCH  12  13
ENDBRANCH   1  11
TORSDOF 5
ENDMDL
MODEL 2
REMARK VINA RESULT:      -6.2      0.032      2.007
REMARK  Name = 445154_Resveratrol.pdbqt.pdb
REMARK  5 active torsions:
REMARK  status: ('A' for Active; 'I' for Inactive)
REMARK    1  A    between atoms: C_1  and  C_11
REMARK    2  A    between atoms: C_4  and  O_7
REMARK    3  A    between atoms: C_5  and  O_9
REMARK    4  A    between atoms: C_12  and  C_13
REMARK    5  A    between atoms: C_18  and  O_19
REMARK                            x       y       z     vdW  Elec       q    Type
REMARK                         _______ _______ _______ _____ _____    ______ ____
ROOT
ATOM      1  C   UNL     1     -34.640  45.960  -7.345  0.00  0.00    +0.000 A 
ATOM      2  C   UNL     1     -34.588  45.879  -5.954  0.00  0.00    +0.000 A 
ATOM      3  C   UNL     1     -33.635  45.382  -8.120  0.00  0.00    +0.000 A 
ATOM      4  C   UNL     1     -32.581  44.722  -7.492  0.00  0.00    +0.000 A 
ATOM      5  C   UNL     1     -33.527  45.217  -5.347  0.00  0.00    +0.000 A 
ATOM      6  C   UNL     1     -32.517  44.634  -6.106  0.00  0.00    +0.000 A 
ENDROOT
BRANCH   4   7
ATOM      7  O   UNL     1     -31.584  44.146  -8.225  0.00  0.00    +0.000 OA
ATOM      8  H   UNL     1     -30.944  43.749  -7.607  0.00  0.00    +0.000 HD
ENDBRANCH   4   7
BRANCH   5   9
ATOM      9  O   UNL     1     -33.497  45.150  -3.983  0.00  0.00    +0.000 OA
ATOM     10  H   UNL     1     -33.693  46.038  -3.635  0.00  0.00    +0.000 HD
ENDBRANCH   5   9
BRANCH   1  11
ATOM     11  C   UNL     1     -35.723  46.637  -7.980  0.00  0.00    +0.000 C 
ATOM     12  C   UNL     1     -36.635  47.208  -8.515  0.00  0.00    +0.000 C 
BRANCH  12  13
ATOM     13  C   UNL     1     -37.718  47.884  -9.150  0.00  0.00    +0.000 A 
ATOM     14  C   UNL     1     -38.065  47.562 -10.462  0.00  0.00    +0.000 A 
ATOM     15  C   UNL     1     -38.427  48.865  -8.458  0.00  0.00    +0.000 A 
ATOM     16  C   UNL     1     -39.122  48.221 -11.084  0.00  0.00    +0.000 A 
ATOM     17  C   UNL     1     -39.484  49.527  -9.076  0.00  0.00    +0.000 A 
ATOM     18  C   UNL     1     -39.823  49.199 -10.385  0.00  0.00    +0.000 A 
BRANCH  18  19
ATOM     19  O   UNL     1     -40.864  49.861 -10.970  0.00  0.00    +0.000 OA
ATOM     20  H   UNL     1     -40.640  50.017 -11.904  0.00  0.00    +0.000 HD
ENDBRANCH  18  19
ENDBRANCH  12  13
ENDBRANCH   1  11
TORSDOF 5
ENDMDL
MODEL 3
REMARK VINA RESULT:      -5.4      1.703      7.458
REMARK  Name = 445154_Resveratrol.pdbqt.pdb
REMARK  5 active torsions:
REMARK  status: ('A' for Active; 'I' for Inactive)
REMARK    1  A    between atoms: C_1  and  C_11
REMARK    2  A    between atoms: C_4  and  O_7
REMARK    3  A    between atoms: C_5  and  O_9
REMARK    4  A    between atoms: C_12  and  C_13
REMARK    5  A    between atoms: C_18  and  O_19
REMARK                            x       y       z     vdW  Elec       q    Type
REMARK                         _______ _______ _______ _____ _____    ______ ____
ROOT
ATOM      1  C   UNL     1     -38.484  48.804  -8.714  0.00  0.00    +0.000 A 
ATOM      2  C   UNL     1     -39.417  48.666  -9.741  0.00  0.00    +0.000 A 
ATOM      3  C   UNL     1     -38.661  49.777  -7.731  0.00  0.00    +0.000 A 
ATOM      4  C   UNL     1     -39.777  50.608  -7.783  0.00  0.00    +0.000 A 
ATOM      5  C   UNL     1     -40.525  49.507  -9.775  0.00  0.00    +0.000 A 
ATOM      6  C   UNL     1     -40.716  50.481  -8.801  0.00  0.00    +0.000 A 
ENDROOT
BRANCH   4   7
ATOM      7  O   UNL     1     -39.977  51.568  -6.834  0.00  0.00    +0.000 OA
ATOM      8  H   UNL     1     -39.482  51.313  -6.035  0.00  0.00    +0.000 HD
ENDBRANCH   4   7
BRANCH   5   9
ATOM      9  O   UNL     1     -41.425  49.353 -10.790  0.00  0.00    +0.000 OA
ATOM     10  H   UNL     1     -42.136  50.006 -10.662  0.00  0.00    +0.000 HD
ENDBRANCH   5   9
BRANCH   1  11
ATOM     11  C   UNL     1     -37.343  47.950  -8.668  0.00  0.00    +0.000 C 
ATOM     12  C   UNL     1     -36.382  47.230  -8.630  0.00  0.00    +0.000 C 
BRANCH  12  13
ATOM     13  C   UNL     1     -35.240  46.376  -8.585  0.00  0.00    +0.000 A 
ATOM     14  C   UNL     1     -35.126  45.320  -9.489  0.00  0.00    +0.000 A 
ATOM     15  C   UNL     1     -34.243  46.598  -7.636  0.00  0.00    +0.000 A 
ATOM     16  C   UNL     1     -34.012  44.486  -9.446  0.00  0.00    +0.000 A 
ATOM     17  C   UNL     1     -33.128  45.766  -7.590  0.00  0.00    +0.000 A 
ATOM     18  C   UNL     1     -33.022  44.715  -8.496  0.00  0.00    +0.000 A 
BRANCH  18  19
ATOM     19  O   UNL     1     -31.920  43.913  -8.431  0.00  0.00    +0.000 OA
ATOM     20  H   UNL     1     -32.105  43.190  -7.806  0.00  0.00    +0.000 HD
ENDBRANCH  18  19
ENDBRANCH  12  13
ENDBRANCH   1  11
TORSDOF 5
ENDMDL
MODEL 4
REMARK VINA RESULT:      -5.2     26.510     28.373
REMARK  Name = 445154_Resveratrol.pdbqt.pdb
REMARK  5 active torsions:
REMARK  status: ('A' for Active; 'I' for Inactive)
REMARK    1  A    between atoms: C_1  and  C_11
REMARK    2  A    between atoms: C_4  and  O_7
REMARK    3  A    between atoms: C_5  and  O_9
REMARK    4  A    between atoms: C_12  and  C_13
REMARK    5  A    between atoms: C_18  and  O_19
REMARK                            x       y       z     vdW  Elec       q    Type
REMARK                         _______ _______ _______ _____ _____    ______ ____
ROOT
ATOM      1  C   UNL     1     -18.025  55.035 -28.142  0.00  0.00    +0.000 A 
ATOM      2  C   UNL     1     -18.495  53.922 -28.838  0.00  0.00    +0.000 A 
ATOM      3  C   UNL     1     -18.152  56.311 -28.691  0.00  0.00    +0.000 A 
ATOM      4  C   UNL     1     -18.752  56.463 -29.938  0.00  0.00    +0.000 A 
ATOM      5  C   UNL     1     -19.091  54.096 -30.083  0.00  0.00    +0.000 A 
ATOM      6  C   UNL     1     -19.225  55.362 -30.644  0.00  0.00    +0.000 A 
ENDROOT
BRANCH   4   7
ATOM      7  O   UNL     1     -18.890  57.699 -30.499  0.00  0.00    +0.000 OA
ATOM      8  H   UNL     1     -18.013  57.994 -30.804  0.00  0.00    +0.000 HD
ENDBRANCH   4   7
BRANCH   5   9
ATOM      9  O   UNL     1     -19.543  52.991 -30.746  0.00  0.00    +0.000 OA
ATOM     10  H   UNL     1     -19.657  52.276 -30.095  0.00  0.00    +0.000 HD
ENDBRANCH   5   9
BRANCH   1  11
ATOM     11  C   UNL     1     -17.411  54.871 -26.866  0.00  0.00    +0.000 C 
ATOM     12  C   UNL     1     -16.894  54.731 -25.790  0.00  0.00    +0.000 C 
BRANCH  12  13
ATOM     13  C   UNL     1     -16.280  54.566 -24.514  0.00  0.00    +0.000 A 
ATOM     14  C   UNL     1     -15.628  53.372 -24.206  0.00  0.00    +0.000 A 
ATOM     15  C   UNL     1     -16.333  55.598 -23.577  0.00  0.00    +0.000 A 
ATOM     16  C   UNL     1     -15.028  53.208 -22.961  0.00  0.00    +0.000 A 
ATOM     17  C   UNL     1     -15.734  55.438 -22.331  0.00  0.00    +0.000 A 
ATOM     18  C   UNL     1     -15.086  54.244 -22.032  0.00  0.00    +0.000 A 
BRANCH  18  19
ATOM     19  O   UNL     1     -14.506  54.110 -20.804  0.00  0.00    +0.000 OA
ATOM     20  H   UNL     1     -14.046  53.253 -20.775  0.00  0.00    +0.000 HD
ENDBRANCH  18  19
ENDBRANCH  12  13
ENDBRANCH   1  11
TORSDOF 5
ENDMDL
MODEL 5
REMARK VINA RESULT:      -5.2     26.666     28.553
REMARK  Name = 445154_Resveratrol.pdbqt.pdb
REMARK  5 active torsions:
REMARK  status: ('A' for Active; 'I' for Inactive)
REMARK    1  A    between atoms: C_1  and  C_11
REMARK    2  A    between atoms: C_4  and  O_7
REMARK    3  A    between atoms: C_5  and  O_9
REMARK    4  A    between atoms: C_12  and  C_13
REMARK    5  A    between atoms: C_18  and  O_19
REMARK                            x       y       z     vdW  Elec       q    Type
REMARK                         _______ _______ _______ _____ _____    ______ ____
ROOT
ATOM      1  C   UNL     1     -18.157  54.832 -28.530  0.00  0.00    +0.000 A 
ATOM      2  C   UNL     1     -18.232  56.096 -29.115  0.00  0.00    +0.000 A 
ATOM      3  C   UNL     1     -18.710  53.727 -29.175  0.00  0.00    +0.000 A 
ATOM      4  C   UNL     1     -19.336  53.895 -30.408  0.00  0.00    +0.000 A 
ATOM      5  C   UNL     1     -18.862  56.243 -30.347  0.00  0.00    +0.000 A 
ATOM      6  C   UNL     1     -19.417  55.149 -31.003  0.00  0.00    +0.000 A 
ENDROOT
BRANCH   4   7
ATOM      7  O   UNL     1     -19.885  52.831 -31.062  0.00  0.00    +0.000 OA
ATOM      8  H   UNL     1     -20.183  52.186 -30.396  0.00  0.00    +0.000 HD
ENDBRANCH   4   7
BRANCH   5   9
ATOM      9  O   UNL     1     -18.923  57.489 -30.901  0.00  0.00    +0.000 OA
ATOM     10  H   UNL     1     -19.288  57.401 -31.799  0.00  0.00    +0.000 HD
ENDBRANCH   5   9
BRANCH   1  11
ATOM     11  C   UNL     1     -17.514  54.669 -27.268  0.00  0.00    +0.000 C 
ATOM     12  C   UNL     1     -16.974  54.531 -26.204  0.00  0.00    +0.000 C 
BRANCH  12  13
ATOM     13  C   UNL     1     -16.332  54.367 -24.941  0.00  0.00    +0.000 A 
ATOM     14  C   UNL     1     -16.315  55.421 -24.028  0.00  0.00    +0.000 A 
ATOM     15  C   UNL     1     -15.723  53.153 -24.623  0.00  0.00    +0.000 A 
ATOM     16  C   UNL     1     -15.689  55.262 -22.794  0.00  0.00    +0.000 A 
ATOM     17  C   UNL     1     -15.096  52.991 -23.391  0.00  0.00    +0.000 A 
ATOM     18  C   UNL     1     -15.083  54.048 -22.486  0.00  0.00    +0.000 A 
BRANCH  18  19
ATOM     19  O   UNL     1     -14.463  53.865 -21.285  0.00  0.00    +0.000 OA
ATOM     20  H   UNL     1     -13.725  53.244 -21.414  0.00  0.00    +0.000 HD
ENDBRANCH  18  19
ENDBRANCH  12  13
ENDBRANCH   1  11
TORSDOF 5
ENDMDL
MODEL 6
REMARK VINA RESULT:      -5.2     26.965     28.856
REMARK  Name = 445154_Resveratrol.pdbqt.pdb
REMARK  5 active torsions:
REMARK  status: ('A' for Active; 'I' for Inactive)
REMARK    1  A    between atoms: C_1  and  C_11
REMARK    2  A    between atoms: C_4  and  O_7
REMARK    3  A    between atoms: C_5  and  O_9
REMARK    4  A    between atoms: C_12  and  C_13
REMARK    5  A    between atoms: C_18  and  O_19
REMARK                            x       y       z     vdW  Elec       q    Type
REMARK                         _______ _______ _______ _____ _____    ______ ____
ROOT
ATOM      1  C   UNL     1     -18.621  54.115 -29.568  0.00  0.00    +0.000 A 
ATOM      2  C   UNL     1     -18.621  55.410 -30.085  0.00  0.00    +0.000 A 
ATOM      3  C   UNL     1     -19.322  53.100 -30.218  0.00  0.00    +0.000 A 
ATOM      4  C   UNL     1     -20.020  53.391 -31.387  0.00  0.00    +0.000 A 
ATOM      5  C   UNL     1     -19.325  55.680 -31.254  0.00  0.00    +0.000 A 
ATOM      6  C   UNL     1     -20.028  54.678 -31.914  0.00  0.00    +0.000 A 
ENDROOT
BRANCH   4   7
ATOM      7  O   UNL     1     -20.714  52.417 -32.045  0.00  0.00    +0.000 OA
ATOM      8  H   UNL     1     -20.215  52.177 -32.846  0.00  0.00    +0.000 HD
ENDBRANCH   4   7
BRANCH   5   9
ATOM      9  O   UNL     1     -19.311  56.955 -31.741  0.00  0.00    +0.000 OA
ATOM     10  H   UNL     1     -19.785  57.524 -31.109  0.00  0.00    +0.000 HD
ENDBRANCH   5   9
BRANCH   1  11
ATOM     11  C   UNL     1     -17.903  53.826 -28.370  0.00  0.00    +0.000 C 
ATOM     12  C   UNL     1     -17.299  53.582 -27.360  0.00  0.00    +0.000 C 
BRANCH  12  13
ATOM     13  C   UNL     1     -16.581  53.292 -26.163  0.00  0.00    +0.000 A 
ATOM     14  C   UNL     1     -16.076  52.010 -25.948  0.00  0.00    +0.000 A 
ATOM     15  C   UNL     1     -16.387  54.291 -25.209  0.00  0.00    +0.000 A 
ATOM     16  C   UNL     1     -15.374  51.725 -24.780  0.00  0.00    +0.000 A 
ATOM     17  C   UNL     1     -15.686  54.010 -24.039  0.00  0.00    +0.000 A 
ATOM     18  C   UNL     1     -15.186  52.728 -23.834  0.00  0.00    +0.000 A 
BRANCH  18  19
ATOM     19  O   UNL     1     -14.502  52.477 -22.680  0.00  0.00    +0.000 OA
ATOM     20  H   UNL     1     -14.790  51.613 -22.337  0.00  0.00    +0.000 HD
ENDBRANCH  18  19
ENDBRANCH  12  13
ENDBRANCH   1  11
TORSDOF 5
ENDMDL
MODEL 7
REMARK VINA RESULT:      -5.1      4.071      7.573
REMARK  Name = 445154_Resveratrol.pdbqt.pdb
REMARK  5 active torsions:
REMARK  status: ('A' for Active; 'I' for Inactive)
REMARK    1  A    between atoms: C_1  and  C_11
REMARK    2  A    between atoms: C_4  and  O_7
REMARK    3  A    between atoms: C_5  and  O_9
REMARK    4  A    between atoms: C_12  and  C_13
REMARK    5  A    between atoms: C_18  and  O_19
REMARK                            x       y       z     vdW  Elec       q    Type
REMARK                         _______ _______ _______ _____ _____    ______ ____
ROOT
ATOM      1  C   UNL     1     -33.766  45.222 -12.206  0.00  0.00    +0.000 A 
ATOM      2  C   UNL     1     -34.661  46.050 -12.882  0.00  0.00    +0.000 A 
ATOM      3  C   UNL     1     -32.906  44.388 -12.919  0.00  0.00    +0.000 A 
ATOM      4  C   UNL     1     -32.949  44.389 -14.311  0.00  0.00    +0.000 A 
ATOM      5  C   UNL     1     -34.689  46.036 -14.273  0.00  0.00    +0.000 A 
ATOM      6  C   UNL     1     -33.837  45.210 -14.999  0.00  0.00    +0.000 A 
ENDROOT
BRANCH   4   7
ATOM      7  O   UNL     1     -32.119  43.584 -15.035  0.00  0.00    +0.000 OA
ATOM      8  H   UNL     1     -31.207  43.907 -14.922  0.00  0.00    +0.000 HD
ENDBRANCH   4   7
BRANCH   5   9
ATOM      9  O   UNL     1     -35.574  46.855 -14.913  0.00  0.00    +0.000 OA
ATOM     10  H   UNL     1     -35.651  46.551 -15.835  0.00  0.00    +0.000 HD
ENDBRANCH   5   9
BRANCH   1  11
ATOM     11  C   UNL     1     -33.728  45.226 -10.780  0.00  0.00    +0.000 C 
ATOM     12  C   UNL     1     -33.696  45.229  -9.579  0.00  0.00    +0.000 C 
BRANCH  12  13
ATOM     13  C   UNL     1     -33.658  45.234  -8.154  0.00  0.00    +0.000 A 
ATOM     14  C   UNL     1     -34.731  45.755  -7.432  0.00  0.00    +0.000 A 
ATOM     15  C   UNL     1     -32.548  44.718  -7.486  0.00  0.00    +0.000 A 
ATOM     16  C   UNL     1     -34.696  45.761  -6.040  0.00  0.00    +0.000 A 
ATOM     17  C   UNL     1     -32.509  44.722  -6.094  0.00  0.00    +0.000 A 
ATOM     18  C   UNL     1     -33.584  45.244  -5.382  0.00  0.00    +0.000 A 
BRANCH  18  19
ATOM     19  O   UNL     1     -33.523  45.237  -4.019  0.00  0.00    +0.000 OA
ATOM     20  H   UNL     1     -32.628  44.962  -3.755  0.00  0.00    +0.000 HD
ENDBRANCH  18  19
ENDBRANCH  12  13
ENDBRANCH   1  11
TORSDOF 5
ENDMDL
MODEL 8
REMARK VINA RESULT:      -5.1      4.054      7.450
REMARK  Name = 445154_Resveratrol.pdbqt.pdb
REMARK  5 active torsions:
REMARK  status: ('A' for Active; 'I' for Inactive)
REMARK    1  A    between atoms: C_1  and  C_11
REMARK    2  A    between atoms: C_4  and  O_7
REMARK    3  A    between atoms: C_5  and  O_9
REMARK    4  A    between atoms: C_12  and  C_13
REMARK    5  A    between atoms: C_18  and  O_19
REMARK                            x       y       z     vdW  Elec       q    Type
REMARK                         _______ _______ _______ _____ _____    ______ ____
ROOT
ATOM      1  C   UNL     1     -33.786  45.226 -12.194  0.00  0.00    +0.000 A 
ATOM      2  C   UNL     1     -32.914  44.411 -12.915  0.00  0.00    +0.000 A 
ATOM      3  C   UNL     1     -34.699  46.041 -12.863  0.00  0.00    +0.000 A 
ATOM      4  C   UNL     1     -34.733  46.032 -14.255  0.00  0.00    +0.000 A 
ATOM      5  C   UNL     1     -32.963  44.418 -14.305  0.00  0.00    +0.000 A 
ATOM      6  C   UNL     1     -33.869  45.224 -14.987  0.00  0.00    +0.000 A 
ENDROOT
BRANCH   4   7
ATOM      7  O   UNL     1     -35.617  46.819 -14.935  0.00  0.00    +0.000 OA
ATOM      8  H   UNL     1     -35.135  47.595 -15.272  0.00  0.00    +0.000 HD
ENDBRANCH   4   7
BRANCH   5   9
ATOM      9  O   UNL     1     -32.100  43.612 -14.990  0.00  0.00    +0.000 OA
ATOM     10  H   UNL     1     -31.614  44.165 -15.627  0.00  0.00    +0.000 HD
ENDBRANCH   5   9
BRANCH   1  11
ATOM     11  C   UNL     1     -33.744  45.229 -10.769  0.00  0.00    +0.000 C 
ATOM     12  C   UNL     1     -33.710  45.231  -9.568  0.00  0.00    +0.000 C 
BRANCH  12  13
ATOM     13  C   UNL     1     -33.668  45.232  -8.142  0.00  0.00    +0.000 A 
ATOM     14  C   UNL     1     -34.740  45.753  -7.417  0.00  0.00    +0.000 A 
ATOM     15  C   UNL     1     -32.557  44.714  -7.478  0.00  0.00    +0.000 A 
ATOM     16  C   UNL     1     -34.702  45.755  -6.025  0.00  0.00    +0.000 A 
ATOM     17  C   UNL     1     -32.515  44.715  -6.087  0.00  0.00    +0.000 A 
ATOM     18  C   UNL     1     -33.588  45.236  -5.371  0.00  0.00    +0.000 A 
BRANCH  18  19
ATOM     19  O   UNL     1     -33.524  45.226  -4.008  0.00  0.00    +0.000 OA
ATOM     20  H   UNL     1     -33.410  44.306  -3.714  0.00  0.00    +0.000 HD
ENDBRANCH  18  19
ENDBRANCH  12  13
ENDBRANCH   1  11
TORSDOF 5
ENDMDL
MODEL 9
REMARK VINA RESULT:      -5.0     22.229     24.721
REMARK  Name = 445154_Resveratrol.pdbqt.pdb
REMARK  5 active torsions:
REMARK  status: ('A' for Active; 'I' for Inactive)
REMARK    1  A    between atoms: C_1  and  C_11
REMARK    2  A    between atoms: C_4  and  O_7
REMARK    3  A    between atoms: C_5  and  O_9
REMARK    4  A    between atoms: C_12  and  C_13
REMARK    5  A    between atoms: C_18  and  O_19
REMARK                            x       y       z     vdW  Elec       q    Type
REMARK                         _______ _______ _______ _____ _____    ______ ____
ROOT
ATOM      1  C   UNL     1     -31.677  62.172 -24.800  0.00  0.00    +0.000 A 
ATOM      2  C   UNL     1     -33.048  62.097 -25.046  0.00  0.00    +0.000 A 
ATOM      3  C   UNL     1     -31.209  62.635 -23.571  0.00  0.00    +0.000 A 
ATOM      4  C   UNL     1     -32.122  63.020 -22.592  0.00  0.00    +0.000 A 
ATOM      5  C   UNL     1     -33.942  62.487 -24.055  0.00  0.00    +0.000 A 
ATOM      6  C   UNL     1     -33.491  62.950 -22.823  0.00  0.00    +0.000 A 
ENDROOT
BRANCH   4   7
ATOM      7  O   UNL     1     -31.692  63.475 -21.379  0.00  0.00    +0.000 OA
ATOM      8  H   UNL     1     -30.744  63.684 -21.452  0.00  0.00    +0.000 HD
ENDBRANCH   4   7
BRANCH   5   9
ATOM      9  O   UNL     1     -35.280  62.405 -24.319  0.00  0.00    +0.000 OA
ATOM     10  H   UNL     1     -35.617  63.309 -24.449  0.00  0.00    +0.000 HD
ENDBRANCH   5   9
BRANCH   1  11
ATOM     11  C   UNL     1     -30.750  61.776 -25.808  0.00  0.00    +0.000 C 
ATOM     12  C   UNL     1     -29.968  61.442 -26.657  0.00  0.00    +0.000 C 
BRANCH  12  13
ATOM     13  C   UNL     1     -29.041  61.045 -27.666  0.00  0.00    +0.000 A 
ATOM     14  C   UNL     1     -29.507  60.565 -28.889  0.00  0.00    +0.000 A 
ATOM     15  C   UNL     1     -27.670  61.138 -27.426  0.00  0.00    +0.000 A 
ATOM     16  C   UNL     1     -28.605  60.178 -29.875  0.00  0.00    +0.000 A 
ATOM     17  C   UNL     1     -26.764  60.751 -28.409  0.00  0.00    +0.000 A 
ATOM     18  C   UNL     1     -27.238  60.273 -29.626  0.00  0.00    +0.000 A 
BRANCH  18  19
ATOM     19  O   UNL     1     -26.331  59.900 -30.574  0.00  0.00    +0.000 OA
ATOM     20  H   UNL     1     -26.316  60.583 -31.268  0.00  0.00    +0.000 HD
ENDBRANCH  18  19
ENDBRANCH  12  13
ENDBRANCH   1  11
TORSDOF 5
ENDMDL
