MODEL 1
REMARK VINA RESULT:      -6.8      0.000      0.000
REMARK  Name = 448438_Violaxanthin.pdbqt.pdb
REMARK  16 active torsions:
REMARK  status: ('A' for Active; 'I' for Inactive)
REMARK    1  A    between atoms: C_1  and  C_5
REMARK    2  A    between atoms: C_2  and  C_27
REMARK    3  A    between atoms: C_3  and  C_5
REMARK    4  A    between atoms: C_3  and  C_7
REMARK    5  A    between atoms: C_6  and  C_10
REMARK    6  A    between atoms: C_8  and  C_10
REMARK    7  A    between atoms: C_8  and  C_12
REMARK    8  A    between atoms: C_11  and  C_14
REMARK    9  A    between atoms: C_19  and  O_23
REMARK   10  A    between atoms: C_25  and  C_27
REMARK   11  A    between atoms: C_25  and  C_29
REMARK   12  A    between atoms: C_28  and  C_32
REMARK   13  A    between atoms: C_30  and  C_32
REMARK   14  A    between atoms: C_30  and  C_34
REMARK   15  A    between atoms: C_33  and  C_36
REMARK   16  A    between atoms: C_41  and  O_45
REMARK                            x       y       z     vdW  Elec       q    Type
REMARK                         _______ _______ _______ _____ _____    ______ ____
ROOT
ATOM      1  C   UNL     1     -17.526  42.203  -2.576  0.00  0.00    +0.000 C 
ATOM      2  C   UNL     1     -18.262  41.301  -2.867  0.00  0.00    +0.000 C 
ENDROOT
BRANCH   2   3
ATOM      3  C   UNL     1     -19.202  40.150  -3.242  0.00  0.00    +0.000 C 
BRANCH   3   4
ATOM      4  C   UNL     1     -19.995  39.175  -3.559  0.00  0.00    +0.000 C 
ATOM      5  C   UNL     1     -20.623  38.344  -2.481  0.00  0.00    +0.000 C 
BRANCH   4   7
ATOM      6  C   UNL     1     -20.398  38.582  -6.075  0.00  0.00    +0.000 C 
ATOM      7  C   UNL     1     -20.213  38.854  -4.920  0.00  0.00    +0.000 C 
BRANCH   6   8
ATOM      8  C   UNL     1     -20.632  38.235  -7.551  0.00  0.00    +0.000 C 
BRANCH   8   9
ATOM      9  C   UNL     1     -20.830  37.939  -8.798  0.00  0.00    +0.000 C 
ATOM     10  C   UNL     1     -19.680  37.500  -9.652  0.00  0.00    +0.000 C 
BRANCH   9  12
ATOM     11  C   UNL     1     -23.265  37.891  -9.761  0.00  0.00    +0.000 C 
ATOM     12  C   UNL     1     -22.149  37.911  -9.315  0.00  0.00    +0.000 C 
BRANCH  11  14
ATOM     13  O   UNL     1     -25.567  38.258  -9.297  0.00  0.00    +0.000 OA
ATOM     14  C   UNL     1     -24.607  37.877 -10.322  0.00  0.00    +0.000 C 
ATOM     15  C   UNL     1     -25.425  39.186 -10.371  0.00  0.00    +0.000 C 
ATOM     16  C   UNL     1     -25.033  36.710 -11.276  0.00  0.00    +0.000 C 
ATOM     17  C   UNL     1     -26.569  39.201 -11.222  0.00  0.00    +0.000 C 
ATOM     18  C   UNL     1     -26.310  37.092 -11.897  0.00  0.00    +0.000 C 
ATOM     19  C   UNL     1     -27.156  38.211 -12.028  0.00  0.00    +0.000 C 
ATOM     20  C   UNL     1     -24.859  40.540  -9.935  0.00  0.00    +0.000 C 
ATOM     21  C   UNL     1     -23.923  36.611 -12.350  0.00  0.00    +0.000 C 
ATOM     22  C   UNL     1     -25.141  35.442 -10.401  0.00  0.00    +0.000 C 
BRANCH  19  23
ATOM     23  O   UNL     1     -28.507  38.100 -12.153  0.00  0.00    +0.000 OA
ATOM     24  H   UNL     1     -28.844  38.502 -12.973  0.00  0.00    +0.000 HD
ENDBRANCH  19  23
ENDBRANCH  11  14
ENDBRANCH   9  12
ENDBRANCH   8   9
ENDBRANCH   6   8
ENDBRANCH   4   7
ENDBRANCH   3   4
ENDBRANCH   2   3
BRANCH   1  25
ATOM     25  C   UNL     1     -16.585  43.355  -2.201  0.00  0.00    +0.000 C 
BRANCH  25  26
ATOM     26  C   UNL     1     -15.791  44.329  -1.885  0.00  0.00    +0.000 C 
ATOM     27  C   UNL     1     -14.763  44.803  -2.869  0.00  0.00    +0.000 C 
BRANCH  26  29
ATOM     28  C   UNL     1     -16.010  45.492   0.447  0.00  0.00    +0.000 C 
ATOM     29  C   UNL     1     -15.911  44.959  -0.625  0.00  0.00    +0.000 C 
BRANCH  28  30
ATOM     30  C   UNL     1     -16.132  46.168   1.818  0.00  0.00    +0.000 C 
BRANCH  30  31
ATOM     31  C   UNL     1     -16.234  46.744   2.975  0.00  0.00    +0.000 C 
ATOM     32  C   UNL     1     -16.588  45.933   4.184  0.00  0.00    +0.000 C 
BRANCH  31  34
ATOM     33  C   UNL     1     -15.736  49.305   3.216  0.00  0.00    +0.000 C 
ATOM     34  C   UNL     1     -15.964  48.129   3.102  0.00  0.00    +0.000 C 
BRANCH  33  36
ATOM     35  O   UNL     1     -14.517  50.935   4.452  0.00  0.00    +0.000 OA
ATOM     36  C   UNL     1     -15.456  50.726   3.359  0.00  0.00    +0.000 C 
ATOM     37  C   UNL     1     -14.018  51.246   3.153  0.00  0.00    +0.000 C 
ATOM     38  C   UNL     1     -16.636  51.757   3.250  0.00  0.00    +0.000 C 
ATOM     39  C   UNL     1     -13.854  52.650   2.959  0.00  0.00    +0.000 C 
ATOM     40  C   UNL     1     -16.034  53.087   3.128  0.00  0.00    +0.000 C 
ATOM     41  C   UNL     1     -14.781  53.705   2.949  0.00  0.00    +0.000 C 
ATOM     42  C   UNL     1     -12.848  50.355   2.725  0.00  0.00    +0.000 C 
ATOM     43  C   UNL     1     -17.487  51.572   4.527  0.00  0.00    +0.000 C 
ATOM     44  C   UNL     1     -17.406  51.375   1.959  0.00  0.00    +0.000 C 
BRANCH  41  45
ATOM     45  O   UNL     1     -14.640  54.804   2.157  0.00  0.00    +0.000 OA
ATOM     46  H   UNL     1     -15.297  55.495   2.359  0.00  0.00    +0.000 HD
ENDBRANCH  41  45
ENDBRANCH  33  36
ENDBRANCH  31  34
ENDBRANCH  30  31
ENDBRANCH  28  30
ENDBRANCH  26  29
ENDBRANCH  25  26
ENDBRANCH   1  25
TORSDOF 16
ENDMDL
MODEL 2
REMARK VINA RESULT:      -6.8     18.274     25.453
REMARK  Name = 448438_Violaxanthin.pdbqt.pdb
REMARK  16 active torsions:
REMARK  status: ('A' for Active; 'I' for Inactive)
REMARK    1  A    between atoms: C_1  and  C_5
REMARK    2  A    between atoms: C_2  and  C_27
REMARK    3  A    between atoms: C_3  and  C_5
REMARK    4  A    between atoms: C_3  and  C_7
REMARK    5  A    between atoms: C_6  and  C_10
REMARK    6  A    between atoms: C_8  and  C_10
REMARK    7  A    between atoms: C_8  and  C_12
REMARK    8  A    between atoms: C_11  and  C_14
REMARK    9  A    between atoms: C_19  and  O_23
REMARK   10  A    between atoms: C_25  and  C_27
REMARK   11  A    between atoms: C_25  and  C_29
REMARK   12  A    between atoms: C_28  and  C_32
REMARK   13  A    between atoms: C_30  and  C_32
REMARK   14  A    between atoms: C_30  and  C_34
REMARK   15  A    between atoms: C_33  and  C_36
REMARK   16  A    between atoms: C_41  and  O_45
REMARK                            x       y       z     vdW  Elec       q    Type
REMARK                         _______ _______ _______ _____ _____    ______ ____
ROOT
ATOM      1  C   UNL     1     -36.168  49.520 -17.753  0.00  0.00    +0.000 C 
ATOM      2  C   UNL     1     -35.968  49.687 -18.924  0.00  0.00    +0.000 C 
ENDROOT
BRANCH   2   3
ATOM      3  C   UNL     1     -35.710  49.898 -20.420  0.00  0.00    +0.000 C 
BRANCH   3   4
ATOM      4  C   UNL     1     -35.494  50.076 -21.686  0.00  0.00    +0.000 C 
ATOM      5  C   UNL     1     -34.434  49.277 -22.382  0.00  0.00    +0.000 C 
BRANCH   4   7
ATOM      6  C   UNL     1     -36.818  51.917 -22.991  0.00  0.00    +0.000 C 
ATOM      7  C   UNL     1     -36.210  51.071 -22.392  0.00  0.00    +0.000 C 
BRANCH   6   8
ATOM      8  C   UNL     1     -37.595  52.996 -23.754  0.00  0.00    +0.000 C 
BRANCH   8   9
ATOM      9  C   UNL     1     -38.253  53.907 -24.403  0.00  0.00    +0.000 C 
ATOM     10  C   UNL     1     -38.622  53.683 -25.837  0.00  0.00    +0.000 C 
BRANCH   9  12
ATOM     11  C   UNL     1     -39.132  56.024 -23.135  0.00  0.00    +0.000 C 
ATOM     12  C   UNL     1     -38.726  55.055 -23.720  0.00  0.00    +0.000 C 
BRANCH  11  14
ATOM     13  O   UNL     1     -40.741  56.777 -21.557  0.00  0.00    +0.000 OA
ATOM     14  C   UNL     1     -39.636  57.182 -22.413  0.00  0.00    +0.000 C 
ATOM     15  C   UNL     1     -39.566  57.206 -20.870  0.00  0.00    +0.000 C 
ATOM     16  C   UNL     1     -39.797  58.548 -23.161  0.00  0.00    +0.000 C 
ATOM     17  C   UNL     1     -39.746  58.470 -20.235  0.00  0.00    +0.000 C 
ATOM     18  C   UNL     1     -40.051  59.579 -22.145  0.00  0.00    +0.000 C 
ATOM     19  C   UNL     1     -40.028  59.748 -20.746  0.00  0.00    +0.000 C 
ATOM     20  C   UNL     1     -38.904  56.097 -20.048  0.00  0.00    +0.000 C 
ATOM     21  C   UNL     1     -38.444  58.811 -23.864  0.00  0.00    +0.000 C 
ATOM     22  C   UNL     1     -40.968  58.373 -24.152  0.00  0.00    +0.000 C 
BRANCH  19  23
ATOM     23  O   UNL     1     -40.859  60.609 -20.096  0.00  0.00    +0.000 OA
ATOM     24  H   UNL     1     -41.509  60.152 -19.533  0.00  0.00    +0.000 HD
ENDBRANCH  19  23
ENDBRANCH  11  14
ENDBRANCH   9  12
ENDBRANCH   8   9
ENDBRANCH   6   8
ENDBRANCH   4   7
ENDBRANCH   3   4
ENDBRANCH   2   3
BRANCH   1  25
ATOM     25  C   UNL     1     -36.425  49.308 -16.256  0.00  0.00    +0.000 C 
BRANCH  25  26
ATOM     26  C   UNL     1     -36.641  49.128 -14.991  0.00  0.00    +0.000 C 
ATOM     27  C   UNL     1     -37.633  49.995 -14.274  0.00  0.00    +0.000 C 
BRANCH  26  29
ATOM     28  C   UNL     1     -35.385  47.230 -13.703  0.00  0.00    +0.000 C 
ATOM     29  C   UNL     1     -35.964  48.101 -14.295  0.00  0.00    +0.000 C 
BRANCH  28  30
ATOM     30  C   UNL     1     -34.640  46.123 -12.946  0.00  0.00    +0.000 C 
BRANCH  30  31
ATOM     31  C   UNL     1     -34.014  45.184 -12.309  0.00  0.00    +0.000 C 
ATOM     32  C   UNL     1     -33.104  44.255 -13.053  0.00  0.00    +0.000 C 
BRANCH  31  34
ATOM     33  C   UNL     1     -34.272  44.964  -9.711  0.00  0.00    +0.000 C 
ATOM     34  C   UNL     1     -34.154  45.068 -10.904  0.00  0.00    +0.000 C 
BRANCH  33  36
ATOM     35  O   UNL     1     -35.416  43.825  -7.960  0.00  0.00    +0.000 OA
ATOM     36  C   UNL     1     -34.411  44.833  -8.268  0.00  0.00    +0.000 C 
ATOM     37  C   UNL     1     -34.081  43.487  -7.589  0.00  0.00    +0.000 C 
ATOM     38  C   UNL     1     -34.427  46.125  -7.376  0.00  0.00    +0.000 C 
ATOM     39  C   UNL     1     -33.894  43.499  -6.175  0.00  0.00    +0.000 C 
ATOM     40  C   UNL     1     -34.271  45.689  -5.986  0.00  0.00    +0.000 C 
ATOM     41  C   UNL     1     -33.986  44.535  -5.230  0.00  0.00    +0.000 C 
ATOM     42  C   UNL     1     -33.534  42.270  -8.340  0.00  0.00    +0.000 C 
ATOM     43  C   UNL     1     -35.774  46.827  -7.662  0.00  0.00    +0.000 C 
ATOM     44  C   UNL     1     -33.207  46.964  -7.836  0.00  0.00    +0.000 C 
BRANCH  41  45
ATOM     45  O   UNL     1     -33.202  44.592  -4.119  0.00  0.00    +0.000 OA
ATOM     46  H   UNL     1     -32.312  44.941  -4.309  0.00  0.00    +0.000 HD
ENDBRANCH  41  45
ENDBRANCH  33  36
ENDBRANCH  31  34
ENDBRANCH  30  31
ENDBRANCH  28  30
ENDBRANCH  26  29
ENDBRANCH  25  26
ENDBRANCH   1  25
TORSDOF 16
ENDMDL
MODEL 3
REMARK VINA RESULT:      -6.7     25.817     30.074
REMARK  Name = 448438_Violaxanthin.pdbqt.pdb
REMARK  16 active torsions:
REMARK  status: ('A' for Active; 'I' for Inactive)
REMARK    1  A    between atoms: C_1  and  C_5
REMARK    2  A    between atoms: C_2  and  C_27
REMARK    3  A    between atoms: C_3  and  C_5
REMARK    4  A    between atoms: C_3  and  C_7
REMARK    5  A    between atoms: C_6  and  C_10
REMARK    6  A    between atoms: C_8  and  C_10
REMARK    7  A    between atoms: C_8  and  C_12
REMARK    8  A    between atoms: C_11  and  C_14
REMARK    9  A    between atoms: C_19  and  O_23
REMARK   10  A    between atoms: C_25  and  C_27
REMARK   11  A    between atoms: C_25  and  C_29
REMARK   12  A    between atoms: C_28  and  C_32
REMARK   13  A    between atoms: C_30  and  C_32
REMARK   14  A    between atoms: C_30  and  C_34
REMARK   15  A    between atoms: C_33  and  C_36
REMARK   16  A    between atoms: C_41  and  O_45
REMARK                            x       y       z     vdW  Elec       q    Type
REMARK                         _______ _______ _______ _____ _____    ______ ____
ROOT
ATOM      1  C   UNL     1     -18.933  61.773 -22.520  0.00  0.00    +0.000 C 
ATOM      2  C   UNL     1     -19.765  62.590 -22.800  0.00  0.00    +0.000 C 
ENDROOT
BRANCH   2   3
ATOM      3  C   UNL     1     -20.827  63.635 -23.161  0.00  0.00    +0.000 C 
BRANCH   3   4
ATOM      4  C   UNL     1     -21.724  64.519 -23.468  0.00  0.00    +0.000 C 
ATOM      5  C   UNL     1     -21.303  65.856 -23.999  0.00  0.00    +0.000 C 
BRANCH   4   7
ATOM      6  C   UNL     1     -24.256  64.015 -23.044  0.00  0.00    +0.000 C 
ATOM      7  C   UNL     1     -23.093  64.246 -23.239  0.00  0.00    +0.000 C 
BRANCH   6   8
ATOM      8  C   UNL     1     -25.740  63.721 -22.794  0.00  0.00    +0.000 C 
BRANCH   8   9
ATOM      9  C   UNL     1     -26.996  63.474 -22.585  0.00  0.00    +0.000 C 
ATOM     10  C   UNL     1     -27.693  64.085 -21.409  0.00  0.00    +0.000 C 
BRANCH   9  12
ATOM     11  C   UNL     1     -28.363  62.101 -24.349  0.00  0.00    +0.000 C 
ATOM     12  C   UNL     1     -27.735  62.727 -23.537  0.00  0.00    +0.000 C 
BRANCH  11  14
ATOM     13  O   UNL     1     -29.748  60.205 -24.717  0.00  0.00    +0.000 OA
ATOM     14  C   UNL     1     -29.130  61.365 -25.342  0.00  0.00    +0.000 C 
ATOM     15  C   UNL     1     -30.656  61.211 -25.165  0.00  0.00    +0.000 C 
ATOM     16  C   UNL     1     -28.532  61.149 -26.774  0.00  0.00    +0.000 C 
ATOM     17  C   UNL     1     -31.400  60.794 -26.308  0.00  0.00    +0.000 C 
ATOM     18  C   UNL     1     -29.611  60.632 -27.628  0.00  0.00    +0.000 C 
ATOM     19  C   UNL     1     -31.006  60.436 -27.608  0.00  0.00    +0.000 C 
ATOM     20  C   UNL     1     -31.435  61.878 -24.028  0.00  0.00    +0.000 C 
ATOM     21  C   UNL     1     -28.085  62.547 -27.263  0.00  0.00    +0.000 C 
ATOM     22  C   UNL     1     -27.357  60.160 -26.617  0.00  0.00    +0.000 C 
BRANCH  19  23
ATOM     23  O   UNL     1     -31.616  59.425 -28.286  0.00  0.00    +0.000 OA
ATOM     24  H   UNL     1     -30.987  58.752 -28.604  0.00  0.00    +0.000 HD
ENDBRANCH  19  23
ENDBRANCH  11  14
ENDBRANCH   9  12
ENDBRANCH   8   9
ENDBRANCH   6   8
ENDBRANCH   4   7
ENDBRANCH   3   4
ENDBRANCH   2   3
BRANCH   1  25
ATOM     25  C   UNL     1     -17.870  60.728 -22.159  0.00  0.00    +0.000 C 
BRANCH  25  26
ATOM     26  C   UNL     1     -16.971  59.845 -21.855  0.00  0.00    +0.000 C 
ATOM     27  C   UNL     1     -16.107  60.046 -20.647  0.00  0.00    +0.000 C 
BRANCH  26  29
ATOM     28  C   UNL     1     -16.705  57.694 -23.319  0.00  0.00    +0.000 C 
ATOM     29  C   UNL     1     -16.825  58.682 -22.646  0.00  0.00    +0.000 C 
BRANCH  28  30
ATOM     30  C   UNL     1     -16.559  56.431 -24.177  0.00  0.00    +0.000 C 
BRANCH  30  31
ATOM     31  C   UNL     1     -16.440  55.363 -24.902  0.00  0.00    +0.000 C 
ATOM     32  C   UNL     1     -15.894  54.107 -24.295  0.00  0.00    +0.000 C 
BRANCH  31  34
ATOM     33  C   UNL     1     -17.242  55.381 -27.396  0.00  0.00    +0.000 C 
ATOM     34  C   UNL     1     -16.871  55.372 -26.251  0.00  0.00    +0.000 C 
BRANCH  33  36
ATOM     35  O   UNL     1     -16.917  54.447 -29.562  0.00  0.00    +0.000 OA
ATOM     36  C   UNL     1     -17.695  55.397 -28.779  0.00  0.00    +0.000 C 
ATOM     37  C   UNL     1     -18.295  54.118 -29.399  0.00  0.00    +0.000 C 
ATOM     38  C   UNL     1     -18.013  56.771 -29.469  0.00  0.00    +0.000 C 
ATOM     39  C   UNL     1     -19.033  54.266 -30.612  0.00  0.00    +0.000 C 
ATOM     40  C   UNL     1     -18.721  56.472 -30.715  0.00  0.00    +0.000 C 
ATOM     41  C   UNL     1     -19.307  55.392 -31.405  0.00  0.00    +0.000 C 
ATOM     42  C   UNL     1     -18.519  52.821 -28.618  0.00  0.00    +0.000 C 
ATOM     43  C   UNL     1     -16.651  57.471 -29.678  0.00  0.00    +0.000 C 
ATOM     44  C   UNL     1     -18.931  57.533 -28.478  0.00  0.00    +0.000 C 
BRANCH  41  45
ATOM     45  O   UNL     1     -20.470  55.541 -32.098  0.00  0.00    +0.000 OA
ATOM     46  H   UNL     1     -20.966  54.706 -32.176  0.00  0.00    +0.000 HD
ENDBRANCH  41  45
ENDBRANCH  33  36
ENDBRANCH  31  34
ENDBRANCH  30  31
ENDBRANCH  28  30
ENDBRANCH  26  29
ENDBRANCH  25  26
ENDBRANCH   1  25
TORSDOF 16
ENDMDL
MODEL 4
REMARK VINA RESULT:      -6.6     15.686     22.435
REMARK  Name = 448438_Violaxanthin.pdbqt.pdb
REMARK  16 active torsions:
REMARK  status: ('A' for Active; 'I' for Inactive)
REMARK    1  A    between atoms: C_1  and  C_5
REMARK    2  A    between atoms: C_2  and  C_27
REMARK    3  A    between atoms: C_3  and  C_5
REMARK    4  A    between atoms: C_3  and  C_7
REMARK    5  A    between atoms: C_6  and  C_10
REMARK    6  A    between atoms: C_8  and  C_10
REMARK    7  A    between atoms: C_8  and  C_12
REMARK    8  A    between atoms: C_11  and  C_14
REMARK    9  A    between atoms: C_19  and  O_23
REMARK   10  A    between atoms: C_25  and  C_27
REMARK   11  A    between atoms: C_25  and  C_29
REMARK   12  A    between atoms: C_28  and  C_32
REMARK   13  A    between atoms: C_30  and  C_32
REMARK   14  A    between atoms: C_30  and  C_34
REMARK   15  A    between atoms: C_33  and  C_36
REMARK   16  A    between atoms: C_41  and  O_45
REMARK                            x       y       z     vdW  Elec       q    Type
REMARK                         _______ _______ _______ _____ _____    ______ ____
ROOT
ATOM      1  C   UNL     1     -31.254  44.492 -16.409  0.00  0.00    +0.000 C 
ATOM      2  C   UNL     1     -32.130  45.244 -16.083  0.00  0.00    +0.000 C 
ENDROOT
BRANCH   2   3
ATOM      3  C   UNL     1     -33.249  46.204 -15.664  0.00  0.00    +0.000 C 
BRANCH   3   4
ATOM      4  C   UNL     1     -34.197  47.014 -15.311  0.00  0.00    +0.000 C 
ATOM      5  C   UNL     1     -34.550  48.176 -16.189  0.00  0.00    +0.000 C 
BRANCH   4   7
ATOM      6  C   UNL     1     -35.403  46.694 -13.011  0.00  0.00    +0.000 C 
ATOM      7  C   UNL     1     -34.849  46.841 -14.067  0.00  0.00    +0.000 C 
BRANCH   6   8
ATOM      8  C   UNL     1     -36.112  46.507 -11.664  0.00  0.00    +0.000 C 
BRANCH   8   9
ATOM      9  C   UNL     1     -36.710  46.346 -10.525  0.00  0.00    +0.000 C 
ATOM     10  C   UNL     1     -38.206  46.332 -10.463  0.00  0.00    +0.000 C 
BRANCH   9  12
ATOM     11  C   UNL     1     -35.311  45.813  -8.375  0.00  0.00    +0.000 C 
ATOM     12  C   UNL     1     -35.949  46.060  -9.364  0.00  0.00    +0.000 C 
BRANCH  11  14
ATOM     13  O   UNL     1     -35.110  46.253  -6.048  0.00  0.00    +0.000 OA
ATOM     14  C   UNL     1     -34.559  45.505  -7.168  0.00  0.00    +0.000 C 
ATOM     15  C   UNL     1     -35.276  44.838  -5.975  0.00  0.00    +0.000 C 
ATOM     16  C   UNL     1     -32.998  45.402  -7.237  0.00  0.00    +0.000 C 
ATOM     17  C   UNL     1     -34.449  44.251  -4.971  0.00  0.00    +0.000 C 
ATOM     18  C   UNL     1     -32.538  44.820  -5.968  0.00  0.00    +0.000 C 
ATOM     19  C   UNL     1     -33.054  44.192  -4.818  0.00  0.00    +0.000 C 
ATOM     20  C   UNL     1     -36.740  44.393  -6.023  0.00  0.00    +0.000 C 
ATOM     21  C   UNL     1     -32.686  44.443  -8.411  0.00  0.00    +0.000 C 
ATOM     22  C   UNL     1     -32.472  46.834  -7.473  0.00  0.00    +0.000 C 
BRANCH  19  23
ATOM     23  O   UNL     1     -32.465  44.300  -3.595  0.00  0.00    +0.000 OA
ATOM     24  H   UNL     1     -31.863  45.063  -3.533  0.00  0.00    +0.000 HD
ENDBRANCH  19  23
ENDBRANCH  11  14
ENDBRANCH   9  12
ENDBRANCH   8   9
ENDBRANCH   6   8
ENDBRANCH   4   7
ENDBRANCH   3   4
ENDBRANCH   2   3
BRANCH   1  25
ATOM     25  C   UNL     1     -30.134  43.530 -16.827  0.00  0.00    +0.000 C 
BRANCH  25  26
ATOM     26  C   UNL     1     -29.188  42.718 -17.180  0.00  0.00    +0.000 C 
ATOM     27  C   UNL     1     -28.467  41.916 -16.140  0.00  0.00    +0.000 C 
BRANCH  26  29
ATOM     28  C   UNL     1     -28.570  42.444 -19.706  0.00  0.00    +0.000 C 
ATOM     29  C   UNL     1     -28.856  42.570 -18.547  0.00  0.00    +0.000 C 
BRANCH  28  30
ATOM     30  C   UNL     1     -28.198  42.282 -21.186  0.00  0.00    +0.000 C 
BRANCH  30  31
ATOM     31  C   UNL     1     -27.886  42.150 -22.437  0.00  0.00    +0.000 C 
ATOM     32  C   UNL     1     -28.966  41.961 -23.459  0.00  0.00    +0.000 C 
BRANCH  31  34
ATOM     33  C   UNL     1     -25.379  42.295 -23.183  0.00  0.00    +0.000 C 
ATOM     34  C   UNL     1     -26.531  42.231 -22.842  0.00  0.00    +0.000 C 
BRANCH  33  36
ATOM     35  O   UNL     1     -23.374  43.573 -23.063  0.00  0.00    +0.000 OA
ATOM     36  C   UNL     1     -23.986  42.365 -23.599  0.00  0.00    +0.000 C 
ATOM     37  C   UNL     1     -22.870  42.349 -22.533  0.00  0.00    +0.000 C 
ATOM     38  C   UNL     1     -23.603  41.987 -25.074  0.00  0.00    +0.000 C 
ATOM     39  C   UNL     1     -21.545  42.070 -22.982  0.00  0.00    +0.000 C 
ATOM     40  C   UNL     1     -22.145  41.856 -25.118  0.00  0.00    +0.000 C 
ATOM     41  C   UNL     1     -21.026  41.828 -24.264  0.00  0.00    +0.000 C 
ATOM     42  C   UNL     1     -23.133  42.185 -21.034  0.00  0.00    +0.000 C 
ATOM     43  C   UNL     1     -24.154  43.124 -25.965  0.00  0.00    +0.000 C 
ATOM     44  C   UNL     1     -24.292  40.626 -25.349  0.00  0.00    +0.000 C 
BRANCH  41  45
ATOM     45  O   UNL     1     -19.982  40.983 -24.490  0.00  0.00    +0.000 OA
ATOM     46  H   UNL     1     -19.143  41.458 -24.632  0.00  0.00    +0.000 HD
ENDBRANCH  41  45
ENDBRANCH  33  36
ENDBRANCH  31  34
ENDBRANCH  30  31
ENDBRANCH  28  30
ENDBRANCH  26  29
ENDBRANCH  25  26
ENDBRANCH   1  25
TORSDOF 16
ENDMDL
MODEL 5
REMARK VINA RESULT:      -6.5     25.305     29.414
REMARK  Name = 448438_Violaxanthin.pdbqt.pdb
REMARK  16 active torsions:
REMARK  status: ('A' for Active; 'I' for Inactive)
REMARK    1  A    between atoms: C_1  and  C_5
REMARK    2  A    between atoms: C_2  and  C_27
REMARK    3  A    between atoms: C_3  and  C_5
REMARK    4  A    between atoms: C_3  and  C_7
REMARK    5  A    between atoms: C_6  and  C_10
REMARK    6  A    between atoms: C_8  and  C_10
REMARK    7  A    between atoms: C_8  and  C_12
REMARK    8  A    between atoms: C_11  and  C_14
REMARK    9  A    between atoms: C_19  and  O_23
REMARK   10  A    between atoms: C_25  and  C_27
REMARK   11  A    between atoms: C_25  and  C_29
REMARK   12  A    between atoms: C_28  and  C_32
REMARK   13  A    between atoms: C_30  and  C_32
REMARK   14  A    between atoms: C_30  and  C_34
REMARK   15  A    between atoms: C_33  and  C_36
REMARK   16  A    between atoms: C_41  and  O_45
REMARK                            x       y       z     vdW  Elec       q    Type
REMARK                         _______ _______ _______ _____ _____    ______ ____
ROOT
ATOM      1  C   UNL     1     -18.494  61.434 -22.310  0.00  0.00    +0.000 C 
ATOM      2  C   UNL     1     -19.271  62.204 -22.802  0.00  0.00    +0.000 C 
ENDROOT
BRANCH   2   3
ATOM      3  C   UNL     1     -20.265  63.189 -23.429  0.00  0.00    +0.000 C 
BRANCH   3   4
ATOM      4  C   UNL     1     -21.102  64.023 -23.960  0.00  0.00    +0.000 C 
ATOM      5  C   UNL     1     -20.594  65.163 -24.790  0.00  0.00    +0.000 C 
BRANCH   4   7
ATOM      6  C   UNL     1     -23.663  63.792 -23.477  0.00  0.00    +0.000 C 
ATOM      7  C   UNL     1     -22.487  63.898 -23.699  0.00  0.00    +0.000 C 
BRANCH   6   8
ATOM      8  C   UNL     1     -25.164  63.658 -23.193  0.00  0.00    +0.000 C 
BRANCH   8   9
ATOM      9  C   UNL     1     -26.434  63.548 -22.954  0.00  0.00    +0.000 C 
ATOM     10  C   UNL     1     -27.048  64.307 -21.817  0.00  0.00    +0.000 C 
BRANCH   9  12
ATOM     11  C   UNL     1     -27.963  62.187 -24.588  0.00  0.00    +0.000 C 
ATOM     12  C   UNL     1     -27.257  62.811 -23.841  0.00  0.00    +0.000 C 
BRANCH  11  14
ATOM     13  O   UNL     1     -29.367  60.278 -24.772  0.00  0.00    +0.000 OA
ATOM     14  C   UNL     1     -28.835  61.435 -25.477  0.00  0.00    +0.000 C 
ATOM     15  C   UNL     1     -30.329  61.273 -25.120  0.00  0.00    +0.000 C 
ATOM     16  C   UNL     1     -28.408  61.207 -26.966  0.00  0.00    +0.000 C 
ATOM     17  C   UNL     1     -31.199  60.838 -26.163  0.00  0.00    +0.000 C 
ATOM     18  C   UNL     1     -29.575  60.673 -27.682  0.00  0.00    +0.000 C 
ATOM     19  C   UNL     1     -30.957  60.469 -27.497  0.00  0.00    +0.000 C 
ATOM     20  C   UNL     1     -30.974  61.948 -23.906  0.00  0.00    +0.000 C 
ATOM     21  C   UNL     1     -28.031  62.603 -27.519  0.00  0.00    +0.000 C 
ATOM     22  C   UNL     1     -27.215  60.228 -26.938  0.00  0.00    +0.000 C 
BRANCH  19  23
ATOM     23  O   UNL     1     -31.634  59.446 -28.088  0.00  0.00    +0.000 OA
ATOM     24  H   UNL     1     -31.049  58.721 -28.372  0.00  0.00    +0.000 HD
ENDBRANCH  19  23
ENDBRANCH  11  14
ENDBRANCH   9  12
ENDBRANCH   8   9
ENDBRANCH   6   8
ENDBRANCH   4   7
ENDBRANCH   3   4
ENDBRANCH   2   3
BRANCH   1  25
ATOM     25  C   UNL     1     -17.501  60.448 -21.682  0.00  0.00    +0.000 C 
BRANCH  25  26
ATOM     26  C   UNL     1     -16.661  59.616 -21.152  0.00  0.00    +0.000 C 
ATOM     27  C   UNL     1     -15.928  59.992 -19.899  0.00  0.00    +0.000 C 
BRANCH  26  29
ATOM     28  C   UNL     1     -16.288  57.267 -22.240  0.00  0.00    +0.000 C 
ATOM     29  C   UNL     1     -16.458  58.346 -21.739  0.00  0.00    +0.000 C 
BRANCH  28  30
ATOM     30  C   UNL     1     -16.077  55.890 -22.883  0.00  0.00    +0.000 C 
BRANCH  30  31
ATOM     31  C   UNL     1     -15.901  54.729 -23.430  0.00  0.00    +0.000 C 
ATOM     32  C   UNL     1     -15.316  53.607 -22.629  0.00  0.00    +0.000 C 
BRANCH  31  34
ATOM     33  C   UNL     1     -16.657  54.326 -25.906  0.00  0.00    +0.000 C 
ATOM     34  C   UNL     1     -16.307  54.509 -24.770  0.00  0.00    +0.000 C 
BRANCH  33  36
ATOM     35  O   UNL     1     -18.537  54.172 -27.360  0.00  0.00    +0.000 OA
ATOM     36  C   UNL     1     -17.084  54.109 -27.280  0.00  0.00    +0.000 C 
ATOM     37  C   UNL     1     -17.844  55.225 -28.028  0.00  0.00    +0.000 C 
ATOM     38  C   UNL     1     -16.390  52.989 -28.134  0.00  0.00    +0.000 C 
ATOM     39  C   UNL     1     -17.933  55.113 -29.448  0.00  0.00    +0.000 C 
ATOM     40  C   UNL     1     -16.794  53.198 -29.527  0.00  0.00    +0.000 C 
ATOM     41  C   UNL     1     -17.472  54.128 -30.337  0.00  0.00    +0.000 C 
ATOM     42  C   UNL     1     -18.122  56.607 -27.432  0.00  0.00    +0.000 C 
ATOM     43  C   UNL     1     -16.866  51.642 -27.543  0.00  0.00    +0.000 C 
ATOM     44  C   UNL     1     -14.866  53.213 -27.957  0.00  0.00    +0.000 C 
BRANCH  41  45
ATOM     45  O   UNL     1     -17.044  54.415 -31.598  0.00  0.00    +0.000 OA
ATOM     46  H   UNL     1     -17.745  54.811 -32.148  0.00  0.00    +0.000 HD
ENDBRANCH  41  45
ENDBRANCH  33  36
ENDBRANCH  31  34
ENDBRANCH  30  31
ENDBRANCH  28  30
ENDBRANCH  26  29
ENDBRANCH  25  26
ENDBRANCH   1  25
TORSDOF 16
ENDMDL
MODEL 6
REMARK VINA RESULT:      -6.4      8.418     10.688
REMARK  Name = 448438_Violaxanthin.pdbqt.pdb
REMARK  16 active torsions:
REMARK  status: ('A' for Active; 'I' for Inactive)
REMARK    1  A    between atoms: C_1  and  C_5
REMARK    2  A    between atoms: C_2  and  C_27
REMARK    3  A    between atoms: C_3  and  C_5
REMARK    4  A    between atoms: C_3  and  C_7
REMARK    5  A    between atoms: C_6  and  C_10
REMARK    6  A    between atoms: C_8  and  C_10
REMARK    7  A    between atoms: C_8  and  C_12
REMARK    8  A    between atoms: C_11  and  C_14
REMARK    9  A    between atoms: C_19  and  O_23
REMARK   10  A    between atoms: C_25  and  C_27
REMARK   11  A    between atoms: C_25  and  C_29
REMARK   12  A    between atoms: C_28  and  C_32
REMARK   13  A    between atoms: C_30  and  C_32
REMARK   14  A    between atoms: C_30  and  C_34
REMARK   15  A    between atoms: C_33  and  C_36
REMARK   16  A    between atoms: C_41  and  O_45
REMARK                            x       y       z     vdW  Elec       q    Type
REMARK                         _______ _______ _______ _____ _____    ______ ____
ROOT
ATOM      1  C   UNL     1     -18.558  44.625   8.101  0.00  0.00    +0.000 C 
ATOM      2  C   UNL     1     -19.500  43.929   8.362  0.00  0.00    +0.000 C 
ENDROOT
BRANCH   2   3
ATOM      3  C   UNL     1     -20.704  43.041   8.697  0.00  0.00    +0.000 C 
BRANCH   3   4
ATOM      4  C   UNL     1     -21.723  42.291   8.978  0.00  0.00    +0.000 C 
ATOM      5  C   UNL     1     -21.848  41.684  10.343  0.00  0.00    +0.000 C 
BRANCH   4   7
ATOM      6  C   UNL     1     -23.490  41.738   7.130  0.00  0.00    +0.000 C 
ATOM      7  C   UNL     1     -22.679  41.992   7.979  0.00  0.00    +0.000 C 
BRANCH   6   8
ATOM      8  C   UNL     1     -24.525  41.416   6.045  0.00  0.00    +0.000 C 
BRANCH   8   9
ATOM      9  C   UNL     1     -25.399  41.146   5.126  0.00  0.00    +0.000 C 
ATOM     10  C   UNL     1     -26.440  42.160   4.764  0.00  0.00    +0.000 C 
BRANCH   9  12
ATOM     11  C   UNL     1     -25.204  38.929   3.744  0.00  0.00    +0.000 C 
ATOM     12  C   UNL     1     -25.292  39.944   4.382  0.00  0.00    +0.000 C 
BRANCH  11  14
ATOM     13  O   UNL     1     -25.229  38.039   1.540  0.00  0.00    +0.000 OA
ATOM     14  C   UNL     1     -25.109  37.712   2.953  0.00  0.00    +0.000 C 
ATOM     15  C   UNL     1     -23.952  37.548   1.944  0.00  0.00    +0.000 C 
ATOM     16  C   UNL     1     -25.852  36.420   3.433  0.00  0.00    +0.000 C 
ATOM     17  C   UNL     1     -23.703  36.231   1.455  0.00  0.00    +0.000 C 
ATOM     18  C   UNL     1     -25.364  35.301   2.614  0.00  0.00    +0.000 C 
ATOM     19  C   UNL     1     -24.352  35.006   1.680  0.00  0.00    +0.000 C 
ATOM     20  C   UNL     1     -22.827  38.576   1.791  0.00  0.00    +0.000 C 
ATOM     21  C   UNL     1     -25.442  36.218   4.913  0.00  0.00    +0.000 C 
ATOM     22  C   UNL     1     -27.362  36.687   3.257  0.00  0.00    +0.000 C 
BRANCH  19  23
ATOM     23  O   UNL     1     -24.515  34.091   0.684  0.00  0.00    +0.000 OA
ATOM     24  H   UNL     1     -25.447  33.839   0.554  0.00  0.00    +0.000 HD
ENDBRANCH  19  23
ENDBRANCH  11  14
ENDBRANCH   9  12
ENDBRANCH   8   9
ENDBRANCH   6   8
ENDBRANCH   4   7
ENDBRANCH   3   4
ENDBRANCH   2   3
BRANCH   1  25
ATOM     25  C   UNL     1     -17.354  45.513   7.767  0.00  0.00    +0.000 C 
BRANCH  25  26
ATOM     26  C   UNL     1     -16.336  46.264   7.485  0.00  0.00    +0.000 C 
ATOM     27  C   UNL     1     -14.956  45.678   7.476  0.00  0.00    +0.000 C 
BRANCH  26  29
ATOM     28  C   UNL     1     -16.698  48.784   6.888  0.00  0.00    +0.000 C 
ATOM     29  C   UNL     1     -16.530  47.627   7.162  0.00  0.00    +0.000 C 
BRANCH  28  30
ATOM     30  C   UNL     1     -16.920  50.262   6.540  0.00  0.00    +0.000 C 
BRANCH  30  31
ATOM     31  C   UNL     1     -17.110  51.511   6.250  0.00  0.00    +0.000 C 
ATOM     32  C   UNL     1     -18.024  52.343   7.097  0.00  0.00    +0.000 C 
BRANCH  31  34
ATOM     33  C   UNL     1     -15.831  52.601   4.240  0.00  0.00    +0.000 C 
ATOM     34  C   UNL     1     -16.418  52.097   5.162  0.00  0.00    +0.000 C 
BRANCH  33  36
ATOM     35  O   UNL     1     -13.922  52.443   2.826  0.00  0.00    +0.000 OA
ATOM     36  C   UNL     1     -15.119  53.215   3.129  0.00  0.00    +0.000 C 
ATOM     37  C   UNL     1     -14.930  52.427   1.816  0.00  0.00    +0.000 C 
ATOM     38  C   UNL     1     -14.969  54.778   3.081  0.00  0.00    +0.000 C 
ATOM     39  C   UNL     1     -14.547  53.171   0.660  0.00  0.00    +0.000 C 
ATOM     40  C   UNL     1     -14.495  55.122   1.739  0.00  0.00    +0.000 C 
ATOM     41  C   UNL     1     -14.265  54.535   0.479  0.00  0.00    +0.000 C 
ATOM     42  C   UNL     1     -15.518  51.036   1.570  0.00  0.00    +0.000 C 
ATOM     43  C   UNL     1     -13.978  55.148   4.207  0.00  0.00    +0.000 C 
ATOM     44  C   UNL     1     -16.392  55.341   3.329  0.00  0.00    +0.000 C 
BRANCH  41  45
ATOM     45  O   UNL     1     -14.550  55.200  -0.675  0.00  0.00    +0.000 OA
ATOM     46  H   UNL     1     -14.111  56.069  -0.721  0.00  0.00    +0.000 HD
ENDBRANCH  41  45
ENDBRANCH  33  36
ENDBRANCH  31  34
ENDBRANCH  30  31
ENDBRANCH  28  30
ENDBRANCH  26  29
ENDBRANCH  25  26
ENDBRANCH   1  25
TORSDOF 16
ENDMDL
MODEL 7
REMARK VINA RESULT:      -6.4      9.330     16.239
REMARK  Name = 448438_Violaxanthin.pdbqt.pdb
REMARK  16 active torsions:
REMARK  status: ('A' for Active; 'I' for Inactive)
REMARK    1  A    between atoms: C_1  and  C_5
REMARK    2  A    between atoms: C_2  and  C_27
REMARK    3  A    between atoms: C_3  and  C_5
REMARK    4  A    between atoms: C_3  and  C_7
REMARK    5  A    between atoms: C_6  and  C_10
REMARK    6  A    between atoms: C_8  and  C_10
REMARK    7  A    between atoms: C_8  and  C_12
REMARK    8  A    between atoms: C_11  and  C_14
REMARK    9  A    between atoms: C_19  and  O_23
REMARK   10  A    between atoms: C_25  and  C_27
REMARK   11  A    between atoms: C_25  and  C_29
REMARK   12  A    between atoms: C_28  and  C_32
REMARK   13  A    between atoms: C_30  and  C_32
REMARK   14  A    between atoms: C_30  and  C_34
REMARK   15  A    between atoms: C_33  and  C_36
REMARK   16  A    between atoms: C_41  and  O_45
REMARK                            x       y       z     vdW  Elec       q    Type
REMARK                         _______ _______ _______ _____ _____    ______ ____
ROOT
ATOM      1  C   UNL     1     -15.096  44.914   0.156  0.00  0.00    +0.000 C 
ATOM      2  C   UNL     1     -15.369  44.977   1.322  0.00  0.00    +0.000 C 
ENDROOT
BRANCH   2   3
ATOM      3  C   UNL     1     -15.720  45.056   2.812  0.00  0.00    +0.000 C 
BRANCH   3   4
ATOM      4  C   UNL     1     -16.017  45.121   4.072  0.00  0.00    +0.000 C 
ATOM      5  C   UNL     1     -16.207  43.859   4.859  0.00  0.00    +0.000 C 
BRANCH   4   7
ATOM      6  C   UNL     1     -16.408  47.445   5.207  0.00  0.00    +0.000 C 
ATOM      7  C   UNL     1     -16.228  46.378   4.686  0.00  0.00    +0.000 C 
BRANCH   6   8
ATOM      8  C   UNL     1     -16.639  48.807   5.874  0.00  0.00    +0.000 C 
BRANCH   8   9
ATOM      9  C   UNL     1     -16.837  49.958   6.438  0.00  0.00    +0.000 C 
ATOM     10  C   UNL     1     -17.124  50.030   7.907  0.00  0.00    +0.000 C 
BRANCH   9  12
ATOM     11  C   UNL     1     -16.516  52.156   5.051  0.00  0.00    +0.000 C 
ATOM     12  C   UNL     1     -16.661  51.149   5.691  0.00  0.00    +0.000 C 
BRANCH  11  14
ATOM     13  O   UNL     1     -17.660  53.865   3.860  0.00  0.00    +0.000 OA
ATOM     14  C   UNL     1     -16.353  53.364   4.257  0.00  0.00    +0.000 C 
ATOM     15  C   UNL     1     -16.941  54.697   4.769  0.00  0.00    +0.000 C 
ATOM     16  C   UNL     1     -15.224  53.429   3.173  0.00  0.00    +0.000 C 
ATOM     17  C   UNL     1     -16.471  55.892   4.148  0.00  0.00    +0.000 C 
ATOM     18  C   UNL     1     -15.116  54.828   2.734  0.00  0.00    +0.000 C 
ATOM     19  C   UNL     1     -15.575  56.111   3.089  0.00  0.00    +0.000 C 
ATOM     20  C   UNL     1     -17.622  54.838   6.134  0.00  0.00    +0.000 C 
ATOM     21  C   UNL     1     -13.923  52.989   3.887  0.00  0.00    +0.000 C 
ATOM     22  C   UNL     1     -15.644  52.469   2.040  0.00  0.00    +0.000 C 
BRANCH  19  23
ATOM     23  O   UNL     1     -15.780  57.098   2.173  0.00  0.00    +0.000 OA
ATOM     24  H   UNL     1     -15.809  57.985   2.575  0.00  0.00    +0.000 HD
ENDBRANCH  19  23
ENDBRANCH  11  14
ENDBRANCH   9  12
ENDBRANCH   8   9
ENDBRANCH   6   8
ENDBRANCH   4   7
ENDBRANCH   3   4
ENDBRANCH   2   3
BRANCH   1  25
ATOM     25  C   UNL     1     -14.745  44.835  -1.335  0.00  0.00    +0.000 C 
BRANCH  25  26
ATOM     26  C   UNL     1     -14.449  44.767  -2.595  0.00  0.00    +0.000 C 
ATOM     27  C   UNL     1     -14.122  43.441  -3.215  0.00  0.00    +0.000 C 
BRANCH  26  29
ATOM     28  C   UNL     1     -14.463  46.931  -4.062  0.00  0.00    +0.000 C 
ATOM     29  C   UNL     1     -14.458  45.937  -3.388  0.00  0.00    +0.000 C 
BRANCH  28  30
ATOM     30  C   UNL     1     -14.461  48.202  -4.923  0.00  0.00    +0.000 C 
BRANCH  30  31
ATOM     31  C   UNL     1     -14.465  49.275  -5.649  0.00  0.00    +0.000 C 
ATOM     32  C   UNL     1     -15.695  50.129  -5.713  0.00  0.00    +0.000 C 
BRANCH  31  34
ATOM     33  C   UNL     1     -12.294  49.990  -6.929  0.00  0.00    +0.000 C 
ATOM     34  C   UNL     1     -13.292  49.665  -6.342  0.00  0.00    +0.000 C 
BRANCH  33  36
ATOM     35  O   UNL     1     -11.328  50.342  -9.077  0.00  0.00    +0.000 OA
ATOM     36  C   UNL     1     -11.086  50.378  -7.642  0.00  0.00    +0.000 C 
ATOM     37  C   UNL     1     -11.096  51.639  -8.531  0.00  0.00    +0.000 C 
ATOM     38  C   UNL     1      -9.697  49.827  -7.158  0.00  0.00    +0.000 C 
ATOM     39  C   UNL     1      -9.830  52.170  -8.922  0.00  0.00    +0.000 C 
ATOM     40  C   UNL     1      -8.664  50.603  -7.847  0.00  0.00    +0.000 C 
ATOM     41  C   UNL     1      -8.518  51.735  -8.673  0.00  0.00    +0.000 C 
ATOM     42  C   UNL     1     -12.300  52.575  -8.661  0.00  0.00    +0.000 C 
ATOM     43  C   UNL     1      -9.686  48.322  -7.512  0.00  0.00    +0.000 C 
ATOM     44  C   UNL     1      -9.657  50.081  -5.629  0.00  0.00    +0.000 C 
BRANCH  41  45
ATOM     45  O   UNL     1      -7.473  52.594  -8.520  0.00  0.00    +0.000 OA
ATOM     46  H   UNL     1      -7.288  52.793  -7.584  0.00  0.00    +0.000 HD
ENDBRANCH  41  45
ENDBRANCH  33  36
ENDBRANCH  31  34
ENDBRANCH  30  31
ENDBRANCH  28  30
ENDBRANCH  26  29
ENDBRANCH  25  26
ENDBRANCH   1  25
TORSDOF 16
ENDMDL
MODEL 8
REMARK VINA RESULT:      -6.4     27.275     31.338
REMARK  Name = 448438_Violaxanthin.pdbqt.pdb
REMARK  16 active torsions:
REMARK  status: ('A' for Active; 'I' for Inactive)
REMARK    1  A    between atoms: C_1  and  C_5
REMARK    2  A    between atoms: C_2  and  C_27
REMARK    3  A    between atoms: C_3  and  C_5
REMARK    4  A    between atoms: C_3  and  C_7
REMARK    5  A    between atoms: C_6  and  C_10
REMARK    6  A    between atoms: C_8  and  C_10
REMARK    7  A    between atoms: C_8  and  C_12
REMARK    8  A    between atoms: C_11  and  C_14
REMARK    9  A    between atoms: C_19  and  O_23
REMARK   10  A    between atoms: C_25  and  C_27
REMARK   11  A    between atoms: C_25  and  C_29
REMARK   12  A    between atoms: C_28  and  C_32
REMARK   13  A    between atoms: C_30  and  C_32
REMARK   14  A    between atoms: C_30  and  C_34
REMARK   15  A    between atoms: C_33  and  C_36
REMARK   16  A    between atoms: C_41  and  O_45
REMARK                            x       y       z     vdW  Elec       q    Type
REMARK                         _______ _______ _______ _____ _____    ______ ____
ROOT
ATOM      1  C   UNL     1     -20.004  62.392 -23.028  0.00  0.00    +0.000 C 
ATOM      2  C   UNL     1     -20.996  62.991 -23.337  0.00  0.00    +0.000 C 
ENDROOT
BRANCH   2   3
ATOM      3  C   UNL     1     -22.263  63.757 -23.735  0.00  0.00    +0.000 C 
BRANCH   3   4
ATOM      4  C   UNL     1     -23.333  64.407 -24.070  0.00  0.00    +0.000 C 
ATOM      5  C   UNL     1     -24.203  65.008 -23.007  0.00  0.00    +0.000 C 
BRANCH   4   7
ATOM      6  C   UNL     1     -24.040  64.557 -26.584  0.00  0.00    +0.000 C 
ATOM      7  C   UNL     1     -23.715  64.488 -25.429  0.00  0.00    +0.000 C 
BRANCH   6   8
ATOM      8  C   UNL     1     -24.453  64.644 -28.058  0.00  0.00    +0.000 C 
BRANCH   8   9
ATOM      9  C   UNL     1     -24.806  64.718 -29.304  0.00  0.00    +0.000 C 
ATOM     10  C   UNL     1     -24.366  65.883 -30.137  0.00  0.00    +0.000 C 
BRANCH   9  12
ATOM     11  C   UNL     1     -26.093  62.721 -30.408  0.00  0.00    +0.000 C 
ATOM     12  C   UNL     1     -25.500  63.638 -29.905  0.00  0.00    +0.000 C 
BRANCH  11  14
ATOM     13  O   UNL     1     -26.049  60.384 -30.839  0.00  0.00    +0.000 OA
ATOM     14  C   UNL     1     -26.822  61.607 -30.994  0.00  0.00    +0.000 C 
ATOM     15  C   UNL     1     -27.267  60.432 -30.097  0.00  0.00    +0.000 C 
ATOM     16  C   UNL     1     -27.552  61.799 -32.366  0.00  0.00    +0.000 C 
ATOM     17  C   UNL     1     -28.254  59.551 -30.628  0.00  0.00    +0.000 C 
ATOM     18  C   UNL     1     -28.415  60.628 -32.574  0.00  0.00    +0.000 C 
ATOM     19  C   UNL     1     -28.903  59.507 -31.874  0.00  0.00    +0.000 C 
ATOM     20  C   UNL     1     -27.057  60.415 -28.580  0.00  0.00    +0.000 C 
ATOM     21  C   UNL     1     -28.412  63.078 -32.215  0.00  0.00    +0.000 C 
ATOM     22  C   UNL     1     -26.449  61.937 -33.437  0.00  0.00    +0.000 C 
BRANCH  19  23
ATOM     23  O   UNL     1     -29.191  58.326 -32.487  0.00  0.00    +0.000 OA
ATOM     24  H   UNL     1     -29.359  57.604 -31.855  0.00  0.00    +0.000 HD
ENDBRANCH  19  23
ENDBRANCH  11  14
ENDBRANCH   9  12
ENDBRANCH   8   9
ENDBRANCH   6   8
ENDBRANCH   4   7
ENDBRANCH   3   4
ENDBRANCH   2   3
BRANCH   1  25
ATOM     25  C   UNL     1     -18.736  61.625 -22.632  0.00  0.00    +0.000 C 
BRANCH  25  26
ATOM     26  C   UNL     1     -17.664  60.978 -22.296  0.00  0.00    +0.000 C 
ATOM     27  C   UNL     1     -16.731  61.558 -21.276  0.00  0.00    +0.000 C 
BRANCH  26  29
ATOM     28  C   UNL     1     -17.157  58.645 -23.364  0.00  0.00    +0.000 C 
ATOM     29  C   UNL     1     -17.390  59.716 -22.871  0.00  0.00    +0.000 C 
BRANCH  28  30
ATOM     30  C   UNL     1     -16.861  57.281 -23.999  0.00  0.00    +0.000 C 
BRANCH  30  31
ATOM     31  C   UNL     1     -16.608  56.126 -24.531  0.00  0.00    +0.000 C 
ATOM     32  C   UNL     1     -16.021  55.031 -23.695  0.00  0.00    +0.000 C 
BRANCH  31  34
ATOM     33  C   UNL     1     -17.209  55.683 -27.043  0.00  0.00    +0.000 C 
ATOM     34  C   UNL     1     -16.930  55.888 -25.890  0.00  0.00    +0.000 C 
BRANCH  33  36
ATOM     35  O   UNL     1     -16.603  54.493 -29.015  0.00  0.00    +0.000 OA
ATOM     36  C   UNL     1     -17.552  55.434 -28.435  0.00  0.00    +0.000 C 
ATOM     37  C   UNL     1     -17.938  54.008 -28.882  0.00  0.00    +0.000 C 
ATOM     38  C   UNL     1     -17.985  56.636 -29.348  0.00  0.00    +0.000 C 
ATOM     39  C   UNL     1     -18.592  53.876 -30.143  0.00  0.00    +0.000 C 
ATOM     40  C   UNL     1     -18.551  56.064 -30.571  0.00  0.00    +0.000 C 
ATOM     41  C   UNL     1     -18.942  54.826 -31.117  0.00  0.00    +0.000 C 
ATOM     42  C   UNL     1     -18.058  52.822 -27.922  0.00  0.00    +0.000 C 
ATOM     43  C   UNL     1     -16.708  57.475 -29.584  0.00  0.00    +0.000 C 
ATOM     44  C   UNL     1     -19.064  57.404 -28.542  0.00  0.00    +0.000 C 
BRANCH  41  45
ATOM     45  O   UNL     1     -20.057  54.713 -31.891  0.00  0.00    +0.000 OA
ATOM     46  H   UNL     1     -20.642  55.488 -31.815  0.00  0.00    +0.000 HD
ENDBRANCH  41  45
ENDBRANCH  33  36
ENDBRANCH  31  34
ENDBRANCH  30  31
ENDBRANCH  28  30
ENDBRANCH  26  29
ENDBRANCH  25  26
ENDBRANCH   1  25
TORSDOF 16
ENDMDL
MODEL 9
REMARK VINA RESULT:      -6.3     26.081     30.499
REMARK  Name = 448438_Violaxanthin.pdbqt.pdb
REMARK  16 active torsions:
REMARK  status: ('A' for Active; 'I' for Inactive)
REMARK    1  A    between atoms: C_1  and  C_5
REMARK    2  A    between atoms: C_2  and  C_27
REMARK    3  A    between atoms: C_3  and  C_5
REMARK    4  A    between atoms: C_3  and  C_7
REMARK    5  A    between atoms: C_6  and  C_10
REMARK    6  A    between atoms: C_8  and  C_10
REMARK    7  A    between atoms: C_8  and  C_12
REMARK    8  A    between atoms: C_11  and  C_14
REMARK    9  A    between atoms: C_19  and  O_23
REMARK   10  A    between atoms: C_25  and  C_27
REMARK   11  A    between atoms: C_25  and  C_29
REMARK   12  A    between atoms: C_28  and  C_32
REMARK   13  A    between atoms: C_30  and  C_32
REMARK   14  A    between atoms: C_30  and  C_34
REMARK   15  A    between atoms: C_33  and  C_36
REMARK   16  A    between atoms: C_41  and  O_45
REMARK                            x       y       z     vdW  Elec       q    Type
REMARK                         _______ _______ _______ _____ _____    ______ ____
ROOT
ATOM      1  C   UNL     1     -21.193  63.251 -24.525  0.00  0.00    +0.000 C 
ATOM      2  C   UNL     1     -20.294  62.760 -23.901  0.00  0.00    +0.000 C 
ENDROOT
BRANCH   2   3
ATOM      3  C   UNL     1     -19.142  62.133 -23.107  0.00  0.00    +0.000 C 
BRANCH   3   4
ATOM      4  C   UNL     1     -18.171  61.601 -22.434  0.00  0.00    +0.000 C 
ATOM      5  C   UNL     1     -17.443  62.415 -21.406  0.00  0.00    +0.000 C 
BRANCH   4   7
ATOM      6  C   UNL     1     -17.400  59.157 -22.958  0.00  0.00    +0.000 C 
ATOM      7  C   UNL     1     -17.754  60.280 -22.717  0.00  0.00    +0.000 C 
BRANCH   6   8
ATOM      8  C   UNL     1     -16.950  57.724 -23.265  0.00  0.00    +0.000 C 
BRANCH   8   9
ATOM      9  C   UNL     1     -16.568  56.511 -23.521  0.00  0.00    +0.000 C 
ATOM     10  C   UNL     1     -16.054  55.640 -22.415  0.00  0.00    +0.000 C 
BRANCH   9  12
ATOM     11  C   UNL     1     -16.916  55.512 -25.917  0.00  0.00    +0.000 C 
ATOM     12  C   UNL     1     -16.753  55.973 -24.819  0.00  0.00    +0.000 C 
BRANCH  11  14
ATOM     13  O   UNL     1     -18.561  54.797 -27.477  0.00  0.00    +0.000 OA
ATOM     14  C   UNL     1     -17.133  54.940 -27.237  0.00  0.00    +0.000 C 
ATOM     15  C   UNL     1     -17.898  55.753 -28.303  0.00  0.00    +0.000 C 
ATOM     16  C   UNL     1     -16.224  53.762 -27.726  0.00  0.00    +0.000 C 
ATOM     17  C   UNL     1     -17.788  55.311 -29.655  0.00  0.00    +0.000 C 
ATOM     18  C   UNL     1     -16.477  53.577 -29.162  0.00  0.00    +0.000 C 
ATOM     19  C   UNL     1     -17.132  54.213 -30.235  0.00  0.00    +0.000 C 
ATOM     20  C   UNL     1     -18.373  57.191 -28.074  0.00  0.00    +0.000 C 
ATOM     21  C   UNL     1     -14.765  54.226 -27.495  0.00  0.00    +0.000 C 
ATOM     22  C   UNL     1     -16.605  52.529 -26.879  0.00  0.00    +0.000 C 
BRANCH  19  23
ATOM     23  O   UNL     1     -17.676  53.523 -31.275  0.00  0.00    +0.000 OA
ATOM     24  H   UNL     1     -17.067  53.437 -32.030  0.00  0.00    +0.000 HD
ENDBRANCH  19  23
ENDBRANCH  11  14
ENDBRANCH   9  12
ENDBRANCH   8   9
ENDBRANCH   6   8
ENDBRANCH   4   7
ENDBRANCH   3   4
ENDBRANCH   2   3
BRANCH   1  25
ATOM     25  C   UNL     1     -22.345  63.879 -25.320  0.00  0.00    +0.000 C 
BRANCH  25  26
ATOM     26  C   UNL     1     -23.317  64.409 -25.993  0.00  0.00    +0.000 C 
ATOM     27  C   UNL     1     -23.271  65.864 -26.350  0.00  0.00    +0.000 C 
BRANCH  26  29
ATOM     28  C   UNL     1     -25.329  62.929 -26.766  0.00  0.00    +0.000 C 
ATOM     29  C   UNL     1     -24.406  63.610 -26.411  0.00  0.00    +0.000 C 
BRANCH  28  30
ATOM     30  C   UNL     1     -26.504  62.053 -27.221  0.00  0.00    +0.000 C 
BRANCH  30  31
ATOM     31  C   UNL     1     -27.499  61.317 -27.606  0.00  0.00    +0.000 C 
ATOM     32  C   UNL     1     -27.330  60.378 -28.761  0.00  0.00    +0.000 C 
BRANCH  31  34
ATOM     33  C   UNL     1     -29.774  61.415 -26.310  0.00  0.00    +0.000 C 
ATOM     34  C   UNL     1     -28.729  61.367 -26.905  0.00  0.00    +0.000 C 
BRANCH  33  36
ATOM     35  O   UNL     1     -30.931  60.749 -24.338  0.00  0.00    +0.000 OA
ATOM     36  C   UNL     1     -31.039  61.479 -25.593  0.00  0.00    +0.000 C 
ATOM     37  C   UNL     1     -31.098  62.160 -24.210  0.00  0.00    +0.000 C 
ATOM     38  C   UNL     1     -32.382  61.301 -26.387  0.00  0.00    +0.000 C 
ATOM     39  C   UNL     1     -32.389  62.507 -23.709  0.00  0.00    +0.000 C 
ATOM     40  C   UNL     1     -33.467  61.708 -25.490  0.00  0.00    +0.000 C 
ATOM     41  C   UNL     1     -33.677  62.314 -24.237  0.00  0.00    +0.000 C 
ATOM     42  C   UNL     1     -29.902  62.855 -23.555  0.00  0.00    +0.000 C 
ATOM     43  C   UNL     1     -32.442  59.814 -26.802  0.00  0.00    +0.000 C 
ATOM     44  C   UNL     1     -32.278  62.257 -27.603  0.00  0.00    +0.000 C 
BRANCH  41  45
ATOM     45  O   UNL     1     -34.695  63.196 -24.037  0.00  0.00    +0.000 OA
ATOM     46  H   UNL     1     -35.243  63.319 -24.834  0.00  0.00    +0.000 HD
ENDBRANCH  41  45
ENDBRANCH  33  36
ENDBRANCH  31  34
ENDBRANCH  30  31
ENDBRANCH  28  30
ENDBRANCH  26  29
ENDBRANCH  25  26
ENDBRANCH   1  25
TORSDOF 16
ENDMDL
