MODEL 1
REMARK VINA RESULT:      -7.6      0.000      0.000
REMARK  Name = 490561_Nocardiopsis.pdbqt.pdb
REMARK  3 active torsions:
REMARK  status: ('A' for Active; 'I' for Inactive)
REMARK    1  A    between atoms: C_7  and  O_32
REMARK    2  A    between atoms: C_7  and  C_35
REMARK    3  A    between atoms: C_35  and  O_36
REMARK                            x       y       z     vdW  Elec       q    Type
REMARK                         _______ _______ _______ _____ _____    ______ ____
ROOT
ATOM      1  O   UNL     1     -35.701  46.961 -18.720  0.00  0.00    +0.000 OA
ATOM      2  O   UNL     1     -32.988  44.424 -12.168  0.00  0.00    +0.000 OA
ATOM      3  N   UNL     1     -36.385  48.039 -16.730  0.00  0.00    +0.000 N 
ATOM      4  N   UNL     1     -33.929  46.412 -17.305  0.00  0.00    +0.000 N 
ATOM      5  N   UNL     1     -34.848  45.632 -11.481  0.00  0.00    +0.000 N 
ATOM      6  C   UNL     1     -36.222  48.229 -18.187  0.00  0.00    +0.000 C 
ATOM      7  C   UNL     1     -35.102  49.293 -18.559  0.00  0.00    +0.000 C 
ATOM      8  C   UNL     1     -34.317  47.028 -18.482  0.00  0.00    +0.000 C 
ATOM      9  C   UNL     1     -33.958  48.389 -18.638  0.00  0.00    +0.000 C 
ATOM     10  C   UNL     1     -35.708  47.236 -15.847  0.00  0.00    +0.000 A 
ATOM     11  C   UNL     1     -34.576  46.464 -16.108  0.00  0.00    +0.000 A 
ATOM     12  C   UNL     1     -36.101  47.216 -14.506  0.00  0.00    +0.000 A 
ATOM     13  C   UNL     1     -34.024  45.810 -15.000  0.00  0.00    +0.000 A 
ATOM     14  C   UNL     1     -37.592  48.447 -18.910  0.00  0.00    +0.000 C 
ATOM     15  C   UNL     1     -37.280  48.676 -15.835  0.00  0.00    +0.000 A 
ATOM     16  C   UNL     1     -32.786  45.676 -16.943  0.00  0.00    +0.000 A 
ATOM     17  C   UNL     1     -37.140  48.164 -14.491  0.00  0.00    +0.000 A 
ATOM     18  C   UNL     1     -35.580  46.553 -13.387  0.00  0.00    +0.000 A 
ATOM     19  C   UNL     1     -34.420  45.765 -13.648  0.00  0.00    +0.000 A 
ATOM     20  C   UNL     1     -32.838  45.278 -15.553  0.00  0.00    +0.000 A 
ATOM     21  C   UNL     1     -35.833  46.440 -11.928  0.00  0.00    +0.000 C 
ATOM     22  C   UNL     1     -38.216  49.690 -16.103  0.00  0.00    +0.000 A 
ATOM     23  C   UNL     1     -33.928  45.160 -12.429  0.00  0.00    +0.000 C 
ATOM     24  C   UNL     1     -31.701  45.314 -17.755  0.00  0.00    +0.000 A 
ATOM     25  C   UNL     1     -37.969  48.692 -13.480  0.00  0.00    +0.000 A 
ATOM     26  C   UNL     1     -31.761  44.527 -15.044  0.00  0.00    +0.000 A 
ATOM     27  C   UNL     1     -39.015  50.178 -15.069  0.00  0.00    +0.000 A 
ATOM     28  C   UNL     1     -38.900  49.685 -13.779  0.00  0.00    +0.000 A 
ATOM     29  C   UNL     1     -30.666  44.564 -17.198  0.00  0.00    +0.000 A 
ATOM     30  C   UNL     1     -30.692  44.175 -15.867  0.00  0.00    +0.000 A 
ATOM     31  H   UNL     1     -34.759  45.370 -10.510  0.00  0.00    +0.000 HD
ENDROOT
BRANCH   7  32
ATOM     32  O   UNL     1     -34.847  50.280 -17.549  0.00  0.00    +0.000 OA
ATOM     33  H   UNL     1     -35.094  51.153 -17.925  0.00  0.00    +0.000 HD
ENDBRANCH   7  32
BRANCH   7  35
ATOM     34  O   UNL     1     -36.033  51.010 -19.955  0.00  0.00    +0.000 OA
ATOM     35  C   UNL     1     -35.381  49.965 -19.903  0.00  0.00    +0.000 C 
BRANCH  35  36
ATOM     36  O   UNL     1     -34.786  49.296 -20.936  0.00  0.00    +0.000 OA
ATOM     37  C   UNL     1     -34.971  49.801 -22.231  0.00  0.00    +0.000 C 
ENDBRANCH  35  36
ENDBRANCH   7  35
TORSDOF 3
ENDMDL
MODEL 2
REMARK VINA RESULT:      -7.5     17.828     20.219
REMARK  Name = 490561_Nocardiopsis.pdbqt.pdb
REMARK  3 active torsions:
REMARK  status: ('A' for Active; 'I' for Inactive)
REMARK    1  A    between atoms: C_7  and  O_32
REMARK    2  A    between atoms: C_7  and  C_35
REMARK    3  A    between atoms: C_35  and  O_36
REMARK                            x       y       z     vdW  Elec       q    Type
REMARK                         _______ _______ _______ _____ _____    ______ ____
ROOT
ATOM      1  O   UNL     1     -34.389  64.277  -5.742  0.00  0.00    +0.000 OA
ATOM      2  O   UNL     1     -28.493  67.911  -8.702  0.00  0.00    +0.000 OA
ATOM      3  N   UNL     1     -33.964  64.028  -8.054  0.00  0.00    +0.000 N 
ATOM      4  N   UNL     1     -32.113  64.781  -5.815  0.00  0.00    +0.000 N 
ATOM      5  N   UNL     1     -29.761  67.436 -10.590  0.00  0.00    +0.000 N 
ATOM      6  C   UNL     1     -34.608  63.384  -6.890  0.00  0.00    +0.000 C 
ATOM      7  C   UNL     1     -33.909  62.023  -6.459  0.00  0.00    +0.000 C 
ATOM      8  C   UNL     1     -33.095  63.956  -5.296  0.00  0.00    +0.000 C 
ATOM      9  C   UNL     1     -32.939  62.565  -5.512  0.00  0.00    +0.000 C 
ATOM     10  C   UNL     1     -32.884  64.870  -8.132  0.00  0.00    +0.000 A 
ATOM     11  C   UNL     1     -32.026  65.239  -7.095  0.00  0.00    +0.000 A 
ATOM     12  C   UNL     1     -32.503  65.377  -9.377  0.00  0.00    +0.000 A 
ATOM     13  C   UNL     1     -30.941  66.039  -7.466  0.00  0.00    +0.000 A 
ATOM     14  C   UNL     1     -36.161  63.295  -7.050  0.00  0.00    +0.000 C 
ATOM     15  C   UNL     1     -34.277  63.914  -9.432  0.00  0.00    +0.000 A 
ATOM     16  C   UNL     1     -30.918  65.298  -5.282  0.00  0.00    +0.000 A 
ATOM     17  C   UNL     1     -33.420  64.750 -10.241  0.00  0.00    +0.000 A 
ATOM     18  C   UNL     1     -31.437  66.197  -9.769  0.00  0.00    +0.000 A 
ATOM     19  C   UNL     1     -30.555  66.574  -8.713  0.00  0.00    +0.000 A 
ATOM     20  C   UNL     1     -30.205  66.088  -6.261  0.00  0.00    +0.000 A 
ATOM     21  C   UNL     1     -30.870  66.791 -11.007  0.00  0.00    +0.000 C 
ATOM     22  C   UNL     1     -35.260  63.119 -10.046  0.00  0.00    +0.000 A 
ATOM     23  C   UNL     1     -29.463  67.376  -9.220  0.00  0.00    +0.000 C 
ATOM     24  C   UNL     1     -30.413  65.136  -3.982  0.00  0.00    +0.000 A 
ATOM     25  C   UNL     1     -33.610  64.757 -11.638  0.00  0.00    +0.000 A 
ATOM     26  C   UNL     1     -28.986  66.677  -5.870  0.00  0.00    +0.000 A 
ATOM     27  C   UNL     1     -35.410  63.161 -11.432  0.00  0.00    +0.000 A 
ATOM     28  C   UNL     1     -34.605  63.970 -12.217  0.00  0.00    +0.000 A 
ATOM     29  C   UNL     1     -29.205  65.749  -3.650  0.00  0.00    +0.000 A 
ATOM     30  C   UNL     1     -28.502  66.507  -4.574  0.00  0.00    +0.000 A 
ATOM     31  H   UNL     1     -29.158  67.944 -11.220  0.00  0.00    +0.000 HD
ENDROOT
BRANCH   7  32
ATOM     32  O   UNL     1     -33.205  61.347  -7.510  0.00  0.00    +0.000 OA
ATOM     33  H   UNL     1     -32.924  60.474  -7.159  0.00  0.00    +0.000 HD
ENDBRANCH   7  32
BRANCH   7  35
ATOM     34  O   UNL     1     -35.143  61.190  -4.575  0.00  0.00    +0.000 OA
ATOM     35  C   UNL     1     -34.891  61.073  -5.777  0.00  0.00    +0.000 C 
BRANCH  35  36
ATOM     36  O   UNL     1     -35.437  60.187  -6.664  0.00  0.00    +0.000 OA
ATOM     37  C   UNL     1     -36.190  59.125  -6.144  0.00  0.00    +0.000 C 
ENDBRANCH  35  36
ENDBRANCH   7  35
TORSDOF 3
ENDMDL
MODEL 3
REMARK VINA RESULT:      -7.5      2.000      6.542
REMARK  Name = 490561_Nocardiopsis.pdbqt.pdb
REMARK  3 active torsions:
REMARK  status: ('A' for Active; 'I' for Inactive)
REMARK    1  A    between atoms: C_7  and  O_32
REMARK    2  A    between atoms: C_7  and  C_35
REMARK    3  A    between atoms: C_35  and  O_36
REMARK                            x       y       z     vdW  Elec       q    Type
REMARK                         _______ _______ _______ _____ _____    ______ ____
ROOT
ATOM      1  O   UNL     1     -33.449  45.006 -11.698  0.00  0.00    +0.000 OA
ATOM      2  O   UNL     1     -33.325  47.848 -18.672  0.00  0.00    +0.000 OA
ATOM      3  N   UNL     1     -35.403  46.057 -12.515  0.00  0.00    +0.000 N 
ATOM      4  N   UNL     1     -33.120  44.792 -13.997  0.00  0.00    +0.000 N 
ATOM      5  N   UNL     1     -35.141  48.954 -17.736  0.00  0.00    +0.000 N 
ATOM      6  C   UNL     1     -34.910  45.065 -11.537  0.00  0.00    +0.000 C 
ATOM      7  C   UNL     1     -35.392  43.583 -11.847  0.00  0.00    +0.000 C 
ATOM      8  C   UNL     1     -33.256  44.137 -12.786  0.00  0.00    +0.000 C 
ATOM      9  C   UNL     1     -34.282  43.165 -12.698  0.00  0.00    +0.000 C 
ATOM     10  C   UNL     1     -34.906  46.438 -13.736  0.00  0.00    +0.000 A 
ATOM     11  C   UNL     1     -33.837  45.868 -14.426  0.00  0.00    +0.000 A 
ATOM     12  C   UNL     1     -35.556  47.449 -14.450  0.00  0.00    +0.000 A 
ATOM     13  C   UNL     1     -33.596  46.388 -15.702  0.00  0.00    +0.000 A 
ATOM     14  C   UNL     1     -35.142  45.528 -10.060  0.00  0.00    +0.000 C 
ATOM     15  C   UNL     1     -36.564  46.869 -12.466  0.00  0.00    +0.000 A 
ATOM     16  C   UNL     1     -32.342  44.535 -15.141  0.00  0.00    +0.000 A 
ATOM     17  C   UNL     1     -36.652  47.738 -13.617  0.00  0.00    +0.000 A 
ATOM     18  C   UNL     1     -35.320  48.001 -15.716  0.00  0.00    +0.000 A 
ATOM     19  C   UNL     1     -34.229  47.419 -16.427  0.00  0.00    +0.000 A 
ATOM     20  C   UNL     1     -32.597  45.510 -16.178  0.00  0.00    +0.000 A 
ATOM     21  C   UNL     1     -35.904  49.021 -16.625  0.00  0.00    +0.000 C 
ATOM     22  C   UNL     1     -37.570  46.903 -11.486  0.00  0.00    +0.000 A 
ATOM     23  C   UNL     1     -34.094  48.019 -17.737  0.00  0.00    +0.000 C 
ATOM     24  C   UNL     1     -31.408  43.506 -15.334  0.00  0.00    +0.000 A 
ATOM     25  C   UNL     1     -37.749  48.618 -13.713  0.00  0.00    +0.000 A 
ATOM     26  C   UNL     1     -31.885  45.385 -17.388  0.00  0.00    +0.000 A 
ATOM     27  C   UNL     1     -38.635  47.792 -11.625  0.00  0.00    +0.000 A 
ATOM     28  C   UNL     1     -38.724  48.641 -12.716  0.00  0.00    +0.000 A 
ATOM     29  C   UNL     1     -30.727  43.436 -16.550  0.00  0.00    +0.000 A 
ATOM     30  C   UNL     1     -30.959  44.358 -17.560  0.00  0.00    +0.000 A 
ATOM     31  H   UNL     1     -35.300  49.540 -18.541  0.00  0.00    +0.000 HD
ENDROOT
BRANCH   7  32
ATOM     32  O   UNL     1     -36.613  43.491 -12.597  0.00  0.00    +0.000 OA
ATOM     33  H   UNL     1     -37.127  42.740 -12.226  0.00  0.00    +0.000 HD
ENDBRANCH   7  32
BRANCH   7  35
ATOM     34  O   UNL     1     -36.548  42.621  -9.976  0.00  0.00    +0.000 OA
ATOM     35  C   UNL     1     -35.479  42.736 -10.579  0.00  0.00    +0.000 C 
BRANCH  35  36
ATOM     36  O   UNL     1     -34.286  42.136 -10.289  0.00  0.00    +0.000 OA
ATOM     37  C   UNL     1     -33.806  42.242  -8.976  0.00  0.00    +0.000 C 
ENDBRANCH  35  36
ENDBRANCH   7  35
TORSDOF 3
ENDMDL
MODEL 4
REMARK VINA RESULT:      -7.3      2.411      6.201
REMARK  Name = 490561_Nocardiopsis.pdbqt.pdb
REMARK  3 active torsions:
REMARK  status: ('A' for Active; 'I' for Inactive)
REMARK    1  A    between atoms: C_7  and  O_32
REMARK    2  A    between atoms: C_7  and  C_35
REMARK    3  A    between atoms: C_35  and  O_36
REMARK                            x       y       z     vdW  Elec       q    Type
REMARK                         _______ _______ _______ _____ _____    ______ ____
ROOT
ATOM      1  O   UNL     1     -31.688  45.496 -18.160  0.00  0.00    +0.000 OA
ATOM      2  O   UNL     1     -37.409  50.363 -17.605  0.00  0.00    +0.000 OA
ATOM      3  N   UNL     1     -33.010  45.453 -16.201  0.00  0.00    +0.000 N 
ATOM      4  N   UNL     1     -33.666  46.440 -18.958  0.00  0.00    +0.000 N 
ATOM      5  N   UNL     1     -37.088  49.746 -15.390  0.00  0.00    +0.000 N 
ATOM      6  C   UNL     1     -32.112  44.637 -17.043  0.00  0.00    +0.000 C 
ATOM      7  C   UNL     1     -32.848  43.420 -17.751  0.00  0.00    +0.000 C 
ATOM      8  C   UNL     1     -32.747  45.413 -19.081  0.00  0.00    +0.000 C 
ATOM      9  C   UNL     1     -33.249  44.092 -18.984  0.00  0.00    +0.000 C 
ATOM     10  C   UNL     1     -33.844  46.494 -16.522  0.00  0.00    +0.000 A 
ATOM     11  C   UNL     1     -34.144  46.970 -17.799  0.00  0.00    +0.000 A 
ATOM     12  C   UNL     1     -34.565  47.129 -15.507  0.00  0.00    +0.000 A 
ATOM     13  C   UNL     1     -35.104  47.986 -17.853  0.00  0.00    +0.000 A 
ATOM     14  C   UNL     1     -30.792  44.253 -16.297  0.00  0.00    +0.000 C 
ATOM     15  C   UNL     1     -33.281  45.351 -14.813  0.00  0.00    +0.000 A 
ATOM     16  C   UNL     1     -34.434  47.153 -19.897  0.00  0.00    +0.000 A 
ATOM     17  C   UNL     1     -34.197  46.379 -14.374  0.00  0.00    +0.000 A 
ATOM     18  C   UNL     1     -35.511  48.161 -15.534  0.00  0.00    +0.000 A 
ATOM     19  C   UNL     1     -35.824  48.649 -16.838  0.00  0.00    +0.000 A 
ATOM     20  C   UNL     1     -35.294  48.117 -19.247  0.00  0.00    +0.000 A 
ATOM     21  C   UNL     1     -36.379  48.917 -14.595  0.00  0.00    +0.000 C 
ATOM     22  C   UNL     1     -32.791  44.411 -13.891  0.00  0.00    +0.000 A 
ATOM     23  C   UNL     1     -36.841  49.675 -16.769  0.00  0.00    +0.000 C 
ATOM     24  C   UNL     1     -34.421  47.027 -21.295  0.00  0.00    +0.000 A 
ATOM     25  C   UNL     1     -34.561  46.420 -13.013  0.00  0.00    +0.000 A 
ATOM     26  C   UNL     1     -36.123  48.913 -20.061  0.00  0.00    +0.000 A 
ATOM     27  C   UNL     1     -33.180  44.493 -12.554  0.00  0.00    +0.000 A 
ATOM     28  C   UNL     1     -34.045  45.484 -12.117  0.00  0.00    +0.000 A 
ATOM     29  C   UNL     1     -35.258  47.847 -22.051  0.00  0.00    +0.000 A 
ATOM     30  C   UNL     1     -36.095  48.775 -21.448  0.00  0.00    +0.000 A 
ATOM     31  H   UNL     1     -37.772  50.393 -15.027  0.00  0.00    +0.000 HD
ENDROOT
BRANCH   7  32
ATOM     32  O   UNL     1     -34.024  42.950 -17.075  0.00  0.00    +0.000 OA
ATOM     33  H   UNL     1     -34.719  42.817 -17.756  0.00  0.00    +0.000 HD
ENDBRANCH   7  32
BRANCH   7  35
ATOM     34  O   UNL     1     -31.792  41.328 -17.228  0.00  0.00    +0.000 OA
ATOM     35  C   UNL     1     -31.892  42.261 -18.028  0.00  0.00    +0.000 C 
BRANCH  35  36
ATOM     36  O   UNL     1     -31.268  42.398 -19.237  0.00  0.00    +0.000 OA
ATOM     37  C   UNL     1     -29.874  42.254 -19.269  0.00  0.00    +0.000 C 
ENDBRANCH  35  36
ENDBRANCH   7  35
TORSDOF 3
ENDMDL
MODEL 5
REMARK VINA RESULT:      -7.2     17.999     20.350
REMARK  Name = 490561_Nocardiopsis.pdbqt.pdb
REMARK  3 active torsions:
REMARK  status: ('A' for Active; 'I' for Inactive)
REMARK    1  A    between atoms: C_7  and  O_32
REMARK    2  A    between atoms: C_7  and  C_35
REMARK    3  A    between atoms: C_35  and  O_36
REMARK                            x       y       z     vdW  Elec       q    Type
REMARK                         _______ _______ _______ _____ _____    ______ ____
ROOT
ATOM      1  O   UNL     1     -33.556  65.213  -6.073  0.00  0.00    +0.000 OA
ATOM      2  O   UNL     1     -28.529  67.676 -11.113  0.00  0.00    +0.000 OA
ATOM      3  N   UNL     1     -33.662  64.355  -8.274  0.00  0.00    +0.000 N 
ATOM      4  N   UNL     1     -31.361  65.572  -6.778  0.00  0.00    +0.000 N 
ATOM      5  N   UNL     1     -30.185  66.791 -12.480  0.00  0.00    +0.000 N 
ATOM      6  C   UNL     1     -34.017  64.065  -6.869  0.00  0.00    +0.000 C 
ATOM      7  C   UNL     1     -33.222  62.830  -6.262  0.00  0.00    +0.000 C 
ATOM      8  C   UNL     1     -32.190  64.957  -5.857  0.00  0.00    +0.000 C 
ATOM      9  C   UNL     1     -32.070  63.552  -5.730  0.00  0.00    +0.000 C 
ATOM     10  C   UNL     1     -32.638  65.097  -8.807  0.00  0.00    +0.000 A 
ATOM     11  C   UNL     1     -31.573  65.680  -8.119  0.00  0.00    +0.000 A 
ATOM     12  C   UNL     1     -32.556  65.247 -10.194  0.00  0.00    +0.000 A 
ATOM     13  C   UNL     1     -30.610  66.305  -8.919  0.00  0.00    +0.000 A 
ATOM     14  C   UNL     1     -35.566  64.011  -6.652  0.00  0.00    +0.000 C 
ATOM     15  C   UNL     1     -34.277  63.904  -9.469  0.00  0.00    +0.000 A 
ATOM     16  C   UNL     1     -30.083  66.152  -6.678  0.00  0.00    +0.000 A 
ATOM     17  C   UNL     1     -33.636  64.462 -10.638  0.00  0.00    +0.000 A 
ATOM     18  C   UNL     1     -31.616  65.886 -11.013  0.00  0.00    +0.000 A 
ATOM     19  C   UNL     1     -30.523  66.481 -10.315  0.00  0.00    +0.000 A 
ATOM     20  C   UNL     1     -29.621  66.628  -7.963  0.00  0.00    +0.000 A 
ATOM     21  C   UNL     1     -31.352  66.113 -12.457  0.00  0.00    +0.000 C 
ATOM     22  C   UNL     1     -35.363  63.026  -9.619  0.00  0.00    +0.000 A 
ATOM     23  C   UNL     1     -29.584  67.073 -11.244  0.00  0.00    +0.000 C 
ATOM     24  C   UNL     1     -29.296  66.307  -5.527  0.00  0.00    +0.000 A 
ATOM     25  C   UNL     1     -34.137  64.117 -11.909  0.00  0.00    +0.000 A 
ATOM     26  C   UNL     1     -28.353  67.240  -8.020  0.00  0.00    +0.000 A 
ATOM     27  C   UNL     1     -35.824  62.716 -10.898  0.00  0.00    +0.000 A 
ATOM     28  C   UNL     1     -35.227  63.255 -12.027  0.00  0.00    +0.000 A 
ATOM     29  C   UNL     1     -28.052  66.927  -5.642  0.00  0.00    +0.000 A 
ATOM     30  C   UNL     1     -27.586  67.387  -6.865  0.00  0.00    +0.000 A 
ATOM     31  H   UNL     1     -29.746  67.089 -13.338  0.00  0.00    +0.000 HD
ENDROOT
BRANCH   7  32
ATOM     32  O   UNL     1     -32.765  61.873  -7.229  0.00  0.00    +0.000 OA
ATOM     33  H   UNL     1     -32.290  62.371  -7.930  0.00  0.00    +0.000 HD
ENDBRANCH   7  32
BRANCH   7  35
ATOM     34  O   UNL     1     -34.152  62.673  -4.055  0.00  0.00    +0.000 OA
ATOM     35  C   UNL     1     -34.012  62.135  -5.155  0.00  0.00    +0.000 C 
BRANCH  35  36
ATOM     36  O   UNL     1     -34.538  60.946  -5.578  0.00  0.00    +0.000 OA
ATOM     37  C   UNL     1     -35.829  60.614  -5.145  0.00  0.00    +0.000 C 
ENDBRANCH  35  36
ENDBRANCH   7  35
TORSDOF 3
ENDMDL
MODEL 6
REMARK VINA RESULT:      -7.2      1.544      5.329
REMARK  Name = 490561_Nocardiopsis.pdbqt.pdb
REMARK  3 active torsions:
REMARK  status: ('A' for Active; 'I' for Inactive)
REMARK    1  A    between atoms: C_7  and  O_32
REMARK    2  A    between atoms: C_7  and  C_35
REMARK    3  A    between atoms: C_35  and  O_36
REMARK                            x       y       z     vdW  Elec       q    Type
REMARK                         _______ _______ _______ _____ _____    ______ ____
ROOT
ATOM      1  O   UNL     1     -35.488  49.139 -16.153  0.00  0.00    +0.000 OA
ATOM      2  O   UNL     1     -35.973  45.179  -9.764  0.00  0.00    +0.000 OA
ATOM      3  N   UNL     1     -34.352  47.068 -16.028  0.00  0.00    +0.000 N 
ATOM      4  N   UNL     1     -36.723  48.073 -14.486  0.00  0.00    +0.000 N 
ATOM      5  N   UNL     1     -34.102  44.239 -10.770  0.00  0.00    +0.000 N 
ATOM      6  C   UNL     1     -34.944  48.042 -16.969  0.00  0.00    +0.000 C 
ATOM      7  C   UNL     1     -36.209  47.475 -17.746  0.00  0.00    +0.000 C 
ATOM      8  C   UNL     1     -36.745  48.668 -15.735  0.00  0.00    +0.000 C 
ATOM      9  C   UNL     1     -37.247  47.887 -16.804  0.00  0.00    +0.000 C 
ATOM     10  C   UNL     1     -34.676  46.763 -14.730  0.00  0.00    +0.000 A 
ATOM     11  C   UNL     1     -35.766  47.236 -13.999  0.00  0.00    +0.000 A 
ATOM     12  C   UNL     1     -33.913  45.814 -14.043  0.00  0.00    +0.000 A 
ATOM     13  C   UNL     1     -35.918  46.689 -12.720  0.00  0.00    +0.000 A 
ATOM     14  C   UNL     1     -33.864  48.708 -17.884  0.00  0.00    +0.000 C 
ATOM     15  C   UNL     1     -33.294  46.148 -16.233  0.00  0.00    +0.000 A 
ATOM     16  C   UNL     1     -37.647  48.044 -13.425  0.00  0.00    +0.000 A 
ATOM     17  C   UNL     1     -32.998  45.404 -15.029  0.00  0.00    +0.000 A 
ATOM     18  C   UNL     1     -34.031  45.269 -12.757  0.00  0.00    +0.000 A 
ATOM     19  C   UNL     1     -35.147  45.747 -12.008  0.00  0.00    +0.000 A 
ATOM     20  C   UNL     1     -37.164  47.230 -12.332  0.00  0.00    +0.000 A 
ATOM     21  C   UNL     1     -33.360  44.262 -11.897  0.00  0.00    +0.000 C 
ATOM     22  C   UNL     1     -32.564  45.897 -17.407  0.00  0.00    +0.000 A 
ATOM     23  C   UNL     1     -35.213  45.095 -10.718  0.00  0.00    +0.000 C 
ATOM     24  C   UNL     1     -38.886  48.697 -13.342  0.00  0.00    +0.000 A 
ATOM     25  C   UNL     1     -31.960  44.451 -15.066  0.00  0.00    +0.000 A 
ATOM     26  C   UNL     1     -37.981  47.108 -11.190  0.00  0.00    +0.000 A 
ATOM     27  C   UNL     1     -31.546  44.945 -17.393  0.00  0.00    +0.000 A 
ATOM     28  C   UNL     1     -31.242  44.236 -16.242  0.00  0.00    +0.000 A 
ATOM     29  C   UNL     1     -39.649  48.546 -12.185  0.00  0.00    +0.000 A 
ATOM     30  C   UNL     1     -39.208  47.767 -11.126  0.00  0.00    +0.000 A 
ATOM     31  H   UNL     1     -33.886  43.639  -9.988  0.00  0.00    +0.000 HD
ENDROOT
BRANCH   7  32
ATOM     32  O   UNL     1     -36.245  46.047 -17.880  0.00  0.00    +0.000 OA
ATOM     33  H   UNL     1     -36.268  45.845 -18.841  0.00  0.00    +0.000 HD
ENDBRANCH   7  32
BRANCH   7  35
ATOM     34  O   UNL     1     -35.915  47.629 -20.123  0.00  0.00    +0.000 OA
ATOM     35  C   UNL     1     -36.387  48.144 -19.107  0.00  0.00    +0.000 C 
BRANCH  35  36
ATOM     36  O   UNL     1     -37.141  49.281 -19.018  0.00  0.00    +0.000 OA
ATOM     37  C   UNL     1     -36.623  50.454 -19.584  0.00  0.00    +0.000 C 
ENDBRANCH  35  36
ENDBRANCH   7  35
TORSDOF 3
ENDMDL
MODEL 7
REMARK VINA RESULT:      -7.2     21.568     22.979
REMARK  Name = 490561_Nocardiopsis.pdbqt.pdb
REMARK  3 active torsions:
REMARK  status: ('A' for Active; 'I' for Inactive)
REMARK    1  A    between atoms: C_7  and  O_32
REMARK    2  A    between atoms: C_7  and  C_35
REMARK    3  A    between atoms: C_35  and  O_36
REMARK                            x       y       z     vdW  Elec       q    Type
REMARK                         _______ _______ _______ _____ _____    ______ ____
ROOT
ATOM      1  O   UNL     1     -13.274  56.153 -17.902  0.00  0.00    +0.000 OA
ATOM      2  O   UNL     1     -17.484  59.290 -23.303  0.00  0.00    +0.000 OA
ATOM      3  N   UNL     1     -14.794  57.858 -17.291  0.00  0.00    +0.000 N 
ATOM      4  N   UNL     1     -14.806  56.010 -19.656  0.00  0.00    +0.000 N 
ATOM      5  N   UNL     1     -17.624  60.871 -21.607  0.00  0.00    +0.000 N 
ATOM      6  C   UNL     1     -14.052  56.689 -16.774  0.00  0.00    +0.000 C 
ATOM      7  C   UNL     1     -14.996  55.483 -16.349  0.00  0.00    +0.000 C 
ATOM      8  C   UNL     1     -14.191  55.352 -18.605  0.00  0.00    +0.000 C 
ATOM      9  C   UNL     1     -15.041  54.779 -17.628  0.00  0.00    +0.000 C 
ATOM     10  C   UNL     1     -15.268  58.138 -18.548  0.00  0.00    +0.000 A 
ATOM     11  C   UNL     1     -15.264  57.292 -19.658  0.00  0.00    +0.000 A 
ATOM     12  C   UNL     1     -15.911  59.357 -18.778  0.00  0.00    +0.000 A 
ATOM     13  C   UNL     1     -15.898  57.794 -20.800  0.00  0.00    +0.000 A 
ATOM     14  C   UNL     1     -12.990  57.093 -15.699  0.00  0.00    +0.000 C 
ATOM     15  C   UNL     1     -15.255  59.007 -16.601  0.00  0.00    +0.000 A 
ATOM     16  C   UNL     1     -15.227  55.590 -20.931  0.00  0.00    +0.000 A 
ATOM     17  C   UNL     1     -15.905  59.937 -17.496  0.00  0.00    +0.000 A 
ATOM     18  C   UNL     1     -16.531  59.890 -19.916  0.00  0.00    +0.000 A 
ATOM     19  C   UNL     1     -16.532  59.027 -21.053  0.00  0.00    +0.000 A 
ATOM     20  C   UNL     1     -15.868  56.668 -21.652  0.00  0.00    +0.000 A 
ATOM     21  C   UNL     1     -17.271  61.110 -20.327  0.00  0.00    +0.000 C 
ATOM     22  C   UNL     1     -15.159  59.306 -15.232  0.00  0.00    +0.000 A 
ATOM     23  C   UNL     1     -17.234  59.641 -22.159  0.00  0.00    +0.000 C 
ATOM     24  C   UNL     1     -15.073  54.324 -21.516  0.00  0.00    +0.000 A 
ATOM     25  C   UNL     1     -16.413  61.140 -16.964  0.00  0.00    +0.000 A 
ATOM     26  C   UNL     1     -16.341  56.399 -22.952  0.00  0.00    +0.000 A 
ATOM     27  C   UNL     1     -15.676  60.510 -14.753  0.00  0.00    +0.000 A 
ATOM     28  C   UNL     1     -16.288  61.417 -15.603  0.00  0.00    +0.000 A 
ATOM     29  C   UNL     1     -15.554  54.118 -22.809  0.00  0.00    +0.000 A 
ATOM     30  C   UNL     1     -16.177  55.135 -23.517  0.00  0.00    +0.000 A 
ATOM     31  H   UNL     1     -18.147  61.534 -22.160  0.00  0.00    +0.000 HD
ENDROOT
BRANCH   7  32
ATOM     32  O   UNL     1     -16.330  55.863 -15.980  0.00  0.00    +0.000 OA
ATOM     33  H   UNL     1     -16.407  55.748 -15.008  0.00  0.00    +0.000 HD
ENDBRANCH   7  32
BRANCH   7  35
ATOM     34  O   UNL     1     -13.408  53.890 -15.513  0.00  0.00    +0.000 OA
ATOM     35  C   UNL     1     -14.363  54.625 -15.256  0.00  0.00    +0.000 C 
BRANCH  35  36
ATOM     36  O   UNL     1     -14.951  54.839 -14.041  0.00  0.00    +0.000 OA
ATOM     37  C   UNL     1     -14.148  54.717 -12.898  0.00  0.00    +0.000 C 
ENDBRANCH  35  36
ENDBRANCH   7  35
TORSDOF 3
ENDMDL
MODEL 8
REMARK VINA RESULT:      -7.1      2.065      6.218
REMARK  Name = 490561_Nocardiopsis.pdbqt.pdb
REMARK  3 active torsions:
REMARK  status: ('A' for Active; 'I' for Inactive)
REMARK    1  A    between atoms: C_7  and  O_32
REMARK    2  A    between atoms: C_7  and  C_35
REMARK    3  A    between atoms: C_35  and  O_36
REMARK                            x       y       z     vdW  Elec       q    Type
REMARK                         _______ _______ _______ _____ _____    ______ ____
ROOT
ATOM      1  O   UNL     1     -33.167  47.736 -17.751  0.00  0.00    +0.000 OA
ATOM      2  O   UNL     1     -38.690  52.449 -19.755  0.00  0.00    +0.000 OA
ATOM      3  N   UNL     1     -35.166  47.722 -16.489  0.00  0.00    +0.000 N 
ATOM      4  N   UNL     1     -34.668  48.594 -19.318  0.00  0.00    +0.000 N 
ATOM      5  N   UNL     1     -39.281  51.919 -17.572  0.00  0.00    +0.000 N 
ATOM      6  C   UNL     1     -33.994  46.905 -16.863  0.00  0.00    +0.000 C 
ATOM      7  C   UNL     1     -34.367  45.642 -17.754  0.00  0.00    +0.000 C 
ATOM      8  C   UNL     1     -33.764  47.590 -19.016  0.00  0.00    +0.000 C 
ATOM      9  C   UNL     1     -34.246  46.260 -19.071  0.00  0.00    +0.000 C 
ATOM     10  C   UNL     1     -35.813  48.726 -17.164  0.00  0.00    +0.000 A 
ATOM     11  C   UNL     1     -35.579  49.150 -18.472  0.00  0.00    +0.000 A 
ATOM     12  C   UNL     1     -36.890  49.375 -16.551  0.00  0.00    +0.000 A 
ATOM     13  C   UNL     1     -36.450  50.135 -18.952  0.00  0.00    +0.000 A 
ATOM     14  C   UNL     1     -33.081  46.585 -15.634  0.00  0.00    +0.000 C 
ATOM     15  C   UNL     1     -35.972  47.660 -15.324  0.00  0.00    +0.000 A 
ATOM     16  C   UNL     1     -35.002  49.252 -20.516  0.00  0.00    +0.000 A 
ATOM     17  C   UNL     1     -36.999  48.676 -15.336  0.00  0.00    +0.000 A 
ATOM     18  C   UNL     1     -37.759  50.377 -17.002  0.00  0.00    +0.000 A 
ATOM     19  C   UNL     1     -37.526  50.811 -18.341  0.00  0.00    +0.000 A 
ATOM     20  C   UNL     1     -36.064  50.211 -20.309  0.00  0.00    +0.000 A 
ATOM     21  C   UNL     1     -38.940  51.140 -16.524  0.00  0.00    +0.000 C 
ATOM     22  C   UNL     1     -35.883  46.767 -14.243  0.00  0.00    +0.000 A 
ATOM     23  C   UNL     1     -38.498  51.808 -18.732  0.00  0.00    +0.000 C 
ATOM     24  C   UNL     1     -34.426  49.078 -21.783  0.00  0.00    +0.000 A 
ATOM     25  C   UNL     1     -37.881  48.752 -14.239  0.00  0.00    +0.000 A 
ATOM     26  C   UNL     1     -36.505  50.955 -21.421  0.00  0.00    +0.000 A 
ATOM     27  C   UNL     1     -36.778  46.884 -13.180  0.00  0.00    +0.000 A 
ATOM     28  C   UNL     1     -37.759  47.863 -13.172  0.00  0.00    +0.000 A 
ATOM     29  C   UNL     1     -34.898  49.846 -22.847  0.00  0.00    +0.000 A 
ATOM     30  C   UNL     1     -35.919  50.770 -22.673  0.00  0.00    +0.000 A 
ATOM     31  H   UNL     1     -40.061  52.558 -17.544  0.00  0.00    +0.000 HD
ENDROOT
BRANCH   7  32
ATOM     32  O   UNL     1     -35.709  45.162 -17.587  0.00  0.00    +0.000 OA
ATOM     33  H   UNL     1     -36.271  45.937 -17.369  0.00  0.00    +0.000 HD
ENDBRANCH   7  32
BRANCH   7  35
ATOM     34  O   UNL     1     -33.591  43.595 -16.770  0.00  0.00    +0.000 OA
ATOM     35  C   UNL     1     -33.365  44.503 -17.573  0.00  0.00    +0.000 C 
BRANCH  35  36
ATOM     36  O   UNL     1     -32.300  44.626 -18.421  0.00  0.00    +0.000 OA
ATOM     37  C   UNL     1     -31.015  44.548 -17.868  0.00  0.00    +0.000 C 
ENDBRANCH  35  36
ENDBRANCH   7  35
TORSDOF 3
ENDMDL
MODEL 9
REMARK VINA RESULT:      -6.8      2.298      3.363
REMARK  Name = 490561_Nocardiopsis.pdbqt.pdb
REMARK  3 active torsions:
REMARK  status: ('A' for Active; 'I' for Inactive)
REMARK    1  A    between atoms: C_7  and  O_32
REMARK    2  A    between atoms: C_7  and  C_35
REMARK    3  A    between atoms: C_35  and  O_36
REMARK                            x       y       z     vdW  Elec       q    Type
REMARK                         _______ _______ _______ _____ _____    ______ ____
ROOT
ATOM      1  O   UNL     1     -37.920  47.393 -16.095  0.00  0.00    +0.000 OA
ATOM      2  O   UNL     1     -32.974  44.276 -11.346  0.00  0.00    +0.000 OA
ATOM      3  N   UNL     1     -38.026  47.996 -13.811  0.00  0.00    +0.000 N 
ATOM      4  N   UNL     1     -35.738  46.915 -15.425  0.00  0.00    +0.000 N 
ATOM      5  N   UNL     1     -34.623  45.030  -9.894  0.00  0.00    +0.000 N 
ATOM      6  C   UNL     1     -38.366  48.451 -15.175  0.00  0.00    +0.000 C 
ATOM      7  C   UNL     1     -37.545  49.732 -15.633  0.00  0.00    +0.000 C 
ATOM      8  C   UNL     1     -36.549  47.647 -16.274  0.00  0.00    +0.000 C 
ATOM      9  C   UNL     1     -36.402  49.055 -16.239  0.00  0.00    +0.000 C 
ATOM     10  C   UNL     1     -37.019  47.179 -13.361  0.00  0.00    +0.000 A 
ATOM     11  C   UNL     1     -35.960  46.658 -14.106  0.00  0.00    +0.000 A 
ATOM     12  C   UNL     1     -36.949  46.870 -12.000  0.00  0.00    +0.000 A 
ATOM     13  C   UNL     1     -35.014  45.928 -13.379  0.00  0.00    +0.000 A 
ATOM     14  C   UNL     1     -39.912  48.559 -15.392  0.00  0.00    +0.000 C 
ATOM     15  C   UNL     1     -38.640  48.319 -12.575  0.00  0.00    +0.000 A 
ATOM     16  C   UNL     1     -34.470  46.326 -15.585  0.00  0.00    +0.000 A 
ATOM     17  C   UNL     1     -38.018  47.619 -11.474  0.00  0.00    +0.000 A 
ATOM     18  C   UNL     1     -36.027  46.123 -11.255  0.00  0.00    +0.000 A 
ATOM     19  C   UNL     1     -34.940  45.592 -12.011  0.00  0.00    +0.000 A 
ATOM     20  C   UNL     1     -34.025  45.698 -14.361  0.00  0.00    +0.000 A 
ATOM     21  C   UNL     1     -35.777  45.728  -9.845  0.00  0.00    +0.000 C 
ATOM     22  C   UNL     1     -39.711  49.195 -12.330  0.00  0.00    +0.000 A 
ATOM     23  C   UNL     1     -34.019  44.880 -11.152  0.00  0.00    +0.000 C 
ATOM     24  C   UNL     1     -33.678  46.289 -16.742  0.00  0.00    +0.000 A 
ATOM     25  C   UNL     1     -38.522  47.826 -10.174  0.00  0.00    +0.000 A 
ATOM     26  C   UNL     1     -32.769  45.059 -14.368  0.00  0.00    +0.000 A 
ATOM     27  C   UNL     1     -40.175  49.365 -11.026  0.00  0.00    +0.000 A 
ATOM     28  C   UNL     1     -39.597  48.689  -9.964  0.00  0.00    +0.000 A 
ATOM     29  C   UNL     1     -32.446  45.636 -16.693  0.00  0.00    +0.000 A 
ATOM     30  C   UNL     1     -31.997  45.031 -15.528  0.00  0.00    +0.000 A 
ATOM     31  H   UNL     1     -34.196  44.627  -9.074  0.00  0.00    +0.000 HD
ENDROOT
BRANCH   7  32
ATOM     32  O   UNL     1     -37.077  50.564 -14.560  0.00  0.00    +0.000 OA
ATOM     33  H   UNL     1     -36.096  50.508 -14.555  0.00  0.00    +0.000 HD
ENDBRANCH   7  32
BRANCH   7  35
ATOM     34  O   UNL     1     -38.365  50.212 -17.837  0.00  0.00    +0.000 OA
ATOM     35  C   UNL     1     -38.314  50.564 -16.657  0.00  0.00    +0.000 C 
BRANCH  35  36
ATOM     36  O   UNL     1     -38.929  51.638 -16.077  0.00  0.00    +0.000 OA
ATOM     37  C   UNL     1     -39.181  52.758 -16.882  0.00  0.00    +0.000 C 
ENDBRANCH  35  36
ENDBRANCH   7  35
TORSDOF 3
ENDMDL
