MODEL 1
REMARK VINA RESULT:      -6.4      0.000      0.000
REMARK  Name = 50922675_Encorafenib.pdbqt.pdb
REMARK  8 active torsions:
REMARK  status: ('A' for Active; 'I' for Inactive)
REMARK    1  A    between atoms: N_1  and  C_37
REMARK    2  A    between atoms: C_3  and  C_23
REMARK    3  A    between atoms: C_4  and  C_8
REMARK    4  A    between atoms: C_11  and  N_14
REMARK    5  A    between atoms: N_14  and  S_16
REMARK    6  A    between atoms: N_20  and  C_28
REMARK    7  A    between atoms: C_28  and  C_29
REMARK    8  A    between atoms: C_33  and  O_35
REMARK                            x       y       z     vdW  Elec       q    Type
REMARK                         _______ _______ _______ _____ _____    ______ ____
ROOT
ATOM      1  N   UNL     1     -37.410  43.307 -12.452  0.00  0.00    +0.000 N 
ATOM      2  N   UNL     1     -37.073  44.231 -13.420  0.00  0.00    +0.000 NA
ATOM      3  C   UNL     1     -37.075  45.270 -11.388  0.00  0.00    +0.000 A 
ATOM      4  C   UNL     1     -36.846  45.392 -12.786  0.00  0.00    +0.000 A 
ATOM      5  C   UNL     1     -37.427  43.952 -11.222  0.00  0.00    +0.000 A 
ENDROOT
BRANCH   4   8
ATOM      6 CL   UNL     1     -38.108  50.069 -14.535  0.00  0.00    +0.000 Cl
ATOM      7  F   UNL     1     -34.376  45.607 -14.211  0.00  0.00    +0.000 F 
ATOM      8  C   UNL     1     -36.469  46.561 -13.570  0.00  0.00    +0.000 A 
ATOM      9  C   UNL     1     -35.257  46.619 -14.271  0.00  0.00    +0.000 A 
ATOM     10  C   UNL     1     -37.358  47.632 -13.677  0.00  0.00    +0.000 A 
ATOM     11  C   UNL     1     -34.927  47.735 -15.046  0.00  0.00    +0.000 A 
ATOM     12  C   UNL     1     -37.030  48.741 -14.451  0.00  0.00    +0.000 A 
ATOM     13  C   UNL     1     -35.829  48.791 -15.148  0.00  0.00    +0.000 A 
BRANCH  11  14
ATOM     14  N   UNL     1     -33.727  47.727 -15.835  0.00  0.00    +0.000 N 
ATOM     15  H   UNL     1     -33.313  48.658 -15.947  0.00  0.00    +0.000 HD
BRANCH  14  16
ATOM     16  S   UNL     1     -33.786  47.007 -17.346  0.00  0.00    +0.000 S 
ATOM     17  O   UNL     1     -35.035  46.325 -17.556  0.00  0.00    +0.000 OA
ATOM     18  O   UNL     1     -33.016  47.692 -18.361  0.00  0.00    +0.000 OA
ATOM     19  C   UNL     1     -32.763  45.571 -17.217  0.00  0.00    +0.000 C 
ENDBRANCH  14  16
ENDBRANCH  11  14
ENDBRANCH   4   8
BRANCH   3  23
ATOM     20  N   UNL     1     -34.546  46.982  -7.746  0.00  0.00    +0.000 N 
ATOM     21  N   UNL     1     -35.835  46.148  -9.556  0.00  0.00    +0.000 NA
ATOM     22  N   UNL     1     -36.641  47.888  -8.180  0.00  0.00    +0.000 NA
ATOM     23  C   UNL     1     -36.969  46.205 -10.279  0.00  0.00    +0.000 A 
ATOM     24  C   UNL     1     -35.706  46.998  -8.523  0.00  0.00    +0.000 A 
ATOM     25  C   UNL     1     -37.990  47.084 -10.001  0.00  0.00    +0.000 A 
ATOM     26  C   UNL     1     -37.759  47.907  -8.928  0.00  0.00    +0.000 A 
ATOM     27  H   UNL     1     -34.725  47.505  -6.896  0.00  0.00    +0.000 HD
BRANCH  20  28
ATOM     28  C   UNL     1     -33.834  45.714  -7.649  0.00  0.00    +0.000 C 
BRANCH  28  29
ATOM     29  C   UNL     1     -33.148  44.493  -7.426  0.00  0.00    +0.000 C 
ATOM     30  C   UNL     1     -32.673  43.728  -8.624  0.00  0.00    +0.000 C 
ATOM     31  O   UNL     1     -33.746  45.542  -4.815  0.00  0.00    +0.000 OA
ATOM     32  N   UNL     1     -32.698  44.063  -6.224  0.00  0.00    +0.000 N 
ATOM     33  C   UNL     1     -32.972  44.609  -4.997  0.00  0.00    +0.000 C 
ATOM     34  H   UNL     1     -32.063  43.270  -6.262  0.00  0.00    +0.000 HD
BRANCH  33  35
ATOM     35  O   UNL     1     -32.262  43.943  -4.024  0.00  0.00    +0.000 OA
ATOM     36  C   UNL     1     -32.966  43.101  -3.147  0.00  0.00    +0.000 C 
ENDBRANCH  33  35
ENDBRANCH  28  29
ENDBRANCH  20  28
ENDBRANCH   3  23
BRANCH   1  37
ATOM     37  C   UNL     1     -37.708  41.933 -12.623  0.00  0.00    +0.000 C 
ATOM     38  C   UNL     1     -37.618  40.940 -11.476  0.00  0.00    +0.000 C 
ATOM     39  C   UNL     1     -38.154  41.362 -13.954  0.00  0.00    +0.000 C 
ENDBRANCH   1  37
TORSDOF 8
ENDMDL
MODEL 2
REMARK VINA RESULT:      -6.3     21.856     24.199
REMARK  Name = 50922675_Encorafenib.pdbqt.pdb
REMARK  8 active torsions:
REMARK  status: ('A' for Active; 'I' for Inactive)
REMARK    1  A    between atoms: N_1  and  C_37
REMARK    2  A    between atoms: C_3  and  C_23
REMARK    3  A    between atoms: C_4  and  C_8
REMARK    4  A    between atoms: C_11  and  N_14
REMARK    5  A    between atoms: N_14  and  S_16
REMARK    6  A    between atoms: N_20  and  C_28
REMARK    7  A    between atoms: C_28  and  C_29
REMARK    8  A    between atoms: C_33  and  O_35
REMARK                            x       y       z     vdW  Elec       q    Type
REMARK                         _______ _______ _______ _____ _____    ______ ____
ROOT
ATOM      1  N   UNL     1     -25.624  63.625 -24.695  0.00  0.00    +0.000 N 
ATOM      2  N   UNL     1     -25.651  63.786 -26.066  0.00  0.00    +0.000 NA
ATOM      3  C   UNL     1     -27.458  62.539 -25.440  0.00  0.00    +0.000 A 
ATOM      4  C   UNL     1     -26.755  63.164 -26.507  0.00  0.00    +0.000 A 
ATOM      5  C   UNL     1     -26.716  62.851 -24.326  0.00  0.00    +0.000 A 
ENDROOT
BRANCH   4   8
ATOM      6 CL   UNL     1     -28.842  65.608 -30.532  0.00  0.00    +0.000 Cl
ATOM      7  F   UNL     1     -26.059  61.019 -28.265  0.00  0.00    +0.000 F 
ATOM      8  C   UNL     1     -27.044  63.169 -27.936  0.00  0.00    +0.000 A 
ATOM      9  C   UNL     1     -26.705  62.088 -28.759  0.00  0.00    +0.000 A 
ATOM     10  C   UNL     1     -27.728  64.250 -28.495  0.00  0.00    +0.000 A 
ATOM     11  C   UNL     1     -27.020  62.095 -30.122  0.00  0.00    +0.000 A 
ATOM     12  C   UNL     1     -28.045  64.255 -29.849  0.00  0.00    +0.000 A 
ATOM     13  C   UNL     1     -27.710  63.178 -30.661  0.00  0.00    +0.000 A 
BRANCH  11  14
ATOM     14  N   UNL     1     -26.752  60.933 -30.923  0.00  0.00    +0.000 N 
ATOM     15  H   UNL     1     -26.419  61.162 -31.864  0.00  0.00    +0.000 HD
BRANCH  14  16
ATOM     16  S   UNL     1     -27.965  59.787 -31.073  0.00  0.00    +0.000 S 
ATOM     17  O   UNL     1     -27.585  58.734 -31.975  0.00  0.00    +0.000 OA
ATOM     18  O   UNL     1     -28.787  59.635 -29.893  0.00  0.00    +0.000 OA
ATOM     19  C   UNL     1     -29.189  60.538 -32.105  0.00  0.00    +0.000 C 
ENDBRANCH  14  16
ENDBRANCH  11  14
ENDBRANCH   4   8
BRANCH   3  23
ATOM     20  N   UNL     1     -31.984  62.200 -24.029  0.00  0.00    +0.000 N 
ATOM     21  N   UNL     1     -29.725  62.338 -24.745  0.00  0.00    +0.000 NA
ATOM     22  N   UNL     1     -31.036  60.425 -25.189  0.00  0.00    +0.000 NA
ATOM     23  C   UNL     1     -28.686  61.764 -25.379  0.00  0.00    +0.000 A 
ATOM     24  C   UNL     1     -30.876  61.646 -24.670  0.00  0.00    +0.000 A 
ATOM     25  C   UNL     1     -28.753  60.509 -25.941  0.00  0.00    +0.000 A 
ATOM     26  C   UNL     1     -29.970  59.889 -25.810  0.00  0.00    +0.000 A 
ATOM     27  H   UNL     1     -32.660  61.462 -23.864  0.00  0.00    +0.000 HD
BRANCH  20  28
ATOM     28  C   UNL     1     -31.718  63.155 -22.959  0.00  0.00    +0.000 C 
BRANCH  28  29
ATOM     29  C   UNL     1     -31.569  64.041 -21.862  0.00  0.00    +0.000 C 
ATOM     30  C   UNL     1     -30.270  64.019 -21.116  0.00  0.00    +0.000 C 
ATOM     31  O   UNL     1     -34.183  64.564 -22.941  0.00  0.00    +0.000 OA
ATOM     32  N   UNL     1     -32.415  65.054 -21.560  0.00  0.00    +0.000 N 
ATOM     33  C   UNL     1     -33.642  65.298 -22.121  0.00  0.00    +0.000 C 
ATOM     34  H   UNL     1     -32.069  65.711 -20.867  0.00  0.00    +0.000 HD
BRANCH  33  35
ATOM     35  O   UNL     1     -34.160  66.467 -21.613  0.00  0.00    +0.000 OA
ATOM     36  C   UNL     1     -33.603  66.983 -20.431  0.00  0.00    +0.000 C 
ENDBRANCH  33  35
ENDBRANCH  28  29
ENDBRANCH  20  28
ENDBRANCH   3  23
BRANCH   1  37
ATOM     37  C   UNL     1     -24.670  64.128 -23.776  0.00  0.00    +0.000 C 
ATOM     38  C   UNL     1     -23.227  64.385 -24.172  0.00  0.00    +0.000 C 
ATOM     39  C   UNL     1     -25.028  64.461 -22.342  0.00  0.00    +0.000 C 
ENDBRANCH   1  37
TORSDOF 8
ENDMDL
MODEL 3
REMARK VINA RESULT:      -6.2      3.665      9.267
REMARK  Name = 50922675_Encorafenib.pdbqt.pdb
REMARK  8 active torsions:
REMARK  status: ('A' for Active; 'I' for Inactive)
REMARK    1  A    between atoms: N_1  and  C_37
REMARK    2  A    between atoms: C_3  and  C_23
REMARK    3  A    between atoms: C_4  and  C_8
REMARK    4  A    between atoms: C_11  and  N_14
REMARK    5  A    between atoms: N_14  and  S_16
REMARK    6  A    between atoms: N_20  and  C_28
REMARK    7  A    between atoms: C_28  and  C_29
REMARK    8  A    between atoms: C_33  and  O_35
REMARK                            x       y       z     vdW  Elec       q    Type
REMARK                         _______ _______ _______ _____ _____    ______ ____
ROOT
ATOM      1  N   UNL     1     -38.213  46.093 -10.407  0.00  0.00    +0.000 N 
ATOM      2  N   UNL     1     -37.380  45.953  -9.316  0.00  0.00    +0.000 NA
ATOM      3  C   UNL     1     -36.187  45.498 -11.208  0.00  0.00    +0.000 A 
ATOM      4  C   UNL     1     -36.168  45.627  -9.792  0.00  0.00    +0.000 A 
ATOM      5  C   UNL     1     -37.484  45.796 -11.551  0.00  0.00    +0.000 A 
ENDROOT
BRANCH   4   8
ATOM      6 CL   UNL     1     -31.921  47.475  -7.540  0.00  0.00    +0.000 Cl
ATOM      7  F   UNL     1     -35.798  43.198  -8.329  0.00  0.00    +0.000 F 
ATOM      8  C   UNL     1     -35.075  45.413  -8.852  0.00  0.00    +0.000 A 
ATOM      9  C   UNL     1     -34.917  44.200  -8.170  0.00  0.00    +0.000 A 
ATOM     10  C   UNL     1     -34.124  46.418  -8.664  0.00  0.00    +0.000 A 
ATOM     11  C   UNL     1     -33.842  44.000  -7.297  0.00  0.00    +0.000 A 
ATOM     12  C   UNL     1     -33.054  46.217  -7.799  0.00  0.00    +0.000 A 
ATOM     13  C   UNL     1     -32.898  45.010  -7.128  0.00  0.00    +0.000 A 
BRANCH  11  14
ATOM     14  N   UNL     1     -33.645  42.713  -6.690  0.00  0.00    +0.000 N 
ATOM     15  H   UNL     1     -34.004  41.941  -7.258  0.00  0.00    +0.000 HD
BRANCH  14  16
ATOM     16  S   UNL     1     -34.194  42.494  -5.122  0.00  0.00    +0.000 S 
ATOM     17  O   UNL     1     -35.155  43.500  -4.755  0.00  0.00    +0.000 OA
ATOM     18  O   UNL     1     -34.202  41.116  -4.683  0.00  0.00    +0.000 OA
ATOM     19  C   UNL     1     -32.875  43.053  -4.086  0.00  0.00    +0.000 C 
ENDBRANCH  14  16
ENDBRANCH  11  14
ENDBRANCH   4   8
BRANCH   3  23
ATOM     20  N   UNL     1     -33.558  46.852 -14.929  0.00  0.00    +0.000 N 
ATOM     21  N   UNL     1     -34.857  46.145 -13.073  0.00  0.00    +0.000 NA
ATOM     22  N   UNL     1     -33.277  44.709 -14.078  0.00  0.00    +0.000 NA
ATOM     23  C   UNL     1     -35.164  45.177 -12.190  0.00  0.00    +0.000 A 
ATOM     24  C   UNL     1     -33.916  45.879 -13.995  0.00  0.00    +0.000 A 
ATOM     25  C   UNL     1     -34.564  43.938 -12.198  0.00  0.00    +0.000 A 
ATOM     26  C   UNL     1     -33.618  43.769 -13.177  0.00  0.00    +0.000 A 
ATOM     27  H   UNL     1     -33.028  46.404 -15.669  0.00  0.00    +0.000 HD
BRANCH  20  28
ATOM     28  C   UNL     1     -34.581  47.825 -15.294  0.00  0.00    +0.000 C 
BRANCH  28  29
ATOM     29  C   UNL     1     -35.663  48.689 -15.600  0.00  0.00    +0.000 C 
ATOM     30  C   UNL     1     -36.725  48.875 -14.559  0.00  0.00    +0.000 C 
ATOM     31  O   UNL     1     -33.926  48.770 -17.891  0.00  0.00    +0.000 OA
ATOM     32  N   UNL     1     -35.714  49.524 -16.664  0.00  0.00    +0.000 N 
ATOM     33  C   UNL     1     -34.847  49.562 -17.724  0.00  0.00    +0.000 C 
ATOM     34  H   UNL     1     -36.463  50.210 -16.635  0.00  0.00    +0.000 HD
BRANCH  33  35
ATOM     35  O   UNL     1     -35.181  50.604 -18.559  0.00  0.00    +0.000 OA
ATOM     36  C   UNL     1     -36.051  50.344 -19.632  0.00  0.00    +0.000 C 
ENDBRANCH  33  35
ENDBRANCH  28  29
ENDBRANCH  20  28
ENDBRANCH   3  23
BRANCH   1  37
ATOM     37  C   UNL     1     -39.582  46.459 -10.420  0.00  0.00    +0.000 C 
ATOM     38  C   UNL     1     -40.673  45.483 -10.823  0.00  0.00    +0.000 C 
ATOM     39  C   UNL     1     -40.051  47.842 -10.015  0.00  0.00    +0.000 C 
ENDBRANCH   1  37
TORSDOF 8
ENDMDL
MODEL 4
REMARK VINA RESULT:      -5.9      4.754      7.343
REMARK  Name = 50922675_Encorafenib.pdbqt.pdb
REMARK  8 active torsions:
REMARK  status: ('A' for Active; 'I' for Inactive)
REMARK    1  A    between atoms: N_1  and  C_37
REMARK    2  A    between atoms: C_3  and  C_23
REMARK    3  A    between atoms: C_4  and  C_8
REMARK    4  A    between atoms: C_11  and  N_14
REMARK    5  A    between atoms: N_14  and  S_16
REMARK    6  A    between atoms: N_20  and  C_28
REMARK    7  A    between atoms: C_28  and  C_29
REMARK    8  A    between atoms: C_33  and  O_35
REMARK                            x       y       z     vdW  Elec       q    Type
REMARK                         _______ _______ _______ _____ _____    ______ ____
ROOT
ATOM      1  N   UNL     1     -34.417  45.361 -11.553  0.00  0.00    +0.000 N 
ATOM      2  N   UNL     1     -35.645  45.776 -11.079  0.00  0.00    +0.000 NA
ATOM      3  C   UNL     1     -34.276  45.361  -9.300  0.00  0.00    +0.000 A 
ATOM      4  C   UNL     1     -35.554  45.803  -9.740  0.00  0.00    +0.000 A 
ATOM      5  C   UNL     1     -33.597  45.094 -10.465  0.00  0.00    +0.000 A 
ENDROOT
BRANCH   4   8
ATOM      6 CL   UNL     1     -38.638  49.613  -8.158  0.00  0.00    +0.000 Cl
ATOM      7  F   UNL     1     -37.129  43.985  -8.193  0.00  0.00    +0.000 F 
ATOM      8  C   UNL     1     -36.718  46.208  -8.962  0.00  0.00    +0.000 A 
ATOM      9  C   UNL     1     -37.451  45.289  -8.201  0.00  0.00    +0.000 A 
ATOM     10  C   UNL     1     -37.084  47.555  -8.924  0.00  0.00    +0.000 A 
ATOM     11  C   UNL     1     -38.545  45.702  -7.433  0.00  0.00    +0.000 A 
ATOM     12  C   UNL     1     -38.169  47.965  -8.158  0.00  0.00    +0.000 A 
ATOM     13  C   UNL     1     -38.891  47.051  -7.400  0.00  0.00    +0.000 A 
BRANCH  11  14
ATOM     14  N   UNL     1     -39.217  44.760  -6.582  0.00  0.00    +0.000 N 
ATOM     15  H   UNL     1     -40.214  44.962  -6.466  0.00  0.00    +0.000 HD
BRANCH  14  16
ATOM     16  S   UNL     1     -38.571  44.476  -5.062  0.00  0.00    +0.000 S 
ATOM     17  O   UNL     1     -38.911  43.163  -4.583  0.00  0.00    +0.000 OA
ATOM     18  O   UNL     1     -37.333  45.176  -4.803  0.00  0.00    +0.000 OA
ATOM     19  C   UNL     1     -39.588  45.394  -3.947  0.00  0.00    +0.000 C 
ENDBRANCH  14  16
ENDBRANCH  11  14
ENDBRANCH   4   8
BRANCH   3  23
ATOM     20  N   UNL     1     -33.215  42.558  -5.611  0.00  0.00    +0.000 N 
ATOM     21  N   UNL     1     -33.732  43.984  -7.436  0.00  0.00    +0.000 NA
ATOM     22  N   UNL     1     -32.597  44.796  -5.532  0.00  0.00    +0.000 NA
ATOM     23  C   UNL     1     -33.675  45.212  -7.984  0.00  0.00    +0.000 A 
ATOM     24  C   UNL     1     -33.187  43.813  -6.219  0.00  0.00    +0.000 A 
ATOM     25  C   UNL     1     -33.093  46.287  -7.353  0.00  0.00    +0.000 A 
ATOM     26  C   UNL     1     -32.566  46.007  -6.117  0.00  0.00    +0.000 A 
ATOM     27  H   UNL     1     -32.982  42.673  -4.630  0.00  0.00    +0.000 HD
BRANCH  20  28
ATOM     28  C   UNL     1     -34.321  41.676  -5.966  0.00  0.00    +0.000 C 
BRANCH  28  29
ATOM     29  C   UNL     1     -35.308  40.738  -6.361  0.00  0.00    +0.000 C 
ATOM     30  C   UNL     1     -36.502  40.564  -5.472  0.00  0.00    +0.000 C 
ATOM     31  O   UNL     1     -33.322  40.705  -8.441  0.00  0.00    +0.000 OA
ATOM     32  N   UNL     1     -35.371  40.139  -7.573  0.00  0.00    +0.000 N 
ATOM     33  C   UNL     1     -34.421  40.173  -8.560  0.00  0.00    +0.000 C 
ATOM     34  H   UNL     1     -36.239  39.646  -7.764  0.00  0.00    +0.000 HD
BRANCH  33  35
ATOM     35  O   UNL     1     -34.887  39.516  -9.676  0.00  0.00    +0.000 OA
ATOM     36  C   UNL     1     -33.957  39.122 -10.652  0.00  0.00    +0.000 C 
ENDBRANCH  33  35
ENDBRANCH  28  29
ENDBRANCH  20  28
ENDBRANCH   3  23
BRANCH   1  37
ATOM     37  C   UNL     1     -34.009  45.205 -12.901  0.00  0.00    +0.000 C 
ATOM     38  C   UNL     1     -34.333  46.239 -13.966  0.00  0.00    +0.000 C 
ATOM     39  C   UNL     1     -33.208  44.007 -13.369  0.00  0.00    +0.000 C 
ENDBRANCH   1  37
TORSDOF 8
ENDMDL
MODEL 5
REMARK VINA RESULT:      -5.8      3.824      9.240
REMARK  Name = 50922675_Encorafenib.pdbqt.pdb
REMARK  8 active torsions:
REMARK  status: ('A' for Active; 'I' for Inactive)
REMARK    1  A    between atoms: N_1  and  C_37
REMARK    2  A    between atoms: C_3  and  C_23
REMARK    3  A    between atoms: C_4  and  C_8
REMARK    4  A    between atoms: C_11  and  N_14
REMARK    5  A    between atoms: N_14  and  S_16
REMARK    6  A    between atoms: N_20  and  C_28
REMARK    7  A    between atoms: C_28  and  C_29
REMARK    8  A    between atoms: C_33  and  O_35
REMARK                            x       y       z     vdW  Elec       q    Type
REMARK                         _______ _______ _______ _____ _____    ______ ____
ROOT
ATOM      1  N   UNL     1     -38.104  46.944 -10.711  0.00  0.00    +0.000 N 
ATOM      2  N   UNL     1     -37.299  46.339  -9.768  0.00  0.00    +0.000 NA
ATOM      3  C   UNL     1     -36.196  46.357 -11.767  0.00  0.00    +0.000 A 
ATOM      4  C   UNL     1     -36.154  46.014 -10.387  0.00  0.00    +0.000 A 
ATOM      5  C   UNL     1     -37.433  46.934 -11.927  0.00  0.00    +0.000 A 
ENDROOT
BRANCH   4   8
ATOM      6 CL   UNL     1     -32.361  46.403  -6.924  0.00  0.00    +0.000 Cl
ATOM      7  F   UNL     1     -35.539  43.233 -10.638  0.00  0.00    +0.000 F 
ATOM      8  C   UNL     1     -35.103  45.350  -9.625  0.00  0.00    +0.000 A 
ATOM      9  C   UNL     1     -34.820  43.989  -9.792  0.00  0.00    +0.000 A 
ATOM     10  C   UNL     1     -34.317  46.096  -8.745  0.00  0.00    +0.000 A 
ATOM     11  C   UNL     1     -33.786  43.376  -9.077  0.00  0.00    +0.000 A 
ATOM     12  C   UNL     1     -33.287  45.487  -8.036  0.00  0.00    +0.000 A 
ATOM     13  C   UNL     1     -33.006  44.137  -8.210  0.00  0.00    +0.000 A 
BRANCH  11  14
ATOM     14  N   UNL     1     -33.449  42.005  -9.341  0.00  0.00    +0.000 N 
ATOM     15  H   UNL     1     -33.419  41.784 -10.341  0.00  0.00    +0.000 HD
BRANCH  14  16
ATOM     16  S   UNL     1     -34.349  40.815  -8.580  0.00  0.00    +0.000 S 
ATOM     17  O   UNL     1     -34.843  41.263  -7.305  0.00  0.00    +0.000 OA
ATOM     18  O   UNL     1     -35.034  39.918  -9.485  0.00  0.00    +0.000 OA
ATOM     19  C   UNL     1     -33.163  39.656  -7.968  0.00  0.00    +0.000 C 
ENDBRANCH  14  16
ENDBRANCH  11  14
ENDBRANCH   4   8
BRANCH   3  23
ATOM     20  N   UNL     1     -34.337  48.108 -15.775  0.00  0.00    +0.000 N 
ATOM     21  N   UNL     1     -35.246  47.206 -13.776  0.00  0.00    +0.000 NA
ATOM     22  N   UNL     1     -33.505  46.109 -14.933  0.00  0.00    +0.000 NA
ATOM     23  C   UNL     1     -35.238  46.228 -12.853  0.00  0.00    +0.000 A 
ATOM     24  C   UNL     1     -34.372  47.116 -14.794  0.00  0.00    +0.000 A 
ATOM     25  C   UNL     1     -34.386  45.149 -12.912  0.00  0.00    +0.000 A 
ATOM     26  C   UNL     1     -33.535  45.152 -13.988  0.00  0.00    +0.000 A 
ATOM     27  H   UNL     1     -33.803  47.759 -16.563  0.00  0.00    +0.000 HD
BRANCH  20  28
ATOM     28  C   UNL     1     -35.580  48.824 -16.035  0.00  0.00    +0.000 C 
BRANCH  28  29
ATOM     29  C   UNL     1     -36.762  49.509 -16.415  0.00  0.00    +0.000 C 
ATOM     30  C   UNL     1     -37.852  49.642 -15.395  0.00  0.00    +0.000 C 
ATOM     31  O   UNL     1     -35.023  49.624 -18.702  0.00  0.00    +0.000 OA
ATOM     32  N   UNL     1     -36.909  50.237 -17.546  0.00  0.00    +0.000 N 
ATOM     33  C   UNL     1     -36.042  50.300 -18.605  0.00  0.00    +0.000 C 
ATOM     34  H   UNL     1     -37.742  50.819 -17.577  0.00  0.00    +0.000 HD
BRANCH  33  35
ATOM     35  O   UNL     1     -36.499  51.214 -19.526  0.00  0.00    +0.000 OA
ATOM     36  C   UNL     1     -37.776  51.769 -19.336  0.00  0.00    +0.000 C 
ENDBRANCH  33  35
ENDBRANCH  28  29
ENDBRANCH  20  28
ENDBRANCH   3  23
BRANCH   1  37
ATOM     37  C   UNL     1     -39.400  47.489 -10.533  0.00  0.00    +0.000 C 
ATOM     38  C   UNL     1     -39.721  48.934 -10.875  0.00  0.00    +0.000 C 
ATOM     39  C   UNL     1     -40.557  46.664 -10.007  0.00  0.00    +0.000 C 
ENDBRANCH   1  37
TORSDOF 8
ENDMDL
MODEL 6
REMARK VINA RESULT:      -5.8     21.624     23.739
REMARK  Name = 50922675_Encorafenib.pdbqt.pdb
REMARK  8 active torsions:
REMARK  status: ('A' for Active; 'I' for Inactive)
REMARK    1  A    between atoms: N_1  and  C_37
REMARK    2  A    between atoms: C_3  and  C_23
REMARK    3  A    between atoms: C_4  and  C_8
REMARK    4  A    between atoms: C_11  and  N_14
REMARK    5  A    between atoms: N_14  and  S_16
REMARK    6  A    between atoms: N_20  and  C_28
REMARK    7  A    between atoms: C_28  and  C_29
REMARK    8  A    between atoms: C_33  and  O_35
REMARK                            x       y       z     vdW  Elec       q    Type
REMARK                         _______ _______ _______ _____ _____    ______ ____
ROOT
ATOM      1  N   UNL     1     -33.873  61.914 -25.557  0.00  0.00    +0.000 N 
ATOM      2  N   UNL     1     -33.830  63.011 -24.720  0.00  0.00    +0.000 NA
ATOM      3  C   UNL     1     -31.693  62.327 -25.138  0.00  0.00    +0.000 A 
ATOM      4  C   UNL     1     -32.534  63.274 -24.492  0.00  0.00    +0.000 A 
ATOM      5  C   UNL     1     -32.570  61.494 -25.791  0.00  0.00    +0.000 A 
ENDROOT
BRANCH   4   8
ATOM      6 CL   UNL     1     -31.414  68.284 -24.077  0.00  0.00    +0.000 Cl
ATOM      7  F   UNL     1     -32.152  63.030 -21.669  0.00  0.00    +0.000 F 
ATOM      8  C   UNL     1     -32.183  64.395 -23.628  0.00  0.00    +0.000 A 
ATOM      9  C   UNL     1     -31.984  64.229 -22.252  0.00  0.00    +0.000 A 
ATOM     10  C   UNL     1     -31.982  65.657 -24.188  0.00  0.00    +0.000 A 
ATOM     11  C   UNL     1     -31.614  65.309 -21.443  0.00  0.00    +0.000 A 
ATOM     12  C   UNL     1     -31.611  66.730 -23.385  0.00  0.00    +0.000 A 
ATOM     13  C   UNL     1     -31.410  66.560 -22.020  0.00  0.00    +0.000 A 
BRANCH  11  14
ATOM     14  N   UNL     1     -31.318  65.093 -20.055  0.00  0.00    +0.000 N 
ATOM     15  H   UNL     1     -31.500  65.915 -19.472  0.00  0.00    +0.000 HD
BRANCH  14  16
ATOM     16  S   UNL     1     -29.798  64.510 -19.658  0.00  0.00    +0.000 S 
ATOM     17  O   UNL     1     -29.777  63.951 -18.333  0.00  0.00    +0.000 OA
ATOM     18  O   UNL     1     -29.031  64.035 -20.789  0.00  0.00    +0.000 OA
ATOM     19  C   UNL     1     -28.826  65.946 -19.313  0.00  0.00    +0.000 C 
ENDBRANCH  14  16
ENDBRANCH  11  14
ENDBRANCH   4   8
BRANCH   3  23
ATOM     20  N   UNL     1     -27.840  61.391 -27.761  0.00  0.00    +0.000 N 
ATOM     21  N   UNL     1     -29.744  61.860 -26.423  0.00  0.00    +0.000 NA
ATOM     22  N   UNL     1     -27.573  61.844 -25.498  0.00  0.00    +0.000 NA
ATOM     23  C   UNL     1     -30.249  62.170 -25.215  0.00  0.00    +0.000 A 
ATOM     24  C   UNL     1     -28.413  61.707 -26.528  0.00  0.00    +0.000 A 
ATOM     25  C   UNL     1     -29.466  62.327 -24.095  0.00  0.00    +0.000 A 
ATOM     26  C   UNL     1     -28.122  62.150 -24.308  0.00  0.00    +0.000 A 
ATOM     27  H   UNL     1     -26.887  61.086 -27.601  0.00  0.00    +0.000 HD
BRANCH  20  28
ATOM     28  C   UNL     1     -28.665  60.640 -28.699  0.00  0.00    +0.000 C 
BRANCH  28  29
ATOM     29  C   UNL     1     -29.363  59.839 -29.638  0.00  0.00    +0.000 C 
ATOM     30  C   UNL     1     -30.833  59.637 -29.431  0.00  0.00    +0.000 C 
ATOM     31  O   UNL     1     -26.641  59.936 -30.562  0.00  0.00    +0.000 OA
ATOM     32  N   UNL     1     -28.861  59.414 -30.822  0.00  0.00    +0.000 N 
ATOM     33  C   UNL     1     -27.562  59.509 -31.249  0.00  0.00    +0.000 C 
ATOM     34  H   UNL     1     -29.545  59.017 -31.460  0.00  0.00    +0.000 HD
BRANCH  33  35
ATOM     35  O   UNL     1     -27.463  59.044 -32.539  0.00  0.00    +0.000 OA
ATOM     36  C   UNL     1     -28.419  58.117 -32.988  0.00  0.00    +0.000 C 
ENDBRANCH  33  35
ENDBRANCH  28  29
ENDBRANCH  20  28
ENDBRANCH   3  23
BRANCH   1  37
ATOM     37  C   UNL     1     -35.014  61.277 -26.104  0.00  0.00    +0.000 C 
ATOM     38  C   UNL     1     -36.426  61.689 -25.723  0.00  0.00    +0.000 C 
ATOM     39  C   UNL     1     -34.906  60.157 -27.118  0.00  0.00    +0.000 C 
ENDBRANCH   1  37
TORSDOF 8
ENDMDL
MODEL 7
REMARK VINA RESULT:      -5.7      4.683      7.776
REMARK  Name = 50922675_Encorafenib.pdbqt.pdb
REMARK  8 active torsions:
REMARK  status: ('A' for Active; 'I' for Inactive)
REMARK    1  A    between atoms: N_1  and  C_37
REMARK    2  A    between atoms: C_3  and  C_23
REMARK    3  A    between atoms: C_4  and  C_8
REMARK    4  A    between atoms: C_11  and  N_14
REMARK    5  A    between atoms: N_14  and  S_16
REMARK    6  A    between atoms: N_20  and  C_28
REMARK    7  A    between atoms: C_28  and  C_29
REMARK    8  A    between atoms: C_33  and  O_35
REMARK                            x       y       z     vdW  Elec       q    Type
REMARK                         _______ _______ _______ _____ _____    ______ ____
ROOT
ATOM      1  N   UNL     1     -33.475  44.714 -13.797  0.00  0.00    +0.000 N 
ATOM      2  N   UNL     1     -33.627  45.452 -12.641  0.00  0.00    +0.000 NA
ATOM      3  C   UNL     1     -34.649  43.431 -12.357  0.00  0.00    +0.000 A 
ATOM      4  C   UNL     1     -34.300  44.680 -11.774  0.00  0.00    +0.000 A 
ATOM      5  C   UNL     1     -34.115  43.494 -13.622  0.00  0.00    +0.000 A 
ENDROOT
BRANCH   4   8
ATOM      6 CL   UNL     1     -37.298  47.697  -8.869  0.00  0.00    +0.000 Cl
ATOM      7  F   UNL     1     -32.786  44.054  -9.430  0.00  0.00    +0.000 F 
ATOM      8  C   UNL     1     -34.609  45.209 -10.451  0.00  0.00    +0.000 A 
ATOM      9  C   UNL     1     -33.829  44.894  -9.331  0.00  0.00    +0.000 A 
ATOM     10  C   UNL     1     -35.673  46.099 -10.299  0.00  0.00    +0.000 A 
ATOM     11  C   UNL     1     -34.120  45.438  -8.076  0.00  0.00    +0.000 A 
ATOM     12  C   UNL     1     -35.960  46.643  -9.052  0.00  0.00    +0.000 A 
ATOM     13  C   UNL     1     -35.181  46.332  -7.944  0.00  0.00    +0.000 A 
BRANCH  11  14
ATOM     14  N   UNL     1     -33.246  45.180  -6.966  0.00  0.00    +0.000 N 
ATOM     15  H   UNL     1     -32.512  44.499  -7.181  0.00  0.00    +0.000 HD
BRANCH  14  16
ATOM     16  S   UNL     1     -33.941  44.741  -5.506  0.00  0.00    +0.000 S 
ATOM     17  O   UNL     1     -34.291  45.894  -4.721  0.00  0.00    +0.000 OA
ATOM     18  O   UNL     1     -34.671  43.493  -5.548  0.00  0.00    +0.000 OA
ATOM     19  C   UNL     1     -32.598  44.182  -4.502  0.00  0.00    +0.000 C 
ENDBRANCH  14  16
ENDBRANCH  11  14
ENDBRANCH   4   8
BRANCH   3  23
ATOM     20  N   UNL     1     -34.508  38.901 -10.924  0.00  0.00    +0.000 N 
ATOM     21  N   UNL     1     -34.612  41.163 -11.636  0.00  0.00    +0.000 NA
ATOM     22  N   UNL     1     -36.548  40.014 -10.925  0.00  0.00    +0.000 NA
ATOM     23  C   UNL     1     -35.355  42.263 -11.856  0.00  0.00    +0.000 A 
ATOM     24  C   UNL     1     -35.236  40.065 -11.173  0.00  0.00    +0.000 A 
ATOM     25  C   UNL     1     -36.713  42.306 -11.634  0.00  0.00    +0.000 A 
ATOM     26  C   UNL     1     -37.252  41.135 -11.162  0.00  0.00    +0.000 A 
ATOM     27  H   UNL     1     -35.162  38.133 -10.816  0.00  0.00    +0.000 HD
BRANCH  20  28
ATOM     28  C   UNL     1     -33.308  38.689 -11.723  0.00  0.00    +0.000 C 
BRANCH  28  29
ATOM     29  C   UNL     1     -32.173  38.357 -12.506  0.00  0.00    +0.000 C 
ATOM     30  C   UNL     1     -32.288  38.484 -13.995  0.00  0.00    +0.000 C 
ATOM     31  O   UNL     1     -31.366  38.002  -9.768  0.00  0.00    +0.000 OA
ATOM     32  N   UNL     1     -30.929  38.138 -12.018  0.00  0.00    +0.000 N 
ATOM     33  C   UNL     1     -30.570  38.011 -10.701  0.00  0.00    +0.000 C 
ATOM     34  H   UNL     1     -30.193  38.103 -12.718  0.00  0.00    +0.000 HD
BRANCH  33  35
ATOM     35  O   UNL     1     -29.204  37.883 -10.603  0.00  0.00    +0.000 OA
ATOM     36  C   UNL     1     -28.526  38.688  -9.672  0.00  0.00    +0.000 C 
ENDBRANCH  33  35
ENDBRANCH  28  29
ENDBRANCH  20  28
ENDBRANCH   3  23
BRANCH   1  37
ATOM     37  C   UNL     1     -32.806  45.086 -14.989  0.00  0.00    +0.000 C 
ATOM     38  C   UNL     1     -33.282  46.242 -15.853  0.00  0.00    +0.000 C 
ATOM     39  C   UNL     1     -31.561  44.371 -15.474  0.00  0.00    +0.000 C 
ENDBRANCH   1  37
TORSDOF 8
ENDMDL
MODEL 8
REMARK VINA RESULT:      -5.6      3.075      8.320
REMARK  Name = 50922675_Encorafenib.pdbqt.pdb
REMARK  8 active torsions:
REMARK  status: ('A' for Active; 'I' for Inactive)
REMARK    1  A    between atoms: N_1  and  C_37
REMARK    2  A    between atoms: C_3  and  C_23
REMARK    3  A    between atoms: C_4  and  C_8
REMARK    4  A    between atoms: C_11  and  N_14
REMARK    5  A    between atoms: N_14  and  S_16
REMARK    6  A    between atoms: N_20  and  C_28
REMARK    7  A    between atoms: C_28  and  C_29
REMARK    8  A    between atoms: C_33  and  O_35
REMARK                            x       y       z     vdW  Elec       q    Type
REMARK                         _______ _______ _______ _____ _____    ______ ____
ROOT
ATOM      1  N   UNL     1     -38.642  43.227 -12.663  0.00  0.00    +0.000 N 
ATOM      2  N   UNL     1     -38.383  43.930 -11.503  0.00  0.00    +0.000 NA
ATOM      3  C   UNL     1     -36.525  43.995 -12.827  0.00  0.00    +0.000 A 
ATOM      4  C   UNL     1     -37.135  44.411 -11.612  0.00  0.00    +0.000 A 
ATOM      5  C   UNL     1     -37.500  43.257 -13.453  0.00  0.00    +0.000 A 
ENDROOT
BRANCH   4   8
ATOM      6 CL   UNL     1     -37.601  48.511  -8.530  0.00  0.00    +0.000 Cl
ATOM      7  F   UNL     1     -34.670  43.797 -10.300  0.00  0.00    +0.000 F 
ATOM      8  C   UNL     1     -36.587  45.203 -10.518  0.00  0.00    +0.000 A 
ATOM      9  C   UNL     1     -35.365  44.880  -9.915  0.00  0.00    +0.000 A 
ATOM     10  C   UNL     1     -37.264  46.348 -10.092  0.00  0.00    +0.000 A 
ATOM     11  C   UNL     1     -34.837  45.672  -8.889  0.00  0.00    +0.000 A 
ATOM     12  C   UNL     1     -36.737  47.136  -9.075  0.00  0.00    +0.000 A 
ATOM     13  C   UNL     1     -35.522  46.815  -8.483  0.00  0.00    +0.000 A 
BRANCH  11  14
ATOM     14  N   UNL     1     -33.536  45.378  -8.358  0.00  0.00    +0.000 N 
ATOM     15  H   UNL     1     -32.874  45.054  -9.070  0.00  0.00    +0.000 HD
BRANCH  14  16
ATOM     16  S   UNL     1     -33.439  44.331  -7.053  0.00  0.00    +0.000 S 
ATOM     17  O   UNL     1     -33.896  43.013  -7.401  0.00  0.00    +0.000 OA
ATOM     18  O   UNL     1     -32.376  44.640  -6.122  0.00  0.00    +0.000 OA
ATOM     19  C   UNL     1     -34.792  44.770  -6.004  0.00  0.00    +0.000 C 
ENDBRANCH  14  16
ENDBRANCH  11  14
ENDBRANCH   4   8
BRANCH   3  23
ATOM     20  N   UNL     1     -33.471  47.052 -14.807  0.00  0.00    +0.000 N 
ATOM     21  N   UNL     1     -34.974  45.500 -13.824  0.00  0.00    +0.000 NA
ATOM     22  N   UNL     1     -32.825  44.836 -14.541  0.00  0.00    +0.000 NA
ATOM     23  C   UNL     1     -35.219  44.241 -13.418  0.00  0.00    +0.000 A 
ATOM     24  C   UNL     1     -33.776  45.760 -14.376  0.00  0.00    +0.000 A 
ATOM     25  C   UNL     1     -34.305  43.220 -13.550  0.00  0.00    +0.000 A 
ATOM     26  C   UNL     1     -33.116  43.590 -14.124  0.00  0.00    +0.000 A 
ATOM     27  H   UNL     1     -32.647  47.005 -15.396  0.00  0.00    +0.000 HD
BRANCH  20  28
ATOM     28  C   UNL     1     -34.587  47.887 -15.233  0.00  0.00    +0.000 C 
BRANCH  28  29
ATOM     29  C   UNL     1     -35.751  48.617 -15.584  0.00  0.00    +0.000 C 
ATOM     30  C   UNL     1     -36.887  48.636 -14.607  0.00  0.00    +0.000 C 
ATOM     31  O   UNL     1     -33.909  48.988 -17.762  0.00  0.00    +0.000 OA
ATOM     32  N   UNL     1     -35.847  49.472 -16.629  0.00  0.00    +0.000 N 
ATOM     33  C   UNL     1     -34.931  49.653 -17.633  0.00  0.00    +0.000 C 
ATOM     34  H   UNL     1     -36.677  50.057 -16.630  0.00  0.00    +0.000 HD
BRANCH  33  35
ATOM     35  O   UNL     1     -35.346  50.670 -18.462  0.00  0.00    +0.000 OA
ATOM     36  C   UNL     1     -36.508  50.473 -19.227  0.00  0.00    +0.000 C 
ENDBRANCH  33  35
ENDBRANCH  28  29
ENDBRANCH  20  28
ENDBRANCH   3  23
BRANCH   1  37
ATOM     37  C   UNL     1     -39.837  42.561 -13.032  0.00  0.00    +0.000 C 
ATOM     38  C   UNL     1     -39.868  41.512 -14.130  0.00  0.00    +0.000 C 
ATOM     39  C   UNL     1     -41.160  42.837 -12.347  0.00  0.00    +0.000 C 
ENDBRANCH   1  37
TORSDOF 8
ENDMDL
MODEL 9
REMARK VINA RESULT:      -5.6      3.436      4.834
REMARK  Name = 50922675_Encorafenib.pdbqt.pdb
REMARK  8 active torsions:
REMARK  status: ('A' for Active; 'I' for Inactive)
REMARK    1  A    between atoms: N_1  and  C_37
REMARK    2  A    between atoms: C_3  and  C_23
REMARK    3  A    between atoms: C_4  and  C_8
REMARK    4  A    between atoms: C_11  and  N_14
REMARK    5  A    between atoms: N_14  and  S_16
REMARK    6  A    between atoms: N_20  and  C_28
REMARK    7  A    between atoms: C_28  and  C_29
REMARK    8  A    between atoms: C_33  and  O_35
REMARK                            x       y       z     vdW  Elec       q    Type
REMARK                         _______ _______ _______ _____ _____    ______ ____
ROOT
ATOM      1  N   UNL     1     -38.371  44.474  -8.331  0.00  0.00    +0.000 N 
ATOM      2  N   UNL     1     -37.874  44.156  -9.578  0.00  0.00    +0.000 NA
ATOM      3  C   UNL     1     -36.152  44.890  -8.271  0.00  0.00    +0.000 A 
ATOM      4  C   UNL     1     -36.551  44.376  -9.536  0.00  0.00    +0.000 A 
ATOM      5  C   UNL     1     -37.321  44.936  -7.548  0.00  0.00    +0.000 A 
ENDROOT
BRANCH   4   8
ATOM      6 CL   UNL     1     -34.301  40.933 -12.636  0.00  0.00    +0.000 Cl
ATOM      7  F   UNL     1     -35.517  46.450 -11.212  0.00  0.00    +0.000 F 
ATOM      8  C   UNL     1     -35.755  44.124 -10.731  0.00  0.00    +0.000 A 
ATOM      9  C   UNL     1     -35.249  45.169 -11.514  0.00  0.00    +0.000 A 
ATOM     10  C   UNL     1     -35.435  42.810 -11.078  0.00  0.00    +0.000 A 
ATOM     11  C   UNL     1     -34.459  44.909 -12.638  0.00  0.00    +0.000 A 
ATOM     12  C   UNL     1     -34.646  42.551 -12.193  0.00  0.00    +0.000 A 
ATOM     13  C   UNL     1     -34.143  43.592 -12.965  0.00  0.00    +0.000 A 
BRANCH  11  14
ATOM     14  N   UNL     1     -33.869  45.998 -13.364  0.00  0.00    +0.000 N 
ATOM     15  H   UNL     1     -33.436  46.699 -12.757  0.00  0.00    +0.000 HD
BRANCH  14  16
ATOM     16  S   UNL     1     -34.824  46.805 -14.480  0.00  0.00    +0.000 S 
ATOM     17  O   UNL     1     -35.801  45.929 -15.069  0.00  0.00    +0.000 OA
ATOM     18  O   UNL     1     -35.011  48.210 -14.194  0.00  0.00    +0.000 OA
ATOM     19  C   UNL     1     -33.804  47.000 -15.910  0.00  0.00    +0.000 C 
ENDBRANCH  14  16
ENDBRANCH  11  14
ENDBRANCH   4   8
BRANCH   3  23
ATOM     20  N   UNL     1     -32.438  43.838  -5.498  0.00  0.00    +0.000 N 
ATOM     21  N   UNL     1     -34.279  44.394  -6.889  0.00  0.00    +0.000 NA
ATOM     22  N   UNL     1     -32.465  45.878  -6.610  0.00  0.00    +0.000 NA
ATOM     23  C   UNL     1     -34.865  45.278  -7.717  0.00  0.00    +0.000 A 
ATOM     24  C   UNL     1     -33.089  44.723  -6.358  0.00  0.00    +0.000 A 
ATOM     25  C   UNL     1     -34.303  46.494  -8.033  0.00  0.00    +0.000 A 
ATOM     26  C   UNL     1     -33.089  46.732  -7.440  0.00  0.00    +0.000 A 
ATOM     27  H   UNL     1     -31.697  44.341  -5.023  0.00  0.00    +0.000 HD
BRANCH  20  28
ATOM     28  C   UNL     1     -33.278  42.934  -4.721  0.00  0.00    +0.000 C 
BRANCH  28  29
ATOM     29  C   UNL     1     -34.028  41.958  -4.018  0.00  0.00    +0.000 C 
ATOM     30  C   UNL     1     -34.246  42.166  -2.550  0.00  0.00    +0.000 C 
ATOM     31  O   UNL     1     -33.995  41.094  -6.761  0.00  0.00    +0.000 OA
ATOM     32  N   UNL     1     -34.745  40.965  -4.595  0.00  0.00    +0.000 N 
ATOM     33  C   UNL     1     -34.735  40.601  -5.916  0.00  0.00    +0.000 C 
ATOM     34  H   UNL     1     -35.377  40.472  -3.970  0.00  0.00    +0.000 HD
BRANCH  33  35
ATOM     35  O   UNL     1     -35.660  39.605  -6.130  0.00  0.00    +0.000 OA
ATOM     36  C   UNL     1     -36.706  39.458  -5.203  0.00  0.00    +0.000 C 
ENDBRANCH  33  35
ENDBRANCH  28  29
ENDBRANCH  20  28
ENDBRANCH   3  23
BRANCH   1  37
ATOM     37  C   UNL     1     -39.709  44.378  -7.874  0.00  0.00    +0.000 C 
ATOM     38  C   UNL     1     -40.046  43.964  -6.452  0.00  0.00    +0.000 C 
ATOM     39  C   UNL     1     -40.891  44.699  -8.764  0.00  0.00    +0.000 C 
ENDBRANCH   1  37
TORSDOF 8
ENDMDL
