MODEL 1
REMARK VINA RESULT:      -6.5      0.000      0.000
REMARK  Name = 5109870_Ethoxyphenyl.pdbqt.pdb
REMARK  6 active torsions:
REMARK  status: ('A' for Active; 'I' for Inactive)
REMARK    1  A    between atoms: N_2  and  C_22
REMARK    2  A    between atoms: C_3  and  O_11
REMARK    3  A    between atoms: C_3  and  C_13
REMARK    4  A    between atoms: C_16  and  N_19
REMARK    5  A    between atoms: C_25  and  O_28
REMARK    6  A    between atoms: O_28  and  C_29
REMARK                            x       y       z     vdW  Elec       q    Type
REMARK                         _______ _______ _______ _____ _____    ______ ____
ROOT
ATOM      1  N   UNL     1     -34.949  46.125 -12.187  0.00  0.00    +0.000 N 
ATOM      2  N   UNL     1     -33.230  44.944 -13.374  0.00  0.00    +0.000 N 
ATOM      3  C   UNL     1     -34.770  44.865 -11.426  0.00  0.00    +0.000 C 
ATOM      4  C   UNL     1     -34.115  46.003 -13.424  0.00  0.00    +0.000 C 
ATOM      5  C   UNL     1     -33.633  44.296 -12.153  0.00  0.00    +0.000 C 
ATOM      6  C   UNL     1     -36.311  46.574 -12.474  0.00  0.00    +0.000 C 
ATOM      7  C   UNL     1     -34.541  46.596 -14.649  0.00  0.00    +0.000 C 
ATOM      8  C   UNL     1     -37.348  47.169 -13.441  0.00  0.00    +0.000 C 
ATOM      9  C   UNL     1     -35.685  47.242 -15.448  0.00  0.00    +0.000 C 
ATOM     10  C   UNL     1     -37.080  47.525 -14.900  0.00  0.00    +0.000 C 
ENDROOT
BRANCH   3  11
ATOM     11  C   UNL     1     -34.517  45.131  -9.961  0.00  0.00    +0.000 A 
ATOM     12  C   UNL     1     -35.370  45.951  -9.208  0.00  0.00    +0.000 A 
ATOM     13  C   UNL     1     -35.155  46.156  -7.847  0.00  0.00    +0.000 A 
ATOM     14  C   UNL     1     -34.079  45.521  -7.232  0.00  0.00    +0.000 A 
ATOM     15  C   UNL     1     -33.223  44.689  -7.946  0.00  0.00    +0.000 A 
ATOM     16  C   UNL     1     -33.452  44.494  -9.305  0.00  0.00    +0.000 A 
BRANCH  14  17
ATOM     17  N   UNL     1     -33.848  45.731  -5.817  0.00  0.00    +0.000 N 
ATOM     18  O   UNL     1     -34.800  46.130  -5.132  0.00  0.00    +0.000 OA
ATOM     19  O   UNL     1     -32.713  45.498  -5.378  0.00  0.00    +0.000 OA
ENDBRANCH  14  17
ENDBRANCH   3  11
BRANCH   2  20
ATOM     20  C   UNL     1     -32.442  44.328 -14.359  0.00  0.00    +0.000 A 
ATOM     21  C   UNL     1     -32.719  43.043 -14.835  0.00  0.00    +0.000 A 
ATOM     22  C   UNL     1     -31.943  42.449 -15.830  0.00  0.00    +0.000 A 
ATOM     23  C   UNL     1     -30.867  43.139 -16.383  0.00  0.00    +0.000 A 
ATOM     24  C   UNL     1     -30.578  44.424 -15.933  0.00  0.00    +0.000 A 
ATOM     25  C   UNL     1     -31.361  45.008 -14.937  0.00  0.00    +0.000 A 
BRANCH  23  26
ATOM     26  O   UNL     1     -30.044  42.648 -17.363  0.00  0.00    +0.000 OA
BRANCH  26  27
ATOM     27  C   UNL     1     -29.781  43.499 -18.352  0.00  0.00    +0.000 C 
ATOM     28  C   UNL     1     -29.474  44.491 -19.481  0.00  0.00    +0.000 C 
ENDBRANCH  26  27
ENDBRANCH  23  26
ENDBRANCH   2  20
BRANCH   3  29
ATOM     29  O   UNL     1     -35.865  43.969 -11.564  0.00  0.00    +0.000 OA
ATOM     30  H   UNL     1     -35.936  43.801 -12.518  0.00  0.00    +0.000 HD
ENDBRANCH   3  29
TORSDOF 6
ENDMDL
MODEL 2
REMARK VINA RESULT:      -6.2     19.466     22.330
REMARK  Name = 5109870_Ethoxyphenyl.pdbqt.pdb
REMARK  6 active torsions:
REMARK  status: ('A' for Active; 'I' for Inactive)
REMARK    1  A    between atoms: N_2  and  C_22
REMARK    2  A    between atoms: C_3  and  O_11
REMARK    3  A    between atoms: C_3  and  C_13
REMARK    4  A    between atoms: C_16  and  N_19
REMARK    5  A    between atoms: C_25  and  O_28
REMARK    6  A    between atoms: O_28  and  C_29
REMARK                            x       y       z     vdW  Elec       q    Type
REMARK                         _______ _______ _______ _____ _____    ______ ____
ROOT
ATOM      1  N   UNL     1     -14.175  46.340  -1.248  0.00  0.00    +0.000 N 
ATOM      2  N   UNL     1     -15.513  44.518  -2.053  0.00  0.00    +0.000 N 
ATOM      3  C   UNL     1     -13.534  45.943  -2.524  0.00  0.00    +0.000 C 
ATOM      4  C   UNL     1     -15.237  45.324  -0.965  0.00  0.00    +0.000 C 
ATOM      5  C   UNL     1     -14.490  44.931  -2.977  0.00  0.00    +0.000 C 
ATOM      6  C   UNL     1     -13.318  46.587  -0.089  0.00  0.00    +0.000 C 
ATOM      7  C   UNL     1     -15.541  44.944   0.375  0.00  0.00    +0.000 C 
ATOM      8  C   UNL     1     -13.022  46.441   1.414  0.00  0.00    +0.000 C 
ATOM      9  C   UNL     1     -15.123  44.960   1.854  0.00  0.00    +0.000 C 
ATOM     10  C   UNL     1     -13.887  45.667   2.403  0.00  0.00    +0.000 C 
ENDROOT
BRANCH   3  11
ATOM     11  C   UNL     1     -13.369  47.122  -3.454  0.00  0.00    +0.000 A 
ATOM     12  C   UNL     1     -12.229  47.937  -3.409  0.00  0.00    +0.000 A 
ATOM     13  C   UNL     1     -12.066  48.996  -4.299  0.00  0.00    +0.000 A 
ATOM     14  C   UNL     1     -13.051  49.232  -5.253  0.00  0.00    +0.000 A 
ATOM     15  C   UNL     1     -14.187  48.433  -5.337  0.00  0.00    +0.000 A 
ATOM     16  C   UNL     1     -14.335  47.379  -4.440  0.00  0.00    +0.000 A 
BRANCH  14  17
ATOM     17  N   UNL     1     -12.888  50.333  -6.182  0.00  0.00    +0.000 N 
ATOM     18  O   UNL     1     -13.915  50.867  -6.624  0.00  0.00    +0.000 OA
ATOM     19  O   UNL     1     -11.733  50.673  -6.476  0.00  0.00    +0.000 OA
ENDBRANCH  14  17
ENDBRANCH   3  11
BRANCH   2  20
ATOM     20  C   UNL     1     -16.243  43.326  -2.180  0.00  0.00    +0.000 A 
ATOM     21  C   UNL     1     -17.544  43.303  -2.692  0.00  0.00    +0.000 A 
ATOM     22  C   UNL     1     -18.252  42.111  -2.836  0.00  0.00    +0.000 A 
ATOM     23  C   UNL     1     -17.665  40.901  -2.474  0.00  0.00    +0.000 A 
ATOM     24  C   UNL     1     -16.367  40.896  -1.972  0.00  0.00    +0.000 A 
ATOM     25  C   UNL     1     -15.668  42.095  -1.832  0.00  0.00    +0.000 A 
BRANCH  23  26
ATOM     26  O   UNL     1     -18.273  39.676  -2.576  0.00  0.00    +0.000 OA
BRANCH  26  27
ATOM     27  C   UNL     1     -19.531  39.709  -3.009  0.00  0.00    +0.000 C 
ATOM     28  C   UNL     1     -20.985  39.740  -3.493  0.00  0.00    +0.000 C 
ENDBRANCH  26  27
ENDBRANCH  23  26
ENDBRANCH   2  20
BRANCH   3  29
ATOM     29  O   UNL     1     -12.277  45.303  -2.343  0.00  0.00    +0.000 OA
ATOM     30  H   UNL     1     -11.755  45.918  -1.803  0.00  0.00    +0.000 HD
ENDBRANCH   3  29
TORSDOF 6
ENDMDL
MODEL 3
REMARK VINA RESULT:      -6.1     22.766     24.890
REMARK  Name = 5109870_Ethoxyphenyl.pdbqt.pdb
REMARK  6 active torsions:
REMARK  status: ('A' for Active; 'I' for Inactive)
REMARK    1  A    between atoms: N_2  and  C_22
REMARK    2  A    between atoms: C_3  and  O_11
REMARK    3  A    between atoms: C_3  and  C_13
REMARK    4  A    between atoms: C_16  and  N_19
REMARK    5  A    between atoms: C_25  and  O_28
REMARK    6  A    between atoms: O_28  and  C_29
REMARK                            x       y       z     vdW  Elec       q    Type
REMARK                         _______ _______ _______ _____ _____    ______ ____
ROOT
ATOM      1  N   UNL     1     -16.388  51.239   3.619  0.00  0.00    +0.000 N 
ATOM      2  N   UNL     1     -14.835  52.127   2.020  0.00  0.00    +0.000 N 
ATOM      3  C   UNL     1     -16.603  50.425   2.399  0.00  0.00    +0.000 C 
ATOM      4  C   UNL     1     -15.443  52.337   3.242  0.00  0.00    +0.000 C 
ATOM      5  C   UNL     1     -15.535  50.960   1.552  0.00  0.00    +0.000 C 
ATOM      6  C   UNL     1     -17.562  51.736   4.337  0.00  0.00    +0.000 C 
ATOM      7  C   UNL     1     -15.553  53.628   3.838  0.00  0.00    +0.000 C 
ATOM      8  C   UNL     1     -18.297  52.862   5.084  0.00  0.00    +0.000 C 
ATOM      9  C   UNL     1     -16.401  54.604   4.669  0.00  0.00    +0.000 C 
ATOM     10  C   UNL     1     -17.759  54.275   5.283  0.00  0.00    +0.000 C 
ENDROOT
BRANCH   3  11
ATOM     11  C   UNL     1     -16.499  48.946   2.692  0.00  0.00    +0.000 A 
ATOM     12  C   UNL     1     -16.745  47.985   1.702  0.00  0.00    +0.000 A 
ATOM     13  C   UNL     1     -16.605  46.625   1.969  0.00  0.00    +0.000 A 
ATOM     14  C   UNL     1     -16.202  46.226   3.240  0.00  0.00    +0.000 A 
ATOM     15  C   UNL     1     -15.935  47.154   4.241  0.00  0.00    +0.000 A 
ATOM     16  C   UNL     1     -16.079  48.509   3.958  0.00  0.00    +0.000 A 
BRANCH  14  17
ATOM     17  N   UNL     1     -16.055  44.812   3.525  0.00  0.00    +0.000 N 
ATOM     18  O   UNL     1     -16.744  44.337   4.439  0.00  0.00    +0.000 OA
ATOM     19  O   UNL     1     -15.252  44.166   2.838  0.00  0.00    +0.000 OA
ENDBRANCH  14  17
ENDBRANCH   3  11
BRANCH   2  20
ATOM     20  C   UNL     1     -14.078  52.967   1.188  0.00  0.00    +0.000 A 
ATOM     21  C   UNL     1     -12.706  53.161   1.380  0.00  0.00    +0.000 A 
ATOM     22  C   UNL     1     -11.959  53.980   0.533  0.00  0.00    +0.000 A 
ATOM     23  C   UNL     1     -12.573  54.623  -0.539  0.00  0.00    +0.000 A 
ATOM     24  C   UNL     1     -13.934  54.436  -0.757  0.00  0.00    +0.000 A 
ATOM     25  C   UNL     1     -14.672  53.615   0.096  0.00  0.00    +0.000 A 
BRANCH  23  26
ATOM     26  O   UNL     1     -11.930  55.446  -1.428  0.00  0.00    +0.000 OA
BRANCH  26  27
ATOM     27  C   UNL     1     -11.082  56.311  -0.878  0.00  0.00    +0.000 C 
ATOM     28  C   UNL     1     -10.112  57.320  -0.251  0.00  0.00    +0.000 C 
ENDBRANCH  26  27
ENDBRANCH  23  26
ENDBRANCH   2  20
BRANCH   3  29
ATOM     29  O   UNL     1     -17.843  50.695   1.757  0.00  0.00    +0.000 OA
ATOM     30  H   UNL     1     -17.805  50.208   0.918  0.00  0.00    +0.000 HD
ENDBRANCH   3  29
TORSDOF 6
ENDMDL
MODEL 4
REMARK VINA RESULT:      -6.1      2.088      8.288
REMARK  Name = 5109870_Ethoxyphenyl.pdbqt.pdb
REMARK  6 active torsions:
REMARK  status: ('A' for Active; 'I' for Inactive)
REMARK    1  A    between atoms: N_2  and  C_22
REMARK    2  A    between atoms: C_3  and  O_11
REMARK    3  A    between atoms: C_3  and  C_13
REMARK    4  A    between atoms: C_16  and  N_19
REMARK    5  A    between atoms: C_25  and  O_28
REMARK    6  A    between atoms: O_28  and  C_29
REMARK                            x       y       z     vdW  Elec       q    Type
REMARK                         _______ _______ _______ _____ _____    ______ ____
ROOT
ATOM      1  N   UNL     1     -34.654  44.102 -13.269  0.00  0.00    +0.000 N 
ATOM      2  N   UNL     1     -33.755  44.385 -11.062  0.00  0.00    +0.000 N 
ATOM      3  C   UNL     1     -33.420  44.899 -13.469  0.00  0.00    +0.000 C 
ATOM      4  C   UNL     1     -34.862  43.994 -11.790  0.00  0.00    +0.000 C 
ATOM      5  C   UNL     1     -32.901  44.900 -12.099  0.00  0.00    +0.000 C 
ATOM      6  C   UNL     1     -35.868  44.514 -13.973  0.00  0.00    +0.000 C 
ATOM      7  C   UNL     1     -36.178  43.967 -11.241  0.00  0.00    +0.000 C 
ATOM      8  C   UNL     1     -37.385  44.763 -13.993  0.00  0.00    +0.000 C 
ATOM      9  C   UNL     1     -37.681  44.198 -11.464  0.00  0.00    +0.000 C 
ATOM     10  C   UNL     1     -38.313  44.605 -12.792  0.00  0.00    +0.000 C 
ENDROOT
BRANCH   3  11
ATOM     11  C   UNL     1     -32.509  44.265 -14.493  0.00  0.00    +0.000 A 
ATOM     12  C   UNL     1     -32.641  42.918 -14.856  0.00  0.00    +0.000 A 
ATOM     13  C   UNL     1     -31.825  42.352 -15.833  0.00  0.00    +0.000 A 
ATOM     14  C   UNL     1     -30.874  43.151 -16.461  0.00  0.00    +0.000 A 
ATOM     15  C   UNL     1     -30.726  44.496 -16.136  0.00  0.00    +0.000 A 
ATOM     16  C   UNL     1     -31.550  45.045 -15.158  0.00  0.00    +0.000 A 
BRANCH  14  17
ATOM     17  N   UNL     1     -30.019  42.569 -17.477  0.00  0.00    +0.000 N 
ATOM     18  O   UNL     1     -29.177  43.306 -18.009  0.00  0.00    +0.000 OA
ATOM     19  O   UNL     1     -30.183  41.372 -17.751  0.00  0.00    +0.000 OA
ENDBRANCH  14  17
ENDBRANCH   3  11
BRANCH   2  20
ATOM     20  C   UNL     1     -33.575  44.659  -9.697  0.00  0.00    +0.000 A 
ATOM     21  C   UNL     1     -32.787  43.847  -8.875  0.00  0.00    +0.000 A 
ATOM     22  C   UNL     1     -32.596  44.141  -7.525  0.00  0.00    +0.000 A 
ATOM     23  C   UNL     1     -33.188  45.271  -6.964  0.00  0.00    +0.000 A 
ATOM     24  C   UNL     1     -33.967  46.100  -7.765  0.00  0.00    +0.000 A 
ATOM     25  C   UNL     1     -34.152  45.796  -9.114  0.00  0.00    +0.000 A 
BRANCH  23  26
ATOM     26  O   UNL     1     -33.063  45.648  -5.652  0.00  0.00    +0.000 OA
BRANCH  26  27
ATOM     27  C   UNL     1     -32.727  44.668  -4.816  0.00  0.00    +0.000 C 
ATOM     28  C   UNL     1     -32.353  43.545  -3.843  0.00  0.00    +0.000 C 
ENDBRANCH  26  27
ENDBRANCH  23  26
ENDBRANCH   2  20
BRANCH   3  29
ATOM     29  O   UNL     1     -33.680  46.249 -13.835  0.00  0.00    +0.000 OA
ATOM     30  H   UNL     1     -34.476  46.498 -13.337  0.00  0.00    +0.000 HD
ENDBRANCH   3  29
TORSDOF 6
ENDMDL
MODEL 5
REMARK VINA RESULT:      -6.1     23.042     25.359
REMARK  Name = 5109870_Ethoxyphenyl.pdbqt.pdb
REMARK  6 active torsions:
REMARK  status: ('A' for Active; 'I' for Inactive)
REMARK    1  A    between atoms: N_2  and  C_22
REMARK    2  A    between atoms: C_3  and  O_11
REMARK    3  A    between atoms: C_3  and  C_13
REMARK    4  A    between atoms: C_16  and  N_19
REMARK    5  A    between atoms: C_25  and  O_28
REMARK    6  A    between atoms: O_28  and  C_29
REMARK                            x       y       z     vdW  Elec       q    Type
REMARK                         _______ _______ _______ _____ _____    ______ ____
ROOT
ATOM      1  N   UNL     1     -16.151  53.245 -28.162  0.00  0.00    +0.000 N 
ATOM      2  N   UNL     1     -16.391  54.345 -26.042  0.00  0.00    +0.000 N 
ATOM      3  C   UNL     1     -17.610  53.235 -27.900  0.00  0.00    +0.000 C 
ATOM      4  C   UNL     1     -15.495  53.769 -26.922  0.00  0.00    +0.000 C 
ATOM      5  C   UNL     1     -17.647  54.029 -26.670  0.00  0.00    +0.000 C 
ATOM      6  C   UNL     1     -15.525  52.016 -28.646  0.00  0.00    +0.000 C 
ATOM      7  C   UNL     1     -14.216  53.285 -26.516  0.00  0.00    +0.000 C 
ATOM      8  C   UNL     1     -14.368  51.002 -28.620  0.00  0.00    +0.000 C 
ATOM      9  C   UNL     1     -13.124  52.216 -26.677  0.00  0.00    +0.000 C 
ATOM     10  C   UNL     1     -13.166  51.071 -27.684  0.00  0.00    +0.000 C 
ENDROOT
BRANCH   3  11
ATOM     11  C   UNL     1     -18.386  53.821 -29.057  0.00  0.00    +0.000 A 
ATOM     12  C   UNL     1     -18.447  55.205 -29.271  0.00  0.00    +0.000 A 
ATOM     13  C   UNL     1     -19.128  55.735 -30.364  0.00  0.00    +0.000 A 
ATOM     14  C   UNL     1     -19.745  54.866 -31.259  0.00  0.00    +0.000 A 
ATOM     15  C   UNL     1     -19.691  53.486 -31.085  0.00  0.00    +0.000 A 
ATOM     16  C   UNL     1     -19.005  52.973 -29.988  0.00  0.00    +0.000 A 
BRANCH  14  17
ATOM     17  N   UNL     1     -20.457  55.410 -32.398  0.00  0.00    +0.000 N 
ATOM     18  O   UNL     1     -21.625  55.037 -32.576  0.00  0.00    +0.000 OA
ATOM     19  O   UNL     1     -19.856  56.215 -33.123  0.00  0.00    +0.000 OA
ENDBRANCH  14  17
ENDBRANCH   3  11
BRANCH   2  20
ATOM     20  C   UNL     1     -16.269  54.747 -24.703  0.00  0.00    +0.000 A 
ATOM     21  C   UNL     1     -15.737  53.905 -23.721  0.00  0.00    +0.000 A 
ATOM     22  C   UNL     1     -15.599  54.322 -22.397  0.00  0.00    +0.000 A 
ATOM     23  C   UNL     1     -15.985  55.608 -22.025  0.00  0.00    +0.000 A 
ATOM     24  C   UNL     1     -16.507  56.467 -22.987  0.00  0.00    +0.000 A 
ATOM     25  C   UNL     1     -16.641  56.039 -24.308  0.00  0.00    +0.000 A 
BRANCH  23  26
ATOM     26  O   UNL     1     -15.891  56.115 -20.755  0.00  0.00    +0.000 OA
BRANCH  26  27
ATOM     27  C   UNL     1     -16.199  57.405 -20.642  0.00  0.00    +0.000 C 
ATOM     28  C   UNL     1     -16.560  58.890 -20.528  0.00  0.00    +0.000 C 
ENDBRANCH  26  27
ENDBRANCH  23  26
ENDBRANCH   2  20
BRANCH   3  29
ATOM     29  O   UNL     1     -18.115  51.941 -27.597  0.00  0.00    +0.000 OA
ATOM     30  H   UNL     1     -18.950  52.099 -27.128  0.00  0.00    +0.000 HD
ENDBRANCH   3  29
TORSDOF 6
ENDMDL
MODEL 6
REMARK VINA RESULT:      -6.1     23.499     25.658
REMARK  Name = 5109870_Ethoxyphenyl.pdbqt.pdb
REMARK  6 active torsions:
REMARK  status: ('A' for Active; 'I' for Inactive)
REMARK    1  A    between atoms: N_2  and  C_22
REMARK    2  A    between atoms: C_3  and  O_11
REMARK    3  A    between atoms: C_3  and  C_13
REMARK    4  A    between atoms: C_16  and  N_19
REMARK    5  A    between atoms: C_25  and  O_28
REMARK    6  A    between atoms: O_28  and  C_29
REMARK                            x       y       z     vdW  Elec       q    Type
REMARK                         _______ _______ _______ _____ _____    ______ ____
ROOT
ATOM      1  N   UNL     1     -20.269  55.125 -32.123  0.00  0.00    +0.000 N 
ATOM      2  N   UNL     1     -19.142  54.052 -30.296  0.00  0.00    +0.000 N 
ATOM      3  C   UNL     1     -20.271  53.685 -32.478  0.00  0.00    +0.000 C 
ATOM      4  C   UNL     1     -19.423  55.264 -30.895  0.00  0.00    +0.000 C 
ATOM      5  C   UNL     1     -19.685  53.128 -31.257  0.00  0.00    +0.000 C 
ATOM      6  C   UNL     1     -19.913  56.093 -33.158  0.00  0.00    +0.000 C 
ATOM      7  C   UNL     1     -18.630  56.431 -30.688  0.00  0.00    +0.000 C 
ATOM      8  C   UNL     1     -19.167  57.363 -33.605  0.00  0.00    +0.000 C 
ATOM      9  C   UNL     1     -18.020  57.708 -31.289  0.00  0.00    +0.000 C 
ATOM     10  C   UNL     1     -18.244  58.192 -32.718  0.00  0.00    +0.000 C 
ENDROOT
BRANCH   3  11
ATOM     11  C   UNL     1     -21.664  53.192 -32.794  0.00  0.00    +0.000 A 
ATOM     12  C   UNL     1     -22.802  53.898 -32.379  0.00  0.00    +0.000 A 
ATOM     13  C   UNL     1     -24.081  53.460 -32.712  0.00  0.00    +0.000 A 
ATOM     14  C   UNL     1     -24.220  52.309 -33.482  0.00  0.00    +0.000 A 
ATOM     15  C   UNL     1     -23.112  51.593 -33.924  0.00  0.00    +0.000 A 
ATOM     16  C   UNL     1     -21.840  52.044 -33.582  0.00  0.00    +0.000 A 
BRANCH  14  17
ATOM     17  N   UNL     1     -25.549  51.846 -33.831  0.00  0.00    +0.000 N 
ATOM     18  O   UNL     1     -26.252  51.382 -32.923  0.00  0.00    +0.000 OA
ATOM     19  O   UNL     1     -25.899  51.943 -35.016  0.00  0.00    +0.000 OA
ENDBRANCH  14  17
ENDBRANCH   3  11
BRANCH   2  20
ATOM     20  C   UNL     1     -18.230  53.687 -29.293  0.00  0.00    +0.000 A 
ATOM     21  C   UNL     1     -16.973  53.153 -29.592  0.00  0.00    +0.000 A 
ATOM     22  C   UNL     1     -16.065  52.814 -28.589  0.00  0.00    +0.000 A 
ATOM     23  C   UNL     1     -16.395  53.014 -27.251  0.00  0.00    +0.000 A 
ATOM     24  C   UNL     1     -17.636  53.554 -26.929  0.00  0.00    +0.000 A 
ATOM     25  C   UNL     1     -18.537  53.889 -27.940  0.00  0.00    +0.000 A 
BRANCH  23  26
ATOM     26  O   UNL     1     -15.577  52.717 -26.192  0.00  0.00    +0.000 OA
BRANCH  26  27
ATOM     27  C   UNL     1     -15.732  53.500 -25.127  0.00  0.00    +0.000 C 
ATOM     28  C   UNL     1     -15.921  54.391 -23.894  0.00  0.00    +0.000 C 
ENDBRANCH  26  27
ENDBRANCH  23  26
ENDBRANCH   2  20
BRANCH   3  29
ATOM     29  O   UNL     1     -19.401  53.374 -33.558  0.00  0.00    +0.000 OA
ATOM     30  H   UNL     1     -19.467  52.411 -33.668  0.00  0.00    +0.000 HD
ENDBRANCH   3  29
TORSDOF 6
ENDMDL
MODEL 7
REMARK VINA RESULT:      -6.0      2.637      3.584
REMARK  Name = 5109870_Ethoxyphenyl.pdbqt.pdb
REMARK  6 active torsions:
REMARK  status: ('A' for Active; 'I' for Inactive)
REMARK    1  A    between atoms: N_2  and  C_22
REMARK    2  A    between atoms: C_3  and  O_11
REMARK    3  A    between atoms: C_3  and  C_13
REMARK    4  A    between atoms: C_16  and  N_19
REMARK    5  A    between atoms: C_25  and  O_28
REMARK    6  A    between atoms: O_28  and  C_29
REMARK                            x       y       z     vdW  Elec       q    Type
REMARK                         _______ _______ _______ _____ _____    ______ ____
ROOT
ATOM      1  N   UNL     1     -35.525  47.761 -14.787  0.00  0.00    +0.000 N 
ATOM      2  N   UNL     1     -33.659  46.342 -15.298  0.00  0.00    +0.000 N 
ATOM      3  C   UNL     1     -35.911  46.432 -14.255  0.00  0.00    +0.000 C 
ATOM      4  C   UNL     1     -34.247  47.568 -15.543  0.00  0.00    +0.000 C 
ATOM      5  C   UNL     1     -34.670  45.695 -14.505  0.00  0.00    +0.000 C 
ATOM      6  C   UNL     1     -36.516  48.516 -15.552  0.00  0.00    +0.000 C 
ATOM      7  C   UNL     1     -33.967  48.340 -16.708  0.00  0.00    +0.000 C 
ATOM      8  C   UNL     1     -36.889  49.400 -16.754  0.00  0.00    +0.000 C 
ATOM      9  C   UNL     1     -34.502  49.283 -17.798  0.00  0.00    +0.000 C 
ATOM     10  C   UNL     1     -35.932  49.813 -17.867  0.00  0.00    +0.000 C 
ENDROOT
BRANCH   3  11
ATOM     11  C   UNL     1     -36.320  46.512 -12.803  0.00  0.00    +0.000 A 
ATOM     12  C   UNL     1     -35.526  45.961 -11.787  0.00  0.00    +0.000 A 
ATOM     13  C   UNL     1     -35.889  46.077 -10.448  0.00  0.00    +0.000 A 
ATOM     14  C   UNL     1     -37.055  46.764 -10.123  0.00  0.00    +0.000 A 
ATOM     15  C   UNL     1     -37.858  47.336 -11.104  0.00  0.00    +0.000 A 
ATOM     16  C   UNL     1     -37.481  47.212 -12.438  0.00  0.00    +0.000 A 
BRANCH  14  17
ATOM     17  N   UNL     1     -37.440  46.887  -8.730  0.00  0.00    +0.000 N 
ATOM     18  O   UNL     1     -37.330  48.002  -8.201  0.00  0.00    +0.000 OA
ATOM     19  O   UNL     1     -37.856  45.871  -8.156  0.00  0.00    +0.000 OA
ENDBRANCH  14  17
ENDBRANCH   3  11
BRANCH   2  20
ATOM     20  C   UNL     1     -32.612  45.657 -15.935  0.00  0.00    +0.000 A 
ATOM     21  C   UNL     1     -32.571  45.490 -17.323  0.00  0.00    +0.000 A 
ATOM     22  C   UNL     1     -31.514  44.827 -17.948  0.00  0.00    +0.000 A 
ATOM     23  C   UNL     1     -30.461  44.320 -17.191  0.00  0.00    +0.000 A 
ATOM     24  C   UNL     1     -30.475  44.484 -15.809  0.00  0.00    +0.000 A 
ATOM     25  C   UNL     1     -31.536  45.148 -15.195  0.00  0.00    +0.000 A 
BRANCH  23  26
ATOM     26  O   UNL     1     -29.378  43.655 -17.706  0.00  0.00    +0.000 OA
BRANCH  26  27
ATOM     27  C   UNL     1     -28.983  42.597 -17.002  0.00  0.00    +0.000 C 
ATOM     28  C   UNL     1     -28.535  41.385 -16.177  0.00  0.00    +0.000 C 
ENDBRANCH  26  27
ENDBRANCH  23  26
ENDBRANCH   2  20
BRANCH   3  29
ATOM     29  O   UNL     1     -36.945  45.808 -15.006  0.00  0.00    +0.000 OA
ATOM     30  H   UNL     1     -37.426  45.259 -14.366  0.00  0.00    +0.000 HD
ENDBRANCH   3  29
TORSDOF 6
ENDMDL
MODEL 8
REMARK VINA RESULT:      -5.9      1.814      2.707
REMARK  Name = 5109870_Ethoxyphenyl.pdbqt.pdb
REMARK  6 active torsions:
REMARK  status: ('A' for Active; 'I' for Inactive)
REMARK    1  A    between atoms: N_2  and  C_22
REMARK    2  A    between atoms: C_3  and  O_11
REMARK    3  A    between atoms: C_3  and  C_13
REMARK    4  A    between atoms: C_16  and  N_19
REMARK    5  A    between atoms: C_25  and  O_28
REMARK    6  A    between atoms: O_28  and  C_29
REMARK                            x       y       z     vdW  Elec       q    Type
REMARK                         _______ _______ _______ _____ _____    ______ ____
ROOT
ATOM      1  N   UNL     1     -34.076  46.094 -14.448  0.00  0.00    +0.000 N 
ATOM      2  N   UNL     1     -32.386  44.553 -15.174  0.00  0.00    +0.000 N 
ATOM      3  C   UNL     1     -34.370  44.843 -13.709  0.00  0.00    +0.000 C 
ATOM      4  C   UNL     1     -32.986  45.772 -15.423  0.00  0.00    +0.000 C 
ATOM      5  C   UNL     1     -33.224  44.033 -14.126  0.00  0.00    +0.000 C 
ATOM      6  C   UNL     1     -35.188  46.810 -15.071  0.00  0.00    +0.000 C 
ATOM      7  C   UNL     1     -32.938  46.411 -16.697  0.00  0.00    +0.000 C 
ATOM      8  C   UNL     1     -35.784  47.584 -16.260  0.00  0.00    +0.000 C 
ATOM      9  C   UNL     1     -33.668  47.261 -17.749  0.00  0.00    +0.000 C 
ATOM     10  C   UNL     1     -35.069  47.841 -17.582  0.00  0.00    +0.000 C 
ENDROOT
BRANCH   3  11
ATOM     11  C   UNL     1     -34.468  45.086 -12.221  0.00  0.00    +0.000 A 
ATOM     12  C   UNL     1     -33.383  44.843 -11.367  0.00  0.00    +0.000 A 
ATOM     13  C   UNL     1     -33.467  45.110 -10.003  0.00  0.00    +0.000 A 
ATOM     14  C   UNL     1     -34.649  45.639  -9.492  0.00  0.00    +0.000 A 
ATOM     15  C   UNL     1     -35.739  45.907 -10.313  0.00  0.00    +0.000 A 
ATOM     16  C   UNL     1     -35.638  45.635 -11.675  0.00  0.00    +0.000 A 
BRANCH  14  17
ATOM     17  N   UNL     1     -34.744  45.918  -8.073  0.00  0.00    +0.000 N 
ATOM     18  O   UNL     1     -34.951  47.091  -7.731  0.00  0.00    +0.000 OA
ATOM     19  O   UNL     1     -34.615  44.967  -7.289  0.00  0.00    +0.000 OA
ENDBRANCH  14  17
ENDBRANCH   3  11
BRANCH   2  20
ATOM     20  C   UNL     1     -31.508  43.763 -15.934  0.00  0.00    +0.000 A 
ATOM     21  C   UNL     1     -30.132  44.010 -15.972  0.00  0.00    +0.000 A 
ATOM     22  C   UNL     1     -29.265  43.206 -16.711  0.00  0.00    +0.000 A 
ATOM     23  C   UNL     1     -29.761  42.120 -17.430  0.00  0.00    +0.000 A 
ATOM     24  C   UNL     1     -31.125  41.848 -17.399  0.00  0.00    +0.000 A 
ATOM     25  C   UNL     1     -31.983  42.660 -16.656  0.00  0.00    +0.000 A 
BRANCH  23  26
ATOM     26  O   UNL     1     -28.996  41.270 -18.186  0.00  0.00    +0.000 OA
BRANCH  26  27
ATOM     27  C   UNL     1     -28.564  41.778 -19.338  0.00  0.00    +0.000 C 
ATOM     28  C   UNL     1     -28.081  42.372 -20.667  0.00  0.00    +0.000 C 
ENDBRANCH  26  27
ENDBRANCH  23  26
ENDBRANCH   2  20
BRANCH   3  29
ATOM     29  O   UNL     1     -35.550  44.191 -14.162  0.00  0.00    +0.000 OA
ATOM     30  H   UNL     1     -35.501  43.294 -13.794  0.00  0.00    +0.000 HD
ENDBRANCH   3  29
TORSDOF 6
ENDMDL
MODEL 9
REMARK VINA RESULT:      -5.9     24.105     26.471
REMARK  Name = 5109870_Ethoxyphenyl.pdbqt.pdb
REMARK  6 active torsions:
REMARK  status: ('A' for Active; 'I' for Inactive)
REMARK    1  A    between atoms: N_2  and  C_22
REMARK    2  A    between atoms: C_3  and  O_11
REMARK    3  A    between atoms: C_3  and  C_13
REMARK    4  A    between atoms: C_16  and  N_19
REMARK    5  A    between atoms: C_25  and  O_28
REMARK    6  A    between atoms: O_28  and  C_29
REMARK                            x       y       z     vdW  Elec       q    Type
REMARK                         _______ _______ _______ _____ _____    ______ ____
ROOT
ATOM      1  N   UNL     1     -16.253  51.729   4.818  0.00  0.00    +0.000 N 
ATOM      2  N   UNL     1     -17.769  53.311   5.796  0.00  0.00    +0.000 N 
ATOM      3  C   UNL     1     -16.908  52.382   3.659  0.00  0.00    +0.000 C 
ATOM      4  C   UNL     1     -16.955  52.224   6.045  0.00  0.00    +0.000 C 
ATOM      5  C   UNL     1     -17.700  53.395   4.361  0.00  0.00    +0.000 C 
ATOM      6  C   UNL     1     -16.111  50.274   4.805  0.00  0.00    +0.000 C 
ATOM      7  C   UNL     1     -17.126  51.374   7.177  0.00  0.00    +0.000 C 
ATOM      8  C   UNL     1     -16.184  48.915   5.523  0.00  0.00    +0.000 C 
ATOM      9  C   UNL     1     -17.073  49.947   7.747  0.00  0.00    +0.000 C 
ATOM     10  C   UNL     1     -16.634  48.712   6.966  0.00  0.00    +0.000 C 
ENDROOT
BRANCH   3  11
ATOM     11  C   UNL     1     -15.894  52.933   2.684  0.00  0.00    +0.000 A 
ATOM     12  C   UNL     1     -15.409  52.162   1.618  0.00  0.00    +0.000 A 
ATOM     13  C   UNL     1     -14.508  52.691   0.699  0.00  0.00    +0.000 A 
ATOM     14  C   UNL     1     -14.097  54.013   0.843  0.00  0.00    +0.000 A 
ATOM     15  C   UNL     1     -14.570  54.812   1.880  0.00  0.00    +0.000 A 
ATOM     16  C   UNL     1     -15.471  54.267   2.790  0.00  0.00    +0.000 A 
BRANCH  14  17
ATOM     17  N   UNL     1     -13.157  54.571  -0.110  0.00  0.00    +0.000 N 
ATOM     18  O   UNL     1     -13.129  55.803  -0.234  0.00  0.00    +0.000 OA
ATOM     19  O   UNL     1     -12.440  53.782  -0.740  0.00  0.00    +0.000 OA
ENDBRANCH  14  17
ENDBRANCH   3  11
BRANCH   2  20
ATOM     20  C   UNL     1     -18.759  53.942   6.566  0.00  0.00    +0.000 A 
ATOM     21  C   UNL     1     -18.543  55.177   7.185  0.00  0.00    +0.000 A 
ATOM     22  C   UNL     1     -19.541  55.806   7.930  0.00  0.00    +0.000 A 
ATOM     23  C   UNL     1     -20.793  55.211   8.065  0.00  0.00    +0.000 A 
ATOM     24  C   UNL     1     -21.035  53.987   7.448  0.00  0.00    +0.000 A 
ATOM     25  C   UNL     1     -20.030  53.367   6.706  0.00  0.00    +0.000 A 
BRANCH  23  26
ATOM     26  O   UNL     1     -21.839  55.744   8.772  0.00  0.00    +0.000 OA
BRANCH  26  27
ATOM     27  C   UNL     1     -23.046  55.356   8.365  0.00  0.00    +0.000 C 
ATOM     28  C   UNL     1     -24.437  54.924   7.888  0.00  0.00    +0.000 C 
ENDBRANCH  26  27
ENDBRANCH  23  26
ENDBRANCH   2  20
BRANCH   3  29
ATOM     29  O   UNL     1     -17.811  51.525   2.972  0.00  0.00    +0.000 OA
ATOM     30  H   UNL     1     -17.281  50.751   2.718  0.00  0.00    +0.000 HD
ENDBRANCH   3  29
TORSDOF 6
ENDMDL
