MODEL 1
REMARK VINA RESULT:      -6.9      0.000      0.000
REMARK  Name = 5280445_Luteolin.pdbqt.pdb
REMARK  5 active torsions:
REMARK  status: ('A' for Active; 'I' for Inactive)
REMARK    1  A    between atoms: C_5  and  C_12
REMARK    2  A    between atoms: C_8  and  O_22
REMARK    3  A    between atoms: C_10  and  O_24
REMARK    4  A    between atoms: C_15  and  O_18
REMARK    5  A    between atoms: C_17  and  O_20
REMARK                            x       y       z     vdW  Elec       q    Type
REMARK                         _______ _______ _______ _____ _____    ______ ____
ROOT
ATOM      1  O   UNL     1     -35.853  46.624  -7.383  0.00  0.00    +0.000 OA
ATOM      2  O   UNL     1     -33.354  45.030 -10.235  0.00  0.00    +0.000 OA
ATOM      3  C   UNL     1     -33.791  45.326  -7.892  0.00  0.00    +0.000 A 
ATOM      4  C   UNL     1     -34.714  45.915  -6.992  0.00  0.00    +0.000 A 
ATOM      5  C   UNL     1     -36.118  46.778  -8.749  0.00  0.00    +0.000 A 
ATOM      6  C   UNL     1     -34.047  45.474  -9.338  0.00  0.00    +0.000 A 
ATOM      7  C   UNL     1     -35.241  46.220  -9.514  0.00  0.00    +0.000 A 
ATOM      8  C   UNL     1     -32.678  44.633  -7.418  0.00  0.00    +0.000 A 
ATOM      9  C   UNL     1     -34.506  45.797  -5.622  0.00  0.00    +0.000 A 
ATOM     10  C   UNL     1     -33.390  45.100  -5.163  0.00  0.00    +0.000 A 
ATOM     11  C   UNL     1     -32.477  44.520  -6.046  0.00  0.00    +0.000 A 
ENDROOT
BRANCH   5  12
ATOM     12  C   UNL     1     -37.306  47.519  -9.153  0.00  0.00    +0.000 A 
ATOM     13  C   UNL     1     -37.844  48.503  -8.319  0.00  0.00    +0.000 A 
ATOM     14  C   UNL     1     -37.929  47.258 -10.382  0.00  0.00    +0.000 A 
ATOM     15  C   UNL     1     -38.977  49.203  -8.714  0.00  0.00    +0.000 A 
ATOM     16  C   UNL     1     -39.067  47.961 -10.779  0.00  0.00    +0.000 A 
ATOM     17  C   UNL     1     -39.585  48.935  -9.936  0.00  0.00    +0.000 A 
BRANCH  15  18
ATOM     18  O   UNL     1     -39.492  50.162  -7.890  0.00  0.00    +0.000 OA
ATOM     19  H   UNL     1     -38.890  50.187  -7.120  0.00  0.00    +0.000 HD
ENDBRANCH  15  18
BRANCH  17  20
ATOM     20  O   UNL     1     -40.699  49.651 -10.278  0.00  0.00    +0.000 OA
ATOM     21  H   UNL     1     -41.047  49.277 -11.108  0.00  0.00    +0.000 HD
ENDBRANCH  17  20
ENDBRANCH   5  12
BRANCH   8  22
ATOM     22  O   UNL     1     -31.754  44.046  -8.237  0.00  0.00    +0.000 OA
ATOM     23  H   UNL     1     -30.999  44.658  -8.372  0.00  0.00    +0.000 HD
ENDBRANCH   8  22
BRANCH  10  24
ATOM     24  O   UNL     1     -33.204  44.997  -3.814  0.00  0.00    +0.000 OA
ATOM     25  H   UNL     1     -34.079  44.967  -3.387  0.00  0.00    +0.000 HD
ENDBRANCH  10  24
TORSDOF 5
ENDMDL
MODEL 2
REMARK VINA RESULT:      -6.2      1.417      6.985
REMARK  Name = 5280445_Luteolin.pdbqt.pdb
REMARK  5 active torsions:
REMARK  status: ('A' for Active; 'I' for Inactive)
REMARK    1  A    between atoms: C_5  and  C_12
REMARK    2  A    between atoms: C_8  and  O_22
REMARK    3  A    between atoms: C_10  and  O_24
REMARK    4  A    between atoms: C_15  and  O_18
REMARK    5  A    between atoms: C_17  and  O_20
REMARK                            x       y       z     vdW  Elec       q    Type
REMARK                         _______ _______ _______ _____ _____    ______ ____
ROOT
ATOM      1  O   UNL     1     -36.752  47.504  -7.874  0.00  0.00    +0.000 OA
ATOM      2  O   UNL     1     -37.422  46.325 -11.758  0.00  0.00    +0.000 OA
ATOM      3  C   UNL     1     -38.066  47.792  -9.969  0.00  0.00    +0.000 A 
ATOM      4  C   UNL     1     -37.755  48.122  -8.626  0.00  0.00    +0.000 A 
ATOM      5  C   UNL     1     -35.992  46.487  -8.466  0.00  0.00    +0.000 A 
ATOM      6  C   UNL     1     -37.280  46.724 -10.616  0.00  0.00    +0.000 A 
ATOM      7  C   UNL     1     -36.325  46.236  -9.688  0.00  0.00    +0.000 A 
ATOM      8  C   UNL     1     -39.083  48.460 -10.648  0.00  0.00    +0.000 A 
ATOM      9  C   UNL     1     -38.474  49.123  -7.982  0.00  0.00    +0.000 A 
ATOM     10  C   UNL     1     -39.488  49.782  -8.674  0.00  0.00    +0.000 A 
ATOM     11  C   UNL     1     -39.798  49.460  -9.997  0.00  0.00    +0.000 A 
ENDROOT
BRANCH   5  12
ATOM     12  C   UNL     1     -34.947  45.845  -7.680  0.00  0.00    +0.000 A 
ATOM     13  C   UNL     1     -33.809  45.326  -8.305  0.00  0.00    +0.000 A 
ATOM     14  C   UNL     1     -35.063  45.736  -6.287  0.00  0.00    +0.000 A 
ATOM     15  C   UNL     1     -32.820  44.715  -7.546  0.00  0.00    +0.000 A 
ATOM     16  C   UNL     1     -34.069  45.122  -5.525  0.00  0.00    +0.000 A 
ATOM     17  C   UNL     1     -32.947  44.614  -6.166  0.00  0.00    +0.000 A 
BRANCH  15  18
ATOM     18  O   UNL     1     -31.713  44.213  -8.170  0.00  0.00    +0.000 OA
ATOM     19  H   UNL     1     -30.964  44.735  -7.820  0.00  0.00    +0.000 HD
ENDBRANCH  15  18
BRANCH  17  20
ATOM     20  O   UNL     1     -31.944  44.003  -5.463  0.00  0.00    +0.000 OA
ATOM     21  H   UNL     1     -32.023  44.281  -4.533  0.00  0.00    +0.000 HD
ENDBRANCH  17  20
ENDBRANCH   5  12
BRANCH   8  22
ATOM     22  O   UNL     1     -39.429  48.185 -11.943  0.00  0.00    +0.000 OA
ATOM     23  H   UNL     1     -39.985  47.376 -11.970  0.00  0.00    +0.000 HD
ENDBRANCH   8  22
BRANCH  10  24
ATOM     24  O   UNL     1     -40.182  50.761  -8.023  0.00  0.00    +0.000 OA
ATOM     25  H   UNL     1     -41.032  50.389  -7.729  0.00  0.00    +0.000 HD
ENDBRANCH  10  24
TORSDOF 5
ENDMDL
MODEL 3
REMARK VINA RESULT:      -6.0      8.309     11.928
REMARK  Name = 5280445_Luteolin.pdbqt.pdb
REMARK  5 active torsions:
REMARK  status: ('A' for Active; 'I' for Inactive)
REMARK    1  A    between atoms: C_5  and  C_12
REMARK    2  A    between atoms: C_8  and  O_22
REMARK    3  A    between atoms: C_10  and  O_24
REMARK    4  A    between atoms: C_15  and  O_18
REMARK    5  A    between atoms: C_17  and  O_20
REMARK                            x       y       z     vdW  Elec       q    Type
REMARK                         _______ _______ _______ _____ _____    ______ ____
ROOT
ATOM      1  O   UNL     1     -32.659  46.445 -17.848  0.00  0.00    +0.000 OA
ATOM      2  O   UNL     1     -34.293  47.116 -14.134  0.00  0.00    +0.000 OA
ATOM      3  C   UNL     1     -34.246  47.755 -16.448  0.00  0.00    +0.000 A 
ATOM      4  C   UNL     1     -33.622  47.445 -17.682  0.00  0.00    +0.000 A 
ATOM      5  C   UNL     1     -32.269  45.689 -16.736  0.00  0.00    +0.000 A 
ATOM      6  C   UNL     1     -33.853  46.973 -15.260  0.00  0.00    +0.000 A 
ATOM      7  C   UNL     1     -32.874  46.022 -15.645  0.00  0.00    +0.000 A 
ATOM      8  C   UNL     1     -35.200  48.769 -16.368  0.00  0.00    +0.000 A 
ATOM      9  C   UNL     1     -33.967  48.159 -18.824  0.00  0.00    +0.000 A 
ATOM     10  C   UNL     1     -34.922  49.170 -18.728  0.00  0.00    +0.000 A 
ATOM     11  C   UNL     1     -35.539  49.480 -17.515  0.00  0.00    +0.000 A 
ENDROOT
BRANCH   5  12
ATOM     12  C   UNL     1     -31.265  44.648 -16.913  0.00  0.00    +0.000 A 
ATOM     13  C   UNL     1     -30.485  44.608 -18.073  0.00  0.00    +0.000 A 
ATOM     14  C   UNL     1     -31.064  43.673 -15.927  0.00  0.00    +0.000 A 
ATOM     15  C   UNL     1     -29.531  43.610 -18.232  0.00  0.00    +0.000 A 
ATOM     16  C   UNL     1     -30.106  42.671 -16.087  0.00  0.00    +0.000 A 
ATOM     17  C   UNL     1     -29.342  42.649 -17.246  0.00  0.00    +0.000 A 
BRANCH  15  18
ATOM     18  O   UNL     1     -28.776  43.583 -19.369  0.00  0.00    +0.000 OA
ATOM     19  H   UNL     1     -28.612  44.522 -19.590  0.00  0.00    +0.000 HD
ENDBRANCH  15  18
BRANCH  17  20
ATOM     20  O   UNL     1     -28.389  41.688 -17.450  0.00  0.00    +0.000 OA
ATOM     21  H   UNL     1     -27.573  41.982 -17.007  0.00  0.00    +0.000 HD
ENDBRANCH  17  20
ENDBRANCH   5  12
BRANCH   8  22
ATOM     22  O   UNL     1     -35.835  49.114 -15.207  0.00  0.00    +0.000 OA
ATOM     23  H   UNL     1     -35.179  49.469 -14.567  0.00  0.00    +0.000 HD
ENDBRANCH   8  22
BRANCH  10  24
ATOM     24  O   UNL     1     -35.245  49.860 -19.862  0.00  0.00    +0.000 OA
ATOM     25  H   UNL     1     -35.148  50.811 -19.678  0.00  0.00    +0.000 HD
ENDBRANCH  10  24
TORSDOF 5
ENDMDL
MODEL 4
REMARK VINA RESULT:      -6.0     26.032     28.134
REMARK  Name = 5280445_Luteolin.pdbqt.pdb
REMARK  5 active torsions:
REMARK  status: ('A' for Active; 'I' for Inactive)
REMARK    1  A    between atoms: C_5  and  C_12
REMARK    2  A    between atoms: C_8  and  O_22
REMARK    3  A    between atoms: C_10  and  O_24
REMARK    4  A    between atoms: C_15  and  O_18
REMARK    5  A    between atoms: C_17  and  O_20
REMARK                            x       y       z     vdW  Elec       q    Type
REMARK                         _______ _______ _______ _____ _____    ______ ____
ROOT
ATOM      1  O   UNL     1     -17.493  54.428 -26.611  0.00  0.00    +0.000 OA
ATOM      2  O   UNL     1     -17.616  58.370 -27.781  0.00  0.00    +0.000 OA
ATOM      3  C   UNL     1     -18.123  56.093 -28.351  0.00  0.00    +0.000 A 
ATOM      4  C   UNL     1     -18.033  54.769 -27.855  0.00  0.00    +0.000 A 
ATOM      5  C   UNL     1     -17.001  55.447 -25.785  0.00  0.00    +0.000 A 
ATOM      6  C   UNL     1     -17.612  57.185 -27.500  0.00  0.00    +0.000 A 
ATOM      7  C   UNL     1     -17.113  56.627 -26.296  0.00  0.00    +0.000 A 
ATOM      8  C   UNL     1     -18.678  56.347 -29.605  0.00  0.00    +0.000 A 
ATOM      9  C   UNL     1     -18.504  53.713 -28.627  0.00  0.00    +0.000 A 
ATOM     10  C   UNL     1     -19.056  53.982 -29.879  0.00  0.00    +0.000 A 
ATOM     11  C   UNL     1     -19.147  55.285 -30.372  0.00  0.00    +0.000 A 
ENDROOT
BRANCH   5  12
ATOM     12  C   UNL     1     -16.439  55.088 -24.490  0.00  0.00    +0.000 A 
ATOM     13  C   UNL     1     -15.891  53.819 -24.283  0.00  0.00    +0.000 A 
ATOM     14  C   UNL     1     -16.437  56.008 -23.432  0.00  0.00    +0.000 A 
ATOM     15  C   UNL     1     -15.359  53.488 -23.043  0.00  0.00    +0.000 A 
ATOM     16  C   UNL     1     -15.902  55.675 -22.187  0.00  0.00    +0.000 A 
ATOM     17  C   UNL     1     -15.363  54.409 -22.002  0.00  0.00    +0.000 A 
BRANCH  15  18
ATOM     18  O   UNL     1     -14.826  52.244 -22.855  0.00  0.00    +0.000 OA
ATOM     19  H   UNL     1     -14.855  51.818 -23.735  0.00  0.00    +0.000 HD
ENDBRANCH  15  18
BRANCH  17  20
ATOM     20  O   UNL     1     -14.826  54.034 -20.801  0.00  0.00    +0.000 OA
ATOM     21  H   UNL     1     -14.301  53.226 -20.950  0.00  0.00    +0.000 HD
ENDBRANCH  17  20
ENDBRANCH   5  12
BRANCH   8  22
ATOM     22  O   UNL     1     -18.791  57.601 -30.137  0.00  0.00    +0.000 OA
ATOM     23  H   UNL     1     -19.094  58.227 -29.443  0.00  0.00    +0.000 HD
ENDBRANCH   8  22
BRANCH  10  24
ATOM     24  O   UNL     1     -19.512  52.931 -30.621  0.00  0.00    +0.000 OA
ATOM     25  H   UNL     1     -20.324  53.211 -31.081  0.00  0.00    +0.000 HD
ENDBRANCH  10  24
TORSDOF 5
ENDMDL
MODEL 5
REMARK VINA RESULT:      -6.0      8.596     10.473
REMARK  Name = 5280445_Luteolin.pdbqt.pdb
REMARK  5 active torsions:
REMARK  status: ('A' for Active; 'I' for Inactive)
REMARK    1  A    between atoms: C_5  and  C_12
REMARK    2  A    between atoms: C_8  and  O_22
REMARK    3  A    between atoms: C_10  and  O_24
REMARK    4  A    between atoms: C_15  and  O_18
REMARK    5  A    between atoms: C_17  and  O_20
REMARK                            x       y       z     vdW  Elec       q    Type
REMARK                         _______ _______ _______ _____ _____    ______ ____
ROOT
ATOM      1  O   UNL     1     -31.830  45.702 -18.075  0.00  0.00    +0.000 OA
ATOM      2  O   UNL     1     -31.928  42.986 -14.988  0.00  0.00    +0.000 OA
ATOM      3  C   UNL     1     -30.909  43.621 -17.067  0.00  0.00    +0.000 A 
ATOM      4  C   UNL     1     -30.957  44.611 -18.080  0.00  0.00    +0.000 A 
ATOM      5  C   UNL     1     -32.726  45.846 -17.009  0.00  0.00    +0.000 A 
ATOM      6  C   UNL     1     -31.844  43.749 -15.933  0.00  0.00    +0.000 A 
ATOM      7  C   UNL     1     -32.631  44.913 -16.123  0.00  0.00    +0.000 A 
ATOM      8  C   UNL     1     -30.005  42.562 -17.149  0.00  0.00    +0.000 A 
ATOM      9  C   UNL     1     -30.091  44.524 -19.165  0.00  0.00    +0.000 A 
ATOM     10  C   UNL     1     -29.193  43.460 -19.233  0.00  0.00    +0.000 A 
ATOM     11  C   UNL     1     -29.143  42.482 -18.238  0.00  0.00    +0.000 A 
ENDROOT
BRANCH   5  12
ATOM     12  C   UNL     1     -33.635  46.986 -17.006  0.00  0.00    +0.000 A 
ATOM     13  C   UNL     1     -33.553  47.958 -18.007  0.00  0.00    +0.000 A 
ATOM     14  C   UNL     1     -34.604  47.125 -16.004  0.00  0.00    +0.000 A 
ATOM     15  C   UNL     1     -34.424  49.040 -17.995  0.00  0.00    +0.000 A 
ATOM     16  C   UNL     1     -35.479  48.212 -15.991  0.00  0.00    +0.000 A 
ATOM     17  C   UNL     1     -35.381  49.167 -16.995  0.00  0.00    +0.000 A 
BRANCH  15  18
ATOM     18  O   UNL     1     -34.333  49.983 -18.979  0.00  0.00    +0.000 OA
ATOM     19  H   UNL     1     -33.608  50.577 -18.697  0.00  0.00    +0.000 HD
ENDBRANCH  15  18
BRANCH  17  20
ATOM     20  O   UNL     1     -36.215  50.251 -17.027  0.00  0.00    +0.000 OA
ATOM     21  H   UNL     1     -35.962  50.796 -17.795  0.00  0.00    +0.000 HD
ENDBRANCH  17  20
ENDBRANCH   5  12
BRANCH   8  22
ATOM     22  O   UNL     1     -29.914  41.578 -16.205  0.00  0.00    +0.000 OA
ATOM     23  H   UNL     1     -30.554  40.862 -16.413  0.00  0.00    +0.000 HD
ENDBRANCH   8  22
BRANCH  10  24
ATOM     24  O   UNL     1     -28.353  43.394 -20.308  0.00  0.00    +0.000 OA
ATOM     25  H   UNL     1     -28.109  42.462 -20.447  0.00  0.00    +0.000 HD
ENDBRANCH  10  24
TORSDOF 5
ENDMDL
MODEL 6
REMARK VINA RESULT:      -6.0      8.319      9.998
REMARK  Name = 5280445_Luteolin.pdbqt.pdb
REMARK  5 active torsions:
REMARK  status: ('A' for Active; 'I' for Inactive)
REMARK    1  A    between atoms: C_5  and  C_12
REMARK    2  A    between atoms: C_8  and  O_22
REMARK    3  A    between atoms: C_10  and  O_24
REMARK    4  A    between atoms: C_15  and  O_18
REMARK    5  A    between atoms: C_17  and  O_20
REMARK                            x       y       z     vdW  Elec       q    Type
REMARK                         _______ _______ _______ _____ _____    ______ ____
ROOT
ATOM      1  O   UNL     1     -33.080  46.801 -18.099  0.00  0.00    +0.000 OA
ATOM      2  O   UNL     1     -34.055  46.983 -14.107  0.00  0.00    +0.000 OA
ATOM      3  C   UNL     1     -32.771  45.878 -15.808  0.00  0.00    +0.000 A 
ATOM      4  C   UNL     1     -32.504  45.899 -17.200  0.00  0.00    +0.000 A 
ATOM      5  C   UNL     1     -33.984  47.754 -17.615  0.00  0.00    +0.000 A 
ATOM      6  C   UNL     1     -33.721  46.871 -15.272  0.00  0.00    +0.000 A 
ATOM      7  C   UNL     1     -34.183  47.680 -16.342  0.00  0.00    +0.000 A 
ATOM      8  C   UNL     1     -32.151  44.943 -14.979  0.00  0.00    +0.000 A 
ATOM      9  C   UNL     1     -31.614  44.978 -17.742  0.00  0.00    +0.000 A 
ATOM     10  C   UNL     1     -31.002  44.050 -16.901  0.00  0.00    +0.000 A 
ATOM     11  C   UNL     1     -31.263  44.025 -15.530  0.00  0.00    +0.000 A 
ENDROOT
BRANCH   5  12
ATOM     12  C   UNL     1     -34.583  48.693 -18.555  0.00  0.00    +0.000 A 
ATOM     13  C   UNL     1     -35.418  49.716 -18.097  0.00  0.00    +0.000 A 
ATOM     14  C   UNL     1     -34.333  48.587 -19.930  0.00  0.00    +0.000 A 
ATOM     15  C   UNL     1     -35.984  50.606 -19.001  0.00  0.00    +0.000 A 
ATOM     16  C   UNL     1     -34.901  49.480 -20.838  0.00  0.00    +0.000 A 
ATOM     17  C   UNL     1     -35.728  50.490 -20.363  0.00  0.00    +0.000 A 
BRANCH  15  18
ATOM     18  O   UNL     1     -36.798  51.601 -18.541  0.00  0.00    +0.000 OA
ATOM     19  H   UNL     1     -37.222  51.233 -17.740  0.00  0.00    +0.000 HD
ENDBRANCH  15  18
BRANCH  17  20
ATOM     20  O   UNL     1     -36.309  51.391 -21.212  0.00  0.00    +0.000 OA
ATOM     21  H   UNL     1     -35.595  51.864 -21.676  0.00  0.00    +0.000 HD
ENDBRANCH  17  20
ENDBRANCH   5  12
BRANCH   8  22
ATOM     22  O   UNL     1     -32.370  44.873 -13.632  0.00  0.00    +0.000 OA
ATOM     23  H   UNL     1     -31.669  44.326 -13.213  0.00  0.00    +0.000 HD
ENDBRANCH   8  22
BRANCH  10  24
ATOM     24  O   UNL     1     -30.133  43.155 -17.454  0.00  0.00    +0.000 OA
ATOM     25  H   UNL     1     -29.877  43.482 -18.335  0.00  0.00    +0.000 HD
ENDBRANCH  10  24
TORSDOF 5
ENDMDL
MODEL 7
REMARK VINA RESULT:      -6.0      9.508     11.316
REMARK  Name = 5280445_Luteolin.pdbqt.pdb
REMARK  5 active torsions:
REMARK  status: ('A' for Active; 'I' for Inactive)
REMARK    1  A    between atoms: C_5  and  C_12
REMARK    2  A    between atoms: C_8  and  O_22
REMARK    3  A    between atoms: C_10  and  O_24
REMARK    4  A    between atoms: C_15  and  O_18
REMARK    5  A    between atoms: C_17  and  O_20
REMARK                            x       y       z     vdW  Elec       q    Type
REMARK                         _______ _______ _______ _____ _____    ______ ____
ROOT
ATOM      1  O   UNL     1     -34.015  47.847 -18.990  0.00  0.00    +0.000 OA
ATOM      2  O   UNL     1     -35.350  49.007 -15.276  0.00  0.00    +0.000 OA
ATOM      3  C   UNL     1     -33.991  47.474 -16.529  0.00  0.00    +0.000 A 
ATOM      4  C   UNL     1     -33.592  47.155 -17.851  0.00  0.00    +0.000 A 
ATOM      5  C   UNL     1     -34.891  48.928 -18.838  0.00  0.00    +0.000 A 
ATOM      6  C   UNL     1     -34.915  48.609 -16.342  0.00  0.00    +0.000 A 
ATOM      7  C   UNL     1     -35.215  49.164 -17.611  0.00  0.00    +0.000 A 
ATOM      8  C   UNL     1     -33.521  46.732 -15.446  0.00  0.00    +0.000 A 
ATOM      9  C   UNL     1     -32.722  46.092 -18.067  0.00  0.00    +0.000 A 
ATOM     10  C   UNL     1     -32.260  45.360 -16.975  0.00  0.00    +0.000 A 
ATOM     11  C   UNL     1     -32.651  45.670 -15.671  0.00  0.00    +0.000 A 
ENDROOT
BRANCH   5  12
ATOM     12  C   UNL     1     -35.330  49.646 -20.028  0.00  0.00    +0.000 A 
ATOM     13  C   UNL     1     -34.646  49.496 -21.238  0.00  0.00    +0.000 A 
ATOM     14  C   UNL     1     -36.442  50.498 -19.980  0.00  0.00    +0.000 A 
ATOM     15  C   UNL     1     -35.073  50.186 -22.365  0.00  0.00    +0.000 A 
ATOM     16  C   UNL     1     -36.871  51.191 -21.112  0.00  0.00    +0.000 A 
ATOM     17  C   UNL     1     -36.178  51.028 -22.304  0.00  0.00    +0.000 A 
BRANCH  15  18
ATOM     18  O   UNL     1     -34.396  50.030 -23.541  0.00  0.00    +0.000 OA
ATOM     19  H   UNL     1     -34.848  50.621 -24.176  0.00  0.00    +0.000 HD
ENDBRANCH  15  18
BRANCH  17  20
ATOM     20  O   UNL     1     -36.557  51.685 -23.442  0.00  0.00    +0.000 OA
ATOM     21  H   UNL     1     -37.141  51.090 -23.947  0.00  0.00    +0.000 HD
ENDBRANCH  17  20
ENDBRANCH   5  12
BRANCH   8  22
ATOM     22  O   UNL     1     -33.871  46.991 -14.150  0.00  0.00    +0.000 OA
ATOM     23  H   UNL     1     -34.455  47.780 -14.118  0.00  0.00    +0.000 HD
ENDBRANCH   8  22
BRANCH  10  24
ATOM     24  O   UNL     1     -31.407  44.320 -17.210  0.00  0.00    +0.000 OA
ATOM     25  H   UNL     1     -30.510  44.681 -17.322  0.00  0.00    +0.000 HD
ENDBRANCH  10  24
TORSDOF 5
ENDMDL
MODEL 8
REMARK VINA RESULT:      -5.9      5.402      8.562
REMARK  Name = 5280445_Luteolin.pdbqt.pdb
REMARK  5 active torsions:
REMARK  status: ('A' for Active; 'I' for Inactive)
REMARK    1  A    between atoms: C_5  and  C_12
REMARK    2  A    between atoms: C_8  and  O_22
REMARK    3  A    between atoms: C_10  and  O_24
REMARK    4  A    between atoms: C_15  and  O_18
REMARK    5  A    between atoms: C_17  and  O_20
REMARK                            x       y       z     vdW  Elec       q    Type
REMARK                         _______ _______ _______ _____ _____    ______ ____
ROOT
ATOM      1  O   UNL     1     -34.831  47.048 -13.864  0.00  0.00    +0.000 OA
ATOM      2  O   UNL     1     -32.169  45.194 -16.392  0.00  0.00    +0.000 OA
ATOM      3  C   UNL     1     -33.785  46.949 -16.120  0.00  0.00    +0.000 A 
ATOM      4  C   UNL     1     -34.673  47.515 -15.172  0.00  0.00    +0.000 A 
ATOM      5  C   UNL     1     -34.072  45.950 -13.441  0.00  0.00    +0.000 A 
ATOM      6  C   UNL     1     -32.974  45.791 -15.700  0.00  0.00    +0.000 A 
ATOM      7  C   UNL     1     -33.285  45.483 -14.351  0.00  0.00    +0.000 A 
ATOM      8  C   UNL     1     -33.688  47.477 -17.407  0.00  0.00    +0.000 A 
ATOM      9  C   UNL     1     -35.454  48.608 -15.531  0.00  0.00    +0.000 A 
ATOM     10  C   UNL     1     -35.346  49.124 -16.821  0.00  0.00    +0.000 A 
ATOM     11  C   UNL     1     -34.473  48.570 -17.758  0.00  0.00    +0.000 A 
ENDROOT
BRANCH   5  12
ATOM     12  C   UNL     1     -34.239  45.466 -12.076  0.00  0.00    +0.000 A 
ATOM     13  C   UNL     1     -33.181  44.834 -11.416  0.00  0.00    +0.000 A 
ATOM     14  C   UNL     1     -35.458  45.627 -11.404  0.00  0.00    +0.000 A 
ATOM     15  C   UNL     1     -33.351  44.376 -10.116  0.00  0.00    +0.000 A 
ATOM     16  C   UNL     1     -35.628  45.167 -10.098  0.00  0.00    +0.000 A 
ATOM     17  C   UNL     1     -34.565  44.542  -9.460  0.00  0.00    +0.000 A 
BRANCH  15  18
ATOM     18  O   UNL     1     -32.310  43.760  -9.483  0.00  0.00    +0.000 OA
ATOM     19  H   UNL     1     -32.506  42.803  -9.540  0.00  0.00    +0.000 HD
ENDBRANCH  15  18
BRANCH  17  20
ATOM     20  O   UNL     1     -34.681  44.073  -8.180  0.00  0.00    +0.000 OA
ATOM     21  H   UNL     1     -35.164  44.743  -7.662  0.00  0.00    +0.000 HD
ENDBRANCH  17  20
ENDBRANCH   5  12
BRANCH   8  22
ATOM     22  O   UNL     1     -32.851  46.974 -18.364  0.00  0.00    +0.000 OA
ATOM     23  H   UNL     1     -33.342  46.341 -18.931  0.00  0.00    +0.000 HD
ENDBRANCH   8  22
BRANCH  10  24
ATOM     24  O   UNL     1     -36.123  50.197 -17.152  0.00  0.00    +0.000 OA
ATOM     25  H   UNL     1     -37.033  50.019 -16.853  0.00  0.00    +0.000 HD
ENDBRANCH  10  24
TORSDOF 5
ENDMDL
MODEL 9
REMARK VINA RESULT:      -5.8     26.015     27.280
REMARK  Name = 5280445_Luteolin.pdbqt.pdb
REMARK  5 active torsions:
REMARK  status: ('A' for Active; 'I' for Inactive)
REMARK    1  A    between atoms: C_5  and  C_12
REMARK    2  A    between atoms: C_8  and  O_22
REMARK    3  A    between atoms: C_10  and  O_24
REMARK    4  A    between atoms: C_15  and  O_18
REMARK    5  A    between atoms: C_17  and  O_20
REMARK                            x       y       z     vdW  Elec       q    Type
REMARK                         _______ _______ _______ _____ _____    ______ ____
ROOT
ATOM      1  O   UNL     1     -17.219  56.088 -25.245  0.00  0.00    +0.000 OA
ATOM      2  O   UNL     1     -15.308  52.497 -24.636  0.00  0.00    +0.000 OA
ATOM      3  C   UNL     1     -15.944  54.613 -23.697  0.00  0.00    +0.000 A 
ATOM      4  C   UNL     1     -16.624  55.816 -24.009  0.00  0.00    +0.000 A 
ATOM      5  C   UNL     1     -17.149  55.122 -26.256  0.00  0.00    +0.000 A 
ATOM      6  C   UNL     1     -15.856  53.579 -24.745  0.00  0.00    +0.000 A 
ATOM      7  C   UNL     1     -16.517  54.052 -25.908  0.00  0.00    +0.000 A 
ATOM      8  C   UNL     1     -15.379  54.422 -22.437  0.00  0.00    +0.000 A 
ATOM      9  C   UNL     1     -16.729  56.815 -23.047  0.00  0.00    +0.000 A 
ATOM     10  C   UNL     1     -16.159  56.609 -21.792  0.00  0.00    +0.000 A 
ATOM     11  C   UNL     1     -15.487  55.426 -21.480  0.00  0.00    +0.000 A 
ENDROOT
BRANCH   5  12
ATOM     12  C   UNL     1     -17.770  55.408 -27.543  0.00  0.00    +0.000 A 
ATOM     13  C   UNL     1     -18.211  56.700 -27.844  0.00  0.00    +0.000 A 
ATOM     14  C   UNL     1     -17.933  54.397 -28.499  0.00  0.00    +0.000 A 
ATOM     15  C   UNL     1     -18.802  56.961 -29.073  0.00  0.00    +0.000 A 
ATOM     16  C   UNL     1     -18.527  54.659 -29.734  0.00  0.00    +0.000 A 
ATOM     17  C   UNL     1     -18.959  55.949 -30.013  0.00  0.00    +0.000 A 
BRANCH  15  18
ATOM     18  O   UNL     1     -19.229  58.228 -29.355  0.00  0.00    +0.000 OA
ATOM     19  H   UNL     1     -19.316  58.257 -30.329  0.00  0.00    +0.000 HD
ENDBRANCH  15  18
BRANCH  17  20
ATOM     20  O   UNL     1     -19.547  56.258 -31.209  0.00  0.00    +0.000 OA
ATOM     21  H   UNL     1     -20.239  55.593 -31.379  0.00  0.00    +0.000 HD
ENDBRANCH  17  20
ENDBRANCH   5  12
BRANCH   8  22
ATOM     22  O   UNL     1     -14.710  53.284 -22.078  0.00  0.00    +0.000 OA
ATOM     23  H   UNL     1     -14.091  53.027 -22.795  0.00  0.00    +0.000 HD
ENDBRANCH   8  22
BRANCH  10  24
ATOM     24  O   UNL     1     -16.272  57.603 -20.863  0.00  0.00    +0.000 OA
ATOM     25  H   UNL     1     -16.549  57.202 -20.019  0.00  0.00    +0.000 HD
ENDBRANCH  10  24
TORSDOF 5
ENDMDL
