MODEL 1
REMARK VINA RESULT:      -6.3      0.000      0.000
REMARK  Name = 5281698_sexangularetin.pdbqt.pdb
REMARK  6 active torsions:
REMARK  status: ('A' for Active; 'I' for Inactive)
REMARK    1  A    between atoms: C_5  and  C_12
REMARK    2  A    between atoms: C_6  and  O_20
REMARK    3  A    between atoms: C_8  and  O_22
REMARK    4  A    between atoms: C_9  and  O_24
REMARK    5  A    between atoms: C_10  and  O_26
REMARK    6  A    between atoms: C_17  and  O_18
REMARK                            x       y       z     vdW  Elec       q    Type
REMARK                         _______ _______ _______ _____ _____    ______ ____
ROOT
ATOM      1  O   UNL     1     -33.479  47.364 -18.649  0.00  0.00    +0.000 OA
ATOM      2  O   UNL     1     -35.145  48.609 -15.171  0.00  0.00    +0.000 OA
ATOM      3  C   UNL     1     -33.707  47.091 -16.253  0.00  0.00    +0.000 A 
ATOM      4  C   UNL     1     -33.177  46.705 -17.483  0.00  0.00    +0.000 A 
ATOM      5  C   UNL     1     -34.386  48.417 -18.630  0.00  0.00    +0.000 A 
ATOM      6  C   UNL     1     -32.289  45.623 -17.544  0.00  0.00    +0.000 A 
ATOM      7  C   UNL     1     -34.644  48.215 -16.222  0.00  0.00    +0.000 A 
ATOM      8  C   UNL     1     -34.968  48.876 -17.506  0.00  0.00    +0.000 A 
ATOM      9  C   UNL     1     -33.338  46.419 -15.082  0.00  0.00    +0.000 A 
ATOM     10  C   UNL     1     -31.895  44.983 -16.363  0.00  0.00    +0.000 A 
ATOM     11  C   UNL     1     -32.426  45.370 -15.135  0.00  0.00    +0.000 A 
ENDROOT
BRANCH   5  12
ATOM     12  C   UNL     1     -34.627  48.991 -19.970  0.00  0.00    +0.000 A 
ATOM     13  C   UNL     1     -34.385  48.214 -21.110  0.00  0.00    +0.000 A 
ATOM     14  C   UNL     1     -35.159  50.272 -20.144  0.00  0.00    +0.000 A 
ATOM     15  C   UNL     1     -34.642  48.708 -22.387  0.00  0.00    +0.000 A 
ATOM     16  C   UNL     1     -35.419  50.780 -21.416  0.00  0.00    +0.000 A 
ATOM     17  C   UNL     1     -35.158  49.991 -22.529  0.00  0.00    +0.000 A 
BRANCH  17  18
ATOM     18  O   UNL     1     -35.420  50.504 -23.765  0.00  0.00    +0.000 OA
ATOM     19  H   UNL     1     -36.323  50.869 -23.757  0.00  0.00    +0.000 HD
ENDBRANCH  17  18
ENDBRANCH   5  12
BRANCH   6  20
ATOM     20  O   UNL     1     -31.721  45.231 -18.732  0.00  0.00    +0.000 OA
ATOM     21  C   UNL     1     -32.516  44.267 -19.381  0.00  0.00    +0.000 C 
ENDBRANCH   6  20
BRANCH   8  22
ATOM     22  O   UNL     1     -35.842  49.945 -17.458  0.00  0.00    +0.000 OA
ATOM     23  H   UNL     1     -36.708  49.594 -17.756  0.00  0.00    +0.000 HD
ENDBRANCH   8  22
BRANCH   9  24
ATOM     24  O   UNL     1     -33.819  46.749 -13.845  0.00  0.00    +0.000 OA
ATOM     25  H   UNL     1     -34.751  47.052 -13.935  0.00  0.00    +0.000 HD
ENDBRANCH   9  24
BRANCH  10  26
ATOM     26  O   UNL     1     -30.968  43.980 -16.408  0.00  0.00    +0.000 OA
ATOM     27  H   UNL     1     -30.140  44.338 -16.780  0.00  0.00    +0.000 HD
ENDBRANCH  10  26
TORSDOF 6
ENDMDL
MODEL 2
REMARK VINA RESULT:      -6.2      7.820     12.681
REMARK  Name = 5281698_sexangularetin.pdbqt.pdb
REMARK  6 active torsions:
REMARK  status: ('A' for Active; 'I' for Inactive)
REMARK    1  A    between atoms: C_5  and  C_12
REMARK    2  A    between atoms: C_6  and  O_20
REMARK    3  A    between atoms: C_8  and  O_22
REMARK    4  A    between atoms: C_9  and  O_24
REMARK    5  A    between atoms: C_10  and  O_26
REMARK    6  A    between atoms: C_17  and  O_18
REMARK                            x       y       z     vdW  Elec       q    Type
REMARK                         _______ _______ _______ _____ _____    ______ ____
ROOT
ATOM      1  O   UNL     1     -35.061  45.237  -7.826  0.00  0.00    +0.000 OA
ATOM      2  O   UNL     1     -33.373  44.027 -11.305  0.00  0.00    +0.000 OA
ATOM      3  C   UNL     1     -35.053  45.293 -10.248  0.00  0.00    +0.000 A 
ATOM      4  C   UNL     1     -35.593  45.663  -9.017  0.00  0.00    +0.000 A 
ATOM      5  C   UNL     1     -33.982  44.360  -7.828  0.00  0.00    +0.000 A 
ATOM      6  C   UNL     1     -36.705  46.516  -8.980  0.00  0.00    +0.000 A 
ATOM      7  C   UNL     1     -33.900  44.390 -10.256  0.00  0.00    +0.000 A 
ATOM      8  C   UNL     1     -33.379  43.927  -8.951  0.00  0.00    +0.000 A 
ATOM      9  C   UNL     1     -35.599  45.787 -11.438  0.00  0.00    +0.000 A 
ATOM     10  C   UNL     1     -37.219  47.036 -10.173  0.00  0.00    +0.000 A 
ATOM     11  C   UNL     1     -36.677  46.665 -11.401  0.00  0.00    +0.000 A 
ENDROOT
BRANCH   5  12
ATOM     12  C   UNL     1     -33.557  43.971  -6.467  0.00  0.00    +0.000 A 
ATOM     13  C   UNL     1     -32.757  44.841  -5.716  0.00  0.00    +0.000 A 
ATOM     14  C   UNL     1     -33.984  42.782  -5.868  0.00  0.00    +0.000 A 
ATOM     15  C   UNL     1     -32.373  44.526  -4.415  0.00  0.00    +0.000 A 
ATOM     16  C   UNL     1     -33.606  42.453  -4.567  0.00  0.00    +0.000 A 
ATOM     17  C   UNL     1     -32.802  43.330  -3.851  0.00  0.00    +0.000 A 
BRANCH  17  18
ATOM     18  O   UNL     1     -32.444  42.991  -2.578  0.00  0.00    +0.000 OA
ATOM     19  H   UNL     1     -33.121  42.388  -2.223  0.00  0.00    +0.000 HD
ENDBRANCH  17  18
ENDBRANCH   5  12
BRANCH   6  20
ATOM     20  O   UNL     1     -37.248  46.928  -7.788  0.00  0.00    +0.000 OA
ATOM     21  C   UNL     1     -38.258  46.045  -7.357  0.00  0.00    +0.000 C 
ENDBRANCH   6  20
BRANCH   8  22
ATOM     22  O   UNL     1     -32.283  43.087  -8.976  0.00  0.00    +0.000 OA
ATOM     23  H   UNL     1     -32.471  42.385  -8.318  0.00  0.00    +0.000 HD
ENDBRANCH   8  22
BRANCH   9  24
ATOM     24  O   UNL     1     -35.114  45.465 -12.676  0.00  0.00    +0.000 OA
ATOM     25  H   UNL     1     -35.248  46.230 -13.280  0.00  0.00    +0.000 HD
ENDBRANCH   9  24
BRANCH  10  26
ATOM     26  O   UNL     1     -38.252  47.930 -10.137  0.00  0.00    +0.000 OA
ATOM     27  H   UNL     1     -38.648  47.913  -9.246  0.00  0.00    +0.000 HD
ENDBRANCH  10  26
TORSDOF 6
ENDMDL
MODEL 3
REMARK VINA RESULT:      -6.2      1.988      3.108
REMARK  Name = 5281698_sexangularetin.pdbqt.pdb
REMARK  6 active torsions:
REMARK  status: ('A' for Active; 'I' for Inactive)
REMARK    1  A    between atoms: C_5  and  C_12
REMARK    2  A    between atoms: C_6  and  O_20
REMARK    3  A    between atoms: C_8  and  O_22
REMARK    4  A    between atoms: C_9  and  O_24
REMARK    5  A    between atoms: C_10  and  O_26
REMARK    6  A    between atoms: C_17  and  O_18
REMARK                            x       y       z     vdW  Elec       q    Type
REMARK                         _______ _______ _______ _____ _____    ______ ____
ROOT
ATOM      1  O   UNL     1     -32.209  45.984 -17.850  0.00  0.00    +0.000 OA
ATOM      2  O   UNL     1     -34.325  44.050 -14.987  0.00  0.00    +0.000 OA
ATOM      3  C   UNL     1     -32.352  44.157 -16.266  0.00  0.00    +0.000 A 
ATOM      4  C   UNL     1     -31.681  44.861 -17.264  0.00  0.00    +0.000 A 
ATOM      5  C   UNL     1     -33.480  46.416 -17.489  0.00  0.00    +0.000 A 
ATOM      6  C   UNL     1     -30.413  44.430 -17.680  0.00  0.00    +0.000 A 
ATOM      7  C   UNL     1     -33.680  44.622 -15.863  0.00  0.00    +0.000 A 
ATOM      8  C   UNL     1     -34.227  45.816 -16.544  0.00  0.00    +0.000 A 
ATOM      9  C   UNL     1     -31.757  43.042 -15.663  0.00  0.00    +0.000 A 
ATOM     10  C   UNL     1     -29.810  43.339 -17.044  0.00  0.00    +0.000 A 
ATOM     11  C   UNL     1     -30.483  42.638 -16.047  0.00  0.00    +0.000 A 
ENDROOT
BRANCH   5  12
ATOM     12  C   UNL     1     -33.913  47.613 -18.238  0.00  0.00    +0.000 A 
ATOM     13  C   UNL     1     -34.238  47.501 -19.596  0.00  0.00    +0.000 A 
ATOM     14  C   UNL     1     -34.079  48.856 -17.620  0.00  0.00    +0.000 A 
ATOM     15  C   UNL     1     -34.691  48.600 -20.322  0.00  0.00    +0.000 A 
ATOM     16  C   UNL     1     -34.529  49.964 -18.335  0.00  0.00    +0.000 A 
ATOM     17  C   UNL     1     -34.832  49.826 -19.683  0.00  0.00    +0.000 A 
BRANCH  17  18
ATOM     18  O   UNL     1     -35.273  50.922 -20.366  0.00  0.00    +0.000 OA
ATOM     19  H   UNL     1     -34.537  51.261 -20.905  0.00  0.00    +0.000 HD
ENDBRANCH  17  18
ENDBRANCH   5  12
BRANCH   6  20
ATOM     20  O   UNL     1     -29.705  45.113 -18.639  0.00  0.00    +0.000 OA
ATOM     21  C   UNL     1     -29.795  44.472 -19.889  0.00  0.00    +0.000 C 
ENDBRANCH   6  20
BRANCH   8  22
ATOM     22  O   UNL     1     -35.476  46.250 -16.141  0.00  0.00    +0.000 OA
ATOM     23  H   UNL     1     -35.417  47.228 -16.100  0.00  0.00    +0.000 HD
ENDBRANCH   8  22
BRANCH   9  24
ATOM     24  O   UNL     1     -32.361  42.311 -14.678  0.00  0.00    +0.000 OA
ATOM     25  H   UNL     1     -33.337  42.363 -14.794  0.00  0.00    +0.000 HD
ENDBRANCH   9  24
BRANCH  10  26
ATOM     26  O   UNL     1     -28.542  42.965 -17.390  0.00  0.00    +0.000 OA
ATOM     27  H   UNL     1     -27.999  43.768 -17.499  0.00  0.00    +0.000 HD
ENDBRANCH  10  26
TORSDOF 6
ENDMDL
MODEL 4
REMARK VINA RESULT:      -6.0      3.604      7.397
REMARK  Name = 5281698_sexangularetin.pdbqt.pdb
REMARK  6 active torsions:
REMARK  status: ('A' for Active; 'I' for Inactive)
REMARK    1  A    between atoms: C_5  and  C_12
REMARK    2  A    between atoms: C_6  and  O_20
REMARK    3  A    between atoms: C_8  and  O_22
REMARK    4  A    between atoms: C_9  and  O_24
REMARK    5  A    between atoms: C_10  and  O_26
REMARK    6  A    between atoms: C_17  and  O_18
REMARK                            x       y       z     vdW  Elec       q    Type
REMARK                         _______ _______ _______ _____ _____    ______ ____
ROOT
ATOM      1  O   UNL     1     -32.584  44.448 -14.950  0.00  0.00    +0.000 OA
ATOM      2  O   UNL     1     -32.951  47.202 -17.899  0.00  0.00    +0.000 OA
ATOM      3  C   UNL     1     -33.671  46.443 -15.790  0.00  0.00    +0.000 A 
ATOM      4  C   UNL     1     -33.503  45.458 -14.818  0.00  0.00    +0.000 A 
ATOM      5  C   UNL     1     -31.825  44.354 -16.111  0.00  0.00    +0.000 A 
ATOM      6  C   UNL     1     -34.280  45.500 -13.651  0.00  0.00    +0.000 A 
ATOM      7  C   UNL     1     -32.857  46.365 -17.004  0.00  0.00    +0.000 A 
ATOM      8  C   UNL     1     -31.902  45.240 -17.121  0.00  0.00    +0.000 A 
ATOM      9  C   UNL     1     -34.589  47.481 -15.595  0.00  0.00    +0.000 A 
ATOM     10  C   UNL     1     -35.166  46.564 -13.448  0.00  0.00    +0.000 A 
ATOM     11  C   UNL     1     -35.331  47.546 -14.420  0.00  0.00    +0.000 A 
ENDROOT
BRANCH   5  12
ATOM     12  C   UNL     1     -30.913  43.192 -16.108  0.00  0.00    +0.000 A 
ATOM     13  C   UNL     1     -29.529  43.397 -16.039  0.00  0.00    +0.000 A 
ATOM     14  C   UNL     1     -31.387  41.876 -16.103  0.00  0.00    +0.000 A 
ATOM     15  C   UNL     1     -28.643  42.323 -15.991  0.00  0.00    +0.000 A 
ATOM     16  C   UNL     1     -30.512  40.793 -16.057  0.00  0.00    +0.000 A 
ATOM     17  C   UNL     1     -29.144  41.027 -16.001  0.00  0.00    +0.000 A 
BRANCH  17  18
ATOM     18  O   UNL     1     -28.302  39.954 -15.955  0.00  0.00    +0.000 OA
ATOM     19  H   UNL     1     -28.455  39.485 -15.115  0.00  0.00    +0.000 HD
ENDBRANCH  17  18
ENDBRANCH   5  12
BRANCH   6  20
ATOM     20  O   UNL     1     -34.124  44.567 -12.656  0.00  0.00    +0.000 OA
ATOM     21  C   UNL     1     -33.109  44.949 -11.756  0.00  0.00    +0.000 C 
ENDBRANCH   6  20
BRANCH   8  22
ATOM     22  O   UNL     1     -31.131  45.189 -18.267  0.00  0.00    +0.000 OA
ATOM     23  H   UNL     1     -31.725  44.859 -18.973  0.00  0.00    +0.000 HD
ENDBRANCH   8  22
BRANCH   9  24
ATOM     24  O   UNL     1     -34.798  48.478 -16.508  0.00  0.00    +0.000 OA
ATOM     25  H   UNL     1     -34.407  48.209 -17.370  0.00  0.00    +0.000 HD
ENDBRANCH   9  24
BRANCH  10  26
ATOM     26  O   UNL     1     -35.866  46.653 -12.277  0.00  0.00    +0.000 OA
ATOM     27  H   UNL     1     -35.637  47.494 -11.840  0.00  0.00    +0.000 HD
ENDBRANCH  10  26
TORSDOF 6
ENDMDL
MODEL 5
REMARK VINA RESULT:      -5.9      8.011     11.240
REMARK  Name = 5281698_sexangularetin.pdbqt.pdb
REMARK  6 active torsions:
REMARK  status: ('A' for Active; 'I' for Inactive)
REMARK    1  A    between atoms: C_5  and  C_12
REMARK    2  A    between atoms: C_6  and  O_20
REMARK    3  A    between atoms: C_8  and  O_22
REMARK    4  A    between atoms: C_9  and  O_24
REMARK    5  A    between atoms: C_10  and  O_26
REMARK    6  A    between atoms: C_17  and  O_18
REMARK                            x       y       z     vdW  Elec       q    Type
REMARK                         _______ _______ _______ _____ _____    ______ ____
ROOT
ATOM      1  O   UNL     1     -34.254  43.411  -8.104  0.00  0.00    +0.000 OA
ATOM      2  O   UNL     1     -32.603  46.052  -5.512  0.00  0.00    +0.000 OA
ATOM      3  C   UNL     1     -33.574  43.932  -5.838  0.00  0.00    +0.000 A 
ATOM      4  C   UNL     1     -34.143  43.075  -6.779  0.00  0.00    +0.000 A 
ATOM      5  C   UNL     1     -33.844  44.669  -8.533  0.00  0.00    +0.000 A 
ATOM      6  C   UNL     1     -34.602  41.813  -6.374  0.00  0.00    +0.000 A 
ATOM      7  C   UNL     1     -33.117  45.249  -6.288  0.00  0.00    +0.000 A 
ATOM      8  C   UNL     1     -33.287  45.585  -7.718  0.00  0.00    +0.000 A 
ATOM      9  C   UNL     1     -33.439  43.531  -4.505  0.00  0.00    +0.000 A 
ATOM     10  C   UNL     1     -34.426  41.406  -5.047  0.00  0.00    +0.000 A 
ATOM     11  C   UNL     1     -33.858  42.265  -4.110  0.00  0.00    +0.000 A 
ENDROOT
BRANCH   5  12
ATOM     12  C   UNL     1     -34.067  44.884  -9.977  0.00  0.00    +0.000 A 
ATOM     13  C   UNL     1     -35.251  45.492 -10.413  0.00  0.00    +0.000 A 
ATOM     14  C   UNL     1     -33.098  44.562 -10.933  0.00  0.00    +0.000 A 
ATOM     15  C   UNL     1     -35.474  45.749 -11.764  0.00  0.00    +0.000 A 
ATOM     16  C   UNL     1     -33.310  44.811 -12.288  0.00  0.00    +0.000 A 
ATOM     17  C   UNL     1     -34.499  45.404 -12.692  0.00  0.00    +0.000 A 
BRANCH  17  18
ATOM     18  O   UNL     1     -34.687  45.642 -14.022  0.00  0.00    +0.000 OA
ATOM     19  H   UNL     1     -35.607  45.934 -14.151  0.00  0.00    +0.000 HD
ENDBRANCH  17  18
ENDBRANCH   5  12
BRANCH   6  20
ATOM     20  O   UNL     1     -35.140  40.927  -7.275  0.00  0.00    +0.000 OA
ATOM     21  C   UNL     1     -34.136  40.149  -7.883  0.00  0.00    +0.000 C 
ENDBRANCH   6  20
BRANCH   8  22
ATOM     22  O   UNL     1     -32.836  46.825  -8.129  0.00  0.00    +0.000 OA
ATOM     23  H   UNL     1     -33.055  47.442  -7.399  0.00  0.00    +0.000 HD
ENDBRANCH   8  22
BRANCH   9  24
ATOM     24  O   UNL     1     -32.888  44.324  -3.535  0.00  0.00    +0.000 OA
ATOM     25  H   UNL     1     -32.173  44.867  -3.936  0.00  0.00    +0.000 HD
ENDBRANCH   9  24
BRANCH  10  26
ATOM     26  O   UNL     1     -34.799  40.148  -4.666  0.00  0.00    +0.000 OA
ATOM     27  H   UNL     1     -35.152  39.678  -5.445  0.00  0.00    +0.000 HD
ENDBRANCH  10  26
TORSDOF 6
ENDMDL
MODEL 6
REMARK VINA RESULT:      -5.8     19.474     20.935
REMARK  Name = 5281698_sexangularetin.pdbqt.pdb
REMARK  6 active torsions:
REMARK  status: ('A' for Active; 'I' for Inactive)
REMARK    1  A    between atoms: C_5  and  C_12
REMARK    2  A    between atoms: C_6  and  O_20
REMARK    3  A    between atoms: C_8  and  O_22
REMARK    4  A    between atoms: C_9  and  O_24
REMARK    5  A    between atoms: C_10  and  O_26
REMARK    6  A    between atoms: C_17  and  O_18
REMARK                            x       y       z     vdW  Elec       q    Type
REMARK                         _______ _______ _______ _____ _____    ______ ____
ROOT
ATOM      1  O   UNL     1     -17.353  54.823 -26.140  0.00  0.00    +0.000 OA
ATOM      2  O   UNL     1     -17.393  58.591 -27.630  0.00  0.00    +0.000 OA
ATOM      3  C   UNL     1     -17.857  56.311 -27.984  0.00  0.00    +0.000 A 
ATOM      4  C   UNL     1     -17.807  55.038 -27.417  0.00  0.00    +0.000 A 
ATOM      5  C   UNL     1     -16.869  55.890 -25.392  0.00  0.00    +0.000 A 
ATOM      6  C   UNL     1     -18.251  53.934 -28.158  0.00  0.00    +0.000 A 
ATOM      7  C   UNL     1     -17.373  57.443 -27.192  0.00  0.00    +0.000 A 
ATOM      8  C   UNL     1     -16.860  57.162 -25.833  0.00  0.00    +0.000 A 
ATOM      9  C   UNL     1     -18.369  56.491 -29.274  0.00  0.00    +0.000 A 
ATOM     10  C   UNL     1     -18.798  54.129 -29.432  0.00  0.00    +0.000 A 
ATOM     11  C   UNL     1     -18.847  55.402 -29.995  0.00  0.00    +0.000 A 
ENDROOT
BRANCH   5  12
ATOM     12  C   UNL     1     -16.386  55.483 -24.056  0.00  0.00    +0.000 A 
ATOM     13  C   UNL     1     -16.677  56.278 -22.941  0.00  0.00    +0.000 A 
ATOM     14  C   UNL     1     -15.698  54.282 -23.851  0.00  0.00    +0.000 A 
ATOM     15  C   UNL     1     -16.274  55.901 -21.662  0.00  0.00    +0.000 A 
ATOM     16  C   UNL     1     -15.287  53.895 -22.577  0.00  0.00    +0.000 A 
ATOM     17  C   UNL     1     -15.580  54.710 -21.491  0.00  0.00    +0.000 A 
BRANCH  17  18
ATOM     18  O   UNL     1     -15.171  54.312 -20.251  0.00  0.00    +0.000 OA
ATOM     19  H   UNL     1     -15.963  54.136 -19.713  0.00  0.00    +0.000 HD
ENDBRANCH  17  18
ENDBRANCH   5  12
BRANCH   6  20
ATOM     20  O   UNL     1     -18.246  52.668 -27.625  0.00  0.00    +0.000 OA
ATOM     21  C   UNL     1     -17.029  52.011 -27.889  0.00  0.00    +0.000 C 
ENDBRANCH   6  20
BRANCH   8  22
ATOM     22  O   UNL     1     -16.421  58.244 -25.093  0.00  0.00    +0.000 OA
ATOM     23  H   UNL     1     -15.533  57.996 -24.762  0.00  0.00    +0.000 HD
ENDBRANCH   8  22
BRANCH   9  24
ATOM     24  O   UNL     1     -18.449  57.712 -29.885  0.00  0.00    +0.000 OA
ATOM     25  H   UNL     1     -17.586  58.176 -29.785  0.00  0.00    +0.000 HD
ENDBRANCH   9  24
BRANCH  10  26
ATOM     26  O   UNL     1     -19.305  53.067 -30.125  0.00  0.00    +0.000 OA
ATOM     27  H   UNL     1     -18.577  52.450 -30.327  0.00  0.00    +0.000 HD
ENDBRANCH  10  26
TORSDOF 6
ENDMDL
MODEL 7
REMARK VINA RESULT:      -5.8     14.872     16.656
REMARK  Name = 5281698_sexangularetin.pdbqt.pdb
REMARK  6 active torsions:
REMARK  status: ('A' for Active; 'I' for Inactive)
REMARK    1  A    between atoms: C_5  and  C_12
REMARK    2  A    between atoms: C_6  and  O_20
REMARK    3  A    between atoms: C_8  and  O_22
REMARK    4  A    between atoms: C_9  and  O_24
REMARK    5  A    between atoms: C_10  and  O_26
REMARK    6  A    between atoms: C_17  and  O_18
REMARK                            x       y       z     vdW  Elec       q    Type
REMARK                         _______ _______ _______ _____ _____    ______ ____
ROOT
ATOM      1  O   UNL     1     -30.772  60.146 -28.211  0.00  0.00    +0.000 OA
ATOM      2  O   UNL     1     -28.400  61.042 -25.051  0.00  0.00    +0.000 OA
ATOM      3  C   UNL     1     -28.545  60.545 -27.347  0.00  0.00    +0.000 A 
ATOM      4  C   UNL     1     -29.414  60.229 -28.389  0.00  0.00    +0.000 A 
ATOM      5  C   UNL     1     -31.313  60.323 -26.942  0.00  0.00    +0.000 A 
ATOM      6  C   UNL     1     -28.899  60.007 -29.674  0.00  0.00    +0.000 A 
ATOM      7  C   UNL     1     -29.110  60.758 -26.013  0.00  0.00    +0.000 A 
ATOM      8  C   UNL     1     -30.575  60.625 -25.857  0.00  0.00    +0.000 A 
ATOM      9  C   UNL     1     -27.170  60.664 -27.582  0.00  0.00    +0.000 A 
ATOM     10  C   UNL     1     -27.529  60.167 -29.909  0.00  0.00    +0.000 A 
ATOM     11  C   UNL     1     -26.663  60.483 -28.865  0.00  0.00    +0.000 A 
ENDROOT
BRANCH   5  12
ATOM     12  C   UNL     1     -32.781  60.164 -26.916  0.00  0.00    +0.000 A 
ATOM     13  C   UNL     1     -33.593  61.268 -26.629  0.00  0.00    +0.000 A 
ATOM     14  C   UNL     1     -33.402  58.953 -27.238  0.00  0.00    +0.000 A 
ATOM     15  C   UNL     1     -34.982  61.164 -26.638  0.00  0.00    +0.000 A 
ATOM     16  C   UNL     1     -34.791  58.834 -27.249  0.00  0.00    +0.000 A 
ATOM     17  C   UNL     1     -35.570  59.944 -26.949  0.00  0.00    +0.000 A 
BRANCH  17  18
ATOM     18  O   UNL     1     -36.928  59.809 -26.967  0.00  0.00    +0.000 OA
ATOM     19  H   UNL     1     -37.322  60.686 -26.818  0.00  0.00    +0.000 HD
ENDBRANCH  17  18
ENDBRANCH   5  12
BRANCH   6  20
ATOM     20  O   UNL     1     -29.725  59.724 -30.735  0.00  0.00    +0.000 OA
ATOM     21  C   UNL     1     -29.955  58.338 -30.844  0.00  0.00    +0.000 C 
ENDBRANCH   6  20
BRANCH   8  22
ATOM     22  O   UNL     1     -31.093  60.843 -24.595  0.00  0.00    +0.000 OA
ATOM     23  H   UNL     1     -32.026  61.110 -24.733  0.00  0.00    +0.000 HD
ENDBRANCH   8  22
BRANCH   9  24
ATOM     24  O   UNL     1     -26.266  60.974 -26.604  0.00  0.00    +0.000 OA
ATOM     25  H   UNL     1     -26.619  60.673 -25.736  0.00  0.00    +0.000 HD
ENDBRANCH   9  24
BRANCH  10  26
ATOM     26  O   UNL     1     -27.034  60.030 -31.175  0.00  0.00    +0.000 OA
ATOM     27  H   UNL     1     -26.795  59.095 -31.317  0.00  0.00    +0.000 HD
ENDBRANCH  10  26
TORSDOF 6
ENDMDL
MODEL 8
REMARK VINA RESULT:      -5.8     15.812     17.129
REMARK  Name = 5281698_sexangularetin.pdbqt.pdb
REMARK  6 active torsions:
REMARK  status: ('A' for Active; 'I' for Inactive)
REMARK    1  A    between atoms: C_5  and  C_12
REMARK    2  A    between atoms: C_6  and  O_20
REMARK    3  A    between atoms: C_8  and  O_22
REMARK    4  A    between atoms: C_9  and  O_24
REMARK    5  A    between atoms: C_10  and  O_26
REMARK    6  A    between atoms: C_17  and  O_18
REMARK                            x       y       z     vdW  Elec       q    Type
REMARK                         _______ _______ _______ _____ _____    ______ ____
ROOT
ATOM      1  O   UNL     1     -29.551  62.124 -25.768  0.00  0.00    +0.000 OA
ATOM      2  O   UNL     1     -33.389  60.830 -25.853  0.00  0.00    +0.000 OA
ATOM      3  C   UNL     1     -31.718  62.014 -24.692  0.00  0.00    +0.000 A 
ATOM      4  C   UNL     1     -30.385  62.419 -24.719  0.00  0.00    +0.000 A 
ATOM      5  C   UNL     1     -30.017  61.347 -26.823  0.00  0.00    +0.000 A 
ATOM      6  C   UNL     1     -29.870  63.171 -23.654  0.00  0.00    +0.000 A 
ATOM      7  C   UNL     1     -32.223  61.217 -25.812  0.00  0.00    +0.000 A 
ATOM      8  C   UNL     1     -31.282  60.892 -26.906  0.00  0.00    +0.000 A 
ATOM      9  C   UNL     1     -32.546  62.374 -23.624  0.00  0.00    +0.000 A 
ATOM     10  C   UNL     1     -30.716  63.561 -22.609  0.00  0.00    +0.000 A 
ATOM     11  C   UNL     1     -32.047  63.155 -22.586  0.00  0.00    +0.000 A 
ENDROOT
BRANCH   5  12
ATOM     12  C   UNL     1     -28.985  61.092 -27.848  0.00  0.00    +0.000 A 
ATOM     13  C   UNL     1     -27.711  60.664 -27.457  0.00  0.00    +0.000 A 
ATOM     14  C   UNL     1     -29.257  61.197 -29.216  0.00  0.00    +0.000 A 
ATOM     15  C   UNL     1     -26.727  60.373 -28.400  0.00  0.00    +0.000 A 
ATOM     16  C   UNL     1     -28.281  60.911 -30.170  0.00  0.00    +0.000 A 
ATOM     17  C   UNL     1     -27.022  60.500 -29.752  0.00  0.00    +0.000 A 
BRANCH  17  18
ATOM     18  O   UNL     1     -26.081  60.223 -30.701  0.00  0.00    +0.000 OA
ATOM     19  H   UNL     1     -25.785  61.065 -31.088  0.00  0.00    +0.000 HD
ENDBRANCH  17  18
ENDBRANCH   5  12
BRANCH   6  20
ATOM     20  O   UNL     1     -28.570  63.616 -23.657  0.00  0.00    +0.000 OA
ATOM     21  C   UNL     1     -27.716  62.690 -23.029  0.00  0.00    +0.000 C 
ENDBRANCH   6  20
BRANCH   8  22
ATOM     22  O   UNL     1     -31.779  60.152 -27.962  0.00  0.00    +0.000 OA
ATOM     23  H   UNL     1     -31.208  60.367 -28.729  0.00  0.00    +0.000 HD
ENDBRANCH   8  22
BRANCH   9  24
ATOM     24  O   UNL     1     -33.862  62.011 -23.539  0.00  0.00    +0.000 OA
ATOM     25  H   UNL     1     -33.954  61.075 -23.828  0.00  0.00    +0.000 HD
ENDBRANCH   9  24
BRANCH  10  26
ATOM     26  O   UNL     1     -30.239  64.362 -21.610  0.00  0.00    +0.000 OA
ATOM     27  H   UNL     1     -30.803  64.246 -20.822  0.00  0.00    +0.000 HD
ENDBRANCH  10  26
TORSDOF 6
ENDMDL
MODEL 9
REMARK VINA RESULT:      -5.7     15.741     17.782
REMARK  Name = 5281698_sexangularetin.pdbqt.pdb
REMARK  6 active torsions:
REMARK  status: ('A' for Active; 'I' for Inactive)
REMARK    1  A    between atoms: C_5  and  C_12
REMARK    2  A    between atoms: C_6  and  O_20
REMARK    3  A    between atoms: C_8  and  O_22
REMARK    4  A    between atoms: C_9  and  O_24
REMARK    5  A    between atoms: C_10  and  O_26
REMARK    6  A    between atoms: C_17  and  O_18
REMARK                            x       y       z     vdW  Elec       q    Type
REMARK                         _______ _______ _______ _____ _____    ______ ____
ROOT
ATOM      1  O   UNL     1     -29.602  62.146 -25.664  0.00  0.00    +0.000 OA
ATOM      2  O   UNL     1     -28.032  65.206 -23.522  0.00  0.00    +0.000 OA
ATOM      3  C   UNL     1     -29.801  63.676 -23.797  0.00  0.00    +0.000 A 
ATOM      4  C   UNL     1     -30.291  62.634 -24.582  0.00  0.00    +0.000 A 
ATOM      5  C   UNL     1     -28.401  62.736 -26.040  0.00  0.00    +0.000 A 
ATOM      6  C   UNL     1     -31.518  62.041 -24.255  0.00  0.00    +0.000 A 
ATOM      7  C   UNL     1     -28.523  64.286 -24.172  0.00  0.00    +0.000 A 
ATOM      8  C   UNL     1     -27.830  63.752 -25.366  0.00  0.00    +0.000 A 
ATOM      9  C   UNL     1     -30.514  64.114 -22.676  0.00  0.00    +0.000 A 
ATOM     10  C   UNL     1     -32.205  62.459 -23.109  0.00  0.00    +0.000 A 
ATOM     11  C   UNL     1     -31.712  63.500 -22.326  0.00  0.00    +0.000 A 
ENDROOT
BRANCH   5  12
ATOM     12  C   UNL     1     -27.809  62.117 -27.244  0.00  0.00    +0.000 A 
ATOM     13  C   UNL     1     -27.248  60.837 -27.160  0.00  0.00    +0.000 A 
ATOM     14  C   UNL     1     -27.849  62.741 -28.495  0.00  0.00    +0.000 A 
ATOM     15  C   UNL     1     -26.721  60.206 -28.285  0.00  0.00    +0.000 A 
ATOM     16  C   UNL     1     -27.323  62.122 -29.627  0.00  0.00    +0.000 A 
ATOM     17  C   UNL     1     -26.762  60.856 -29.512  0.00  0.00    +0.000 A 
BRANCH  17  18
ATOM     18  O   UNL     1     -26.254  60.266 -30.632  0.00  0.00    +0.000 OA
ATOM     19  H   UNL     1     -25.786  60.946 -31.147  0.00  0.00    +0.000 HD
ENDBRANCH  17  18
ENDBRANCH   5  12
BRANCH   6  20
ATOM     20  O   UNL     1     -32.021  60.992 -24.984  0.00  0.00    +0.000 OA
ATOM     21  C   UNL     1     -32.865  61.449 -26.016  0.00  0.00    +0.000 C 
ENDBRANCH   6  20
BRANCH   8  22
ATOM     22  O   UNL     1     -26.619  64.328 -25.697  0.00  0.00    +0.000 OA
ATOM     23  H   UNL     1     -26.013  63.581 -25.887  0.00  0.00    +0.000 HD
ENDBRANCH   8  22
BRANCH   9  24
ATOM     24  O   UNL     1     -30.086  65.128 -21.864  0.00  0.00    +0.000 OA
ATOM     25  H   UNL     1     -30.811  65.367 -21.243  0.00  0.00    +0.000 HD
ENDBRANCH   9  24
BRANCH  10  26
ATOM     26  O   UNL     1     -33.361  61.830 -22.741  0.00  0.00    +0.000 OA
ATOM     27  H   UNL     1     -33.893  62.445 -22.202  0.00  0.00    +0.000 HD
ENDBRANCH  10  26
TORSDOF 6
ENDMDL
