MODEL 1
REMARK VINA RESULT:      -4.9      0.000      0.000
REMARK  Name = 5281416_Esculetin.pdbqt.pdb
REMARK  2 active torsions:
REMARK  status: ('A' for Active; 'I' for Inactive)
REMARK    1  A    between atoms: C_7  and  O_12
REMARK    2  A    between atoms: C_8  and  O_14
REMARK                            x       y       z     vdW  Elec       q    Type
REMARK                         _______ _______ _______ _____ _____    ______ ____
ROOT
ATOM      1  O   UNL     1     -27.130  60.396 -28.113  0.00  0.00    +0.000 OA
ATOM      2  O   UNL     1     -26.122  60.076 -30.208  0.00  0.00    +0.000 OA
ATOM      3  C   UNL     1     -29.623  60.417 -28.079  0.00  0.00    +0.000 A 
ATOM      4  C   UNL     1     -28.380  60.511 -27.394  0.00  0.00    +0.000 A 
ATOM      5  C   UNL     1     -30.824  60.527 -27.397  0.00  0.00    +0.000 A 
ATOM      6  C   UNL     1     -28.323  60.716 -26.023  0.00  0.00    +0.000 A 
ATOM      7  C   UNL     1     -30.763  60.732 -26.020  0.00  0.00    +0.000 A 
ATOM      8  C   UNL     1     -29.535  60.824 -25.348  0.00  0.00    +0.000 A 
ATOM      9  C   UNL     1     -29.500  60.208 -29.474  0.00  0.00    +0.000 A 
ATOM     10  C   UNL     1     -28.458  60.116 -30.049  0.00  0.00    +0.000 A 
ATOM     11  C   UNL     1     -27.124  60.186 -29.519  0.00  0.00    +0.000 A 
ENDROOT
BRANCH   7  12
ATOM     12  O   UNL     1     -31.907  60.851 -25.275  0.00  0.00    +0.000 OA
ATOM     13  H   UNL     1     -31.942  61.761 -24.925  0.00  0.00    +0.000 HD
ENDBRANCH   7  12
BRANCH   8  14
ATOM     14  O   UNL     1     -29.522  61.026 -23.995  0.00  0.00    +0.000 OA
ATOM     15  H   UNL     1     -30.286  61.610 -23.814  0.00  0.00    +0.000 HD
ENDBRANCH   8  14
TORSDOF 2
ENDMDL
MODEL 2
REMARK VINA RESULT:      -4.9     25.706     27.741
REMARK  Name = 5281416_Esculetin.pdbqt.pdb
REMARK  2 active torsions:
REMARK  status: ('A' for Active; 'I' for Inactive)
REMARK    1  A    between atoms: C_7  and  O_12
REMARK    2  A    between atoms: C_8  and  O_14
REMARK                            x       y       z     vdW  Elec       q    Type
REMARK                         _______ _______ _______ _____ _____    ______ ____
ROOT
ATOM      1  O   UNL     1     -35.000  43.351  -4.657  0.00  0.00    +0.000 OA
ATOM      2  O   UNL     1     -34.642  41.760  -2.970  0.00  0.00    +0.000 OA
ATOM      3  C   UNL     1     -32.981  44.562  -5.480  0.00  0.00    +0.000 A 
ATOM      4  C   UNL     1     -34.384  44.330  -5.526  0.00  0.00    +0.000 A 
ATOM      5  C   UNL     1     -32.385  45.497  -6.309  0.00  0.00    +0.000 A 
ATOM      6  C   UNL     1     -35.204  45.028  -6.400  0.00  0.00    +0.000 A 
ATOM      7  C   UNL     1     -33.211  46.197  -7.185  0.00  0.00    +0.000 A 
ATOM      8  C   UNL     1     -34.595  45.965  -7.228  0.00  0.00    +0.000 A 
ATOM      9  C   UNL     1     -32.295  43.764  -4.532  0.00  0.00    +0.000 A 
ATOM     10  C   UNL     1     -32.822  42.961  -3.823  0.00  0.00    +0.000 A 
ATOM     11  C   UNL     1     -34.212  42.603  -3.739  0.00  0.00    +0.000 A 
ENDROOT
BRANCH   7  12
ATOM     12  O   UNL     1     -32.697  47.138  -8.038  0.00  0.00    +0.000 OA
ATOM     13  H   UNL     1     -32.763  48.007  -7.598  0.00  0.00    +0.000 HD
ENDBRANCH   7  12
BRANCH   8  14
ATOM     14  O   UNL     1     -35.368  46.675  -8.104  0.00  0.00    +0.000 OA
ATOM     15  H   UNL     1     -34.881  46.657  -8.952  0.00  0.00    +0.000 HD
ENDBRANCH   8  14
TORSDOF 2
ENDMDL
MODEL 3
REMARK VINA RESULT:      -4.8     24.600     25.997
REMARK  Name = 5281416_Esculetin.pdbqt.pdb
REMARK  2 active torsions:
REMARK  status: ('A' for Active; 'I' for Inactive)
REMARK    1  A    between atoms: C_7  and  O_12
REMARK    2  A    between atoms: C_8  and  O_14
REMARK                            x       y       z     vdW  Elec       q    Type
REMARK                         _______ _______ _______ _____ _____    ______ ____
ROOT
ATOM      1  O   UNL     1     -36.547  46.202  -6.360  0.00  0.00    +0.000 OA
ATOM      2  O   UNL     1     -38.513  47.358  -6.910  0.00  0.00    +0.000 OA
ATOM      3  C   UNL     1     -34.891  45.901  -8.200  0.00  0.00    +0.000 A 
ATOM      4  C   UNL     1     -35.279  45.702  -6.847  0.00  0.00    +0.000 A 
ATOM      5  C   UNL     1     -33.679  45.425  -8.673  0.00  0.00    +0.000 A 
ATOM      6  C   UNL     1     -34.462  45.027  -5.951  0.00  0.00    +0.000 A 
ATOM      7  C   UNL     1     -32.861  44.748  -7.772  0.00  0.00    +0.000 A 
ATOM      8  C   UNL     1     -33.247  44.554  -6.437  0.00  0.00    +0.000 A 
ATOM      9  C   UNL     1     -35.842  46.609  -8.976  0.00  0.00    +0.000 A 
ATOM     10  C   UNL     1     -36.883  47.014  -8.555  0.00  0.00    +0.000 A 
ATOM     11  C   UNL     1     -37.428  46.902  -7.230  0.00  0.00    +0.000 A 
ENDROOT
BRANCH   7  12
ATOM     12  O   UNL     1     -31.647  44.247  -8.162  0.00  0.00    +0.000 OA
ATOM     13  H   UNL     1     -30.961  44.888  -7.899  0.00  0.00    +0.000 HD
ENDBRANCH   7  12
BRANCH   8  14
ATOM     14  O   UNL     1     -32.413  43.882  -5.586  0.00  0.00    +0.000 OA
ATOM     15  H   UNL     1     -32.988  43.259  -5.099  0.00  0.00    +0.000 HD
ENDBRANCH   8  14
TORSDOF 2
ENDMDL
MODEL 4
REMARK VINA RESULT:      -4.8      1.050      2.204
REMARK  Name = 5281416_Esculetin.pdbqt.pdb
REMARK  2 active torsions:
REMARK  status: ('A' for Active; 'I' for Inactive)
REMARK    1  A    between atoms: C_7  and  O_12
REMARK    2  A    between atoms: C_8  and  O_14
REMARK                            x       y       z     vdW  Elec       q    Type
REMARK                         _______ _______ _______ _____ _____    ______ ____
ROOT
ATOM      1  O   UNL     1     -28.894  60.036 -29.298  0.00  0.00    +0.000 OA
ATOM      2  O   UNL     1     -27.029  59.980 -30.721  0.00  0.00    +0.000 OA
ATOM      3  C   UNL     1     -28.448  60.623 -26.915  0.00  0.00    +0.000 A 
ATOM      4  C   UNL     1     -29.360  60.269 -27.948  0.00  0.00    +0.000 A 
ATOM      5  C   UNL     1     -28.888  60.847 -25.621  0.00  0.00    +0.000 A 
ATOM      6  C   UNL     1     -30.719  60.136 -27.700  0.00  0.00    +0.000 A 
ATOM      7  C   UNL     1     -30.252  60.713 -25.375  0.00  0.00    +0.000 A 
ATOM      8  C   UNL     1     -31.149  60.364 -26.397  0.00  0.00    +0.000 A 
ATOM      9  C   UNL     1     -27.100  60.715 -27.342  0.00  0.00    +0.000 A 
ATOM     10  C   UNL     1     -26.736  60.519 -28.461  0.00  0.00    +0.000 A 
ATOM     11  C   UNL     1     -27.513  60.157 -29.615  0.00  0.00    +0.000 A 
ENDROOT
BRANCH   7  12
ATOM     12  O   UNL     1     -30.765  60.919 -24.121  0.00  0.00    +0.000 OA
ATOM     13  H   UNL     1     -30.157  60.508 -23.479  0.00  0.00    +0.000 HD
ENDBRANCH   7  12
BRANCH   8  14
ATOM     14  O   UNL     1     -32.481  60.243 -26.110  0.00  0.00    +0.000 OA
ATOM     15  H   UNL     1     -32.852  59.697 -26.832  0.00  0.00    +0.000 HD
ENDBRANCH   8  14
TORSDOF 2
ENDMDL
MODEL 5
REMARK VINA RESULT:      -4.7     23.068     24.603
REMARK  Name = 5281416_Esculetin.pdbqt.pdb
REMARK  2 active torsions:
REMARK  status: ('A' for Active; 'I' for Inactive)
REMARK    1  A    between atoms: C_7  and  O_12
REMARK    2  A    between atoms: C_8  and  O_14
REMARK                            x       y       z     vdW  Elec       q    Type
REMARK                         _______ _______ _______ _____ _____    ______ ____
ROOT
ATOM      1  O   UNL     1     -35.490  45.668 -10.722  0.00  0.00    +0.000 OA
ATOM      2  O   UNL     1     -37.364  46.533 -11.838  0.00  0.00    +0.000 OA
ATOM      3  C   UNL     1     -35.197  46.369  -8.347  0.00  0.00    +0.000 A 
ATOM      4  C   UNL     1     -34.751  45.633  -9.478  0.00  0.00    +0.000 A 
ATOM      5  C   UNL     1     -34.495  46.340  -7.153  0.00  0.00    +0.000 A 
ATOM      6  C   UNL     1     -33.600  44.859  -9.430  0.00  0.00    +0.000 A 
ATOM      7  C   UNL     1     -33.340  45.563  -7.108  0.00  0.00    +0.000 A 
ATOM      8  C   UNL     1     -32.903  44.837  -8.227  0.00  0.00    +0.000 A 
ATOM      9  C   UNL     1     -36.388  47.104  -8.569  0.00  0.00    +0.000 A 
ATOM     10  C   UNL     1     -36.983  47.120  -9.604  0.00  0.00    +0.000 A 
ATOM     11  C   UNL     1     -36.677  46.443 -10.834  0.00  0.00    +0.000 A 
ENDROOT
BRANCH   7  12
ATOM     12  O   UNL     1     -32.591  45.481  -5.964  0.00  0.00    +0.000 OA
ATOM     13  H   UNL     1     -32.433  46.389  -5.645  0.00  0.00    +0.000 HD
ENDBRANCH   7  12
BRANCH   8  14
ATOM     14  O   UNL     1     -31.763  44.086  -8.138  0.00  0.00    +0.000 OA
ATOM     15  H   UNL     1     -31.721  43.581  -8.974  0.00  0.00    +0.000 HD
ENDBRANCH   8  14
TORSDOF 2
ENDMDL
MODEL 6
REMARK VINA RESULT:      -4.3     15.791     17.273
REMARK  Name = 5281416_Esculetin.pdbqt.pdb
REMARK  2 active torsions:
REMARK  status: ('A' for Active; 'I' for Inactive)
REMARK    1  A    between atoms: C_7  and  O_12
REMARK    2  A    between atoms: C_8  and  O_14
REMARK                            x       y       z     vdW  Elec       q    Type
REMARK                         _______ _______ _______ _____ _____    ______ ____
ROOT
ATOM      1  O   UNL     1     -35.673  49.711 -17.348  0.00  0.00    +0.000 OA
ATOM      2  O   UNL     1     -36.458  51.010 -19.137  0.00  0.00    +0.000 OA
ATOM      3  C   UNL     1     -34.103  47.863 -17.931  0.00  0.00    +0.000 A 
ATOM      4  C   UNL     1     -34.835  48.598 -16.958  0.00  0.00    +0.000 A 
ATOM      5  C   UNL     1     -33.299  46.796 -17.564  0.00  0.00    +0.000 A 
ATOM      6  C   UNL     1     -34.772  48.276 -15.609  0.00  0.00    +0.000 A 
ATOM      7  C   UNL     1     -33.238  46.476 -16.210  0.00  0.00    +0.000 A 
ATOM      8  C   UNL     1     -33.961  47.204 -15.252  0.00  0.00    +0.000 A 
ATOM      9  C   UNL     1     -34.282  48.325 -19.258  0.00  0.00    +0.000 A 
ATOM     10  C   UNL     1     -34.979  49.246 -19.560  0.00  0.00    +0.000 A 
ATOM     11  C   UNL     1     -35.779  50.089 -18.715  0.00  0.00    +0.000 A 
ENDROOT
BRANCH   7  12
ATOM     12  O   UNL     1     -32.465  45.435 -15.767  0.00  0.00    +0.000 OA
ATOM     13  H   UNL     1     -32.077  44.997 -16.547  0.00  0.00    +0.000 HD
ENDBRANCH   7  12
BRANCH   8  14
ATOM     14  O   UNL     1     -33.872  46.854 -13.933  0.00  0.00    +0.000 OA
ATOM     15  H   UNL     1     -33.513  45.944 -13.931  0.00  0.00    +0.000 HD
ENDBRANCH   8  14
TORSDOF 2
ENDMDL
MODEL 7
REMARK VINA RESULT:      -4.3     34.546     36.718
REMARK  Name = 5281416_Esculetin.pdbqt.pdb
REMARK  2 active torsions:
REMARK  status: ('A' for Active; 'I' for Inactive)
REMARK    1  A    between atoms: C_7  and  O_12
REMARK    2  A    between atoms: C_8  and  O_14
REMARK                            x       y       z     vdW  Elec       q    Type
REMARK                         _______ _______ _______ _____ _____    ______ ____
ROOT
ATOM      1  O   UNL     1     -17.607  51.709   7.821  0.00  0.00    +0.000 OA
ATOM      2  O   UNL     1     -17.123  50.551   9.803  0.00  0.00    +0.000 OA
ATOM      3  C   UNL     1     -17.105  50.513   5.692  0.00  0.00    +0.000 A 
ATOM      4  C   UNL     1     -17.587  51.664   6.375  0.00  0.00    +0.000 A 
ATOM      5  C   UNL     1     -17.083  50.462   4.307  0.00  0.00    +0.000 A 
ATOM      6  C   UNL     1     -18.051  52.774   5.685  0.00  0.00    +0.000 A 
ATOM      7  C   UNL     1     -17.549  51.578   3.618  0.00  0.00    +0.000 A 
ATOM      8  C   UNL     1     -18.024  52.712   4.295  0.00  0.00    +0.000 A 
ATOM      9  C   UNL     1     -16.670  49.472   6.548  0.00  0.00    +0.000 A 
ATOM     10  C   UNL     1     -16.695  49.530   7.740  0.00  0.00    +0.000 A 
ATOM     11  C   UNL     1     -17.144  50.602   8.585  0.00  0.00    +0.000 A 
ENDROOT
BRANCH   7  12
ATOM     12  O   UNL     1     -17.560  51.606   2.248  0.00  0.00    +0.000 OA
ATOM     13  H   UNL     1     -16.830  52.183   1.955  0.00  0.00    +0.000 HD
ENDBRANCH   7  12
BRANCH   8  14
ATOM     14  O   UNL     1     -18.472  53.786   3.578  0.00  0.00    +0.000 OA
ATOM     15  H   UNL     1     -18.008  53.735   2.718  0.00  0.00    +0.000 HD
ENDBRANCH   8  14
TORSDOF 2
ENDMDL
MODEL 8
REMARK VINA RESULT:      -4.3     27.330     28.645
REMARK  Name = 5281416_Esculetin.pdbqt.pdb
REMARK  2 active torsions:
REMARK  status: ('A' for Active; 'I' for Inactive)
REMARK    1  A    between atoms: C_7  and  O_12
REMARK    2  A    between atoms: C_8  and  O_14
REMARK                            x       y       z     vdW  Elec       q    Type
REMARK                         _______ _______ _______ _____ _____    ______ ____
ROOT
ATOM      1  O   UNL     1     -26.860  36.930  -9.182  0.00  0.00    +0.000 OA
ATOM      2  O   UNL     1     -29.096  36.239  -9.009  0.00  0.00    +0.000 OA
ATOM      3  C   UNL     1     -26.484  39.284  -9.912  0.00  0.00    +0.000 A 
ATOM      4  C   UNL     1     -25.969  38.022  -9.507  0.00  0.00    +0.000 A 
ATOM      5  C   UNL     1     -25.637  40.335 -10.225  0.00  0.00    +0.000 A 
ATOM      6  C   UNL     1     -24.604  37.796  -9.409  0.00  0.00    +0.000 A 
ATOM      7  C   UNL     1     -24.267  40.104 -10.126  0.00  0.00    +0.000 A 
ATOM      8  C   UNL     1     -23.762  38.857  -9.725  0.00  0.00    +0.000 A 
ATOM      9  C   UNL     1     -27.899  39.343  -9.958  0.00  0.00    +0.000 A 
ATOM     10  C   UNL     1     -28.617  38.429  -9.686  0.00  0.00    +0.000 A 
ATOM     11  C   UNL     1     -28.270  37.100  -9.263  0.00  0.00    +0.000 A 
ENDROOT
BRANCH   7  12
ATOM     12  O   UNL     1     -23.364  41.092 -10.418  0.00  0.00    +0.000 OA
ATOM     13  H   UNL     1     -23.272  41.656  -9.628  0.00  0.00    +0.000 HD
ENDBRANCH   7  12
BRANCH   8  14
ATOM     14  O   UNL     1     -22.409  38.675  -9.642  0.00  0.00    +0.000 OA
ATOM     15  H   UNL     1     -22.047  39.046 -10.472  0.00  0.00    +0.000 HD
ENDBRANCH   8  14
TORSDOF 2
ENDMDL
MODEL 9
REMARK VINA RESULT:      -4.1     34.796     36.858
REMARK  Name = 5281416_Esculetin.pdbqt.pdb
REMARK  2 active torsions:
REMARK  status: ('A' for Active; 'I' for Inactive)
REMARK    1  A    between atoms: C_7  and  O_12
REMARK    2  A    between atoms: C_8  and  O_14
REMARK                            x       y       z     vdW  Elec       q    Type
REMARK                         _______ _______ _______ _____ _____    ______ ____
ROOT
ATOM      1  O   UNL     1     -16.929  49.901   7.674  0.00  0.00    +0.000 OA
ATOM      2  O   UNL     1     -15.988  47.815   8.195  0.00  0.00    +0.000 OA
ATOM      3  C   UNL     1     -17.105  50.459   5.250  0.00  0.00    +0.000 A 
ATOM      4  C   UNL     1     -17.311  50.808   6.614  0.00  0.00    +0.000 A 
ATOM      5  C   UNL     1     -17.468  51.323   4.230  0.00  0.00    +0.000 A 
ATOM      6  C   UNL     1     -17.880  52.021   6.972  0.00  0.00    +0.000 A 
ATOM      7  C   UNL     1     -18.039  52.540   4.593  0.00  0.00    +0.000 A 
ATOM      8  C   UNL     1     -18.241  52.881   5.940  0.00  0.00    +0.000 A 
ATOM      9  C   UNL     1     -16.513  49.186   5.062  0.00  0.00    +0.000 A 
ATOM     10  C   UNL     1     -16.206  48.452   5.952  0.00  0.00    +0.000 A 
ATOM     11  C   UNL     1     -16.341  48.642   7.370  0.00  0.00    +0.000 A 
ENDROOT
BRANCH   7  12
ATOM     12  O   UNL     1     -18.425  53.449   3.643  0.00  0.00    +0.000 OA
ATOM     13  H   UNL     1     -19.037  54.080   4.064  0.00  0.00    +0.000 HD
ENDBRANCH   7  12
BRANCH   8  14
ATOM     14  O   UNL     1     -18.805  54.087   6.251  0.00  0.00    +0.000 OA
ATOM     15  H   UNL     1     -19.754  53.991   6.033  0.00  0.00    +0.000 HD
ENDBRANCH   8  14
TORSDOF 2
ENDMDL
